TITL C-116603-7047-2 1302.87175162485 125000 -1055.1042314974 0 0 148 (C1) n - 1
REM
REM in /rds/project/t2_vol4/rds-t2-cs072/BORA/CARBON/from-Arr/AIRSS/Generating-Clusters/GAP-ML-2020/Higher-Symm/SD-CG/HFTN-CG
REM
REM
REM
REM
REM
REM ./C.cell (b20cbc046b6831c77cfcea5457e17084)
REM AIRSS Version 0.9.1 bugfix July 2018 build 013d7b7c2542+ Fri, 06 Jul 2018 19:26:36 +0100
REM compiler GCC version 9.3.0
REM options -cpp -mtune=generic -march=x86-64 -g -O0
REM seed -418571348 -934853313 229570515 535690715 -876517667 -1015184922 1902490812 -1315434745 -92605794 122339881 377914123 189140186 775737195 -1812628684 -413324567 -1379200329 386457307 632807314 1167409841 993853909 1956747653 -151381919 1427600208 -1573872639 473268879 -854331206 -1459446844 -1044037239 1632571100 -1758186744 -1332672916 154006391 1595253723
REM
CELL 1.54180   50.00000   50.00000   50.00000   90.00000   90.00000   90.00000
LATT -1
SFAC C  
C      1  0.4990940000000  0.4516210000000  0.4075210000000 1.0
C      1  0.5062860000000  0.4920340000000  0.3972080000000 1.0
C      1  0.4999260000000  0.5643480000000  0.4165720000000 1.0
C      1  0.5073800000000  0.5900840000000  0.4492310000000 1.0
C      1  0.4999340000000  0.6037100000000  0.5228250000000 1.0
C      1  0.5067560000000  0.5849810000000  0.5600350000000 1.0
C      1  0.4986780000000  0.5233220000000  0.6024570000000 1.0
C      1  0.5063610000000  0.4823780000000  0.6045090000000 1.0
C      1  0.5028230000000  0.4147060000000  0.5748250000000 1.0
C      1  0.4983730000000  0.3939390000000  0.5044210000000 1.0
C      1  0.5062960000000  0.4028340000000  0.4643140000000 1.0
C      1  0.5552510000000  0.4650500000000  0.5356990000000 1.0
C      1  0.5674710000000  0.4490180000000  0.5116340000000 1.0
C      1  0.5567540000000  0.4536660000000  0.4820130000000 1.0
C      1  0.5677090000000  0.4692030000000  0.4578830000000 1.0
C      1  0.5577750000000  0.4976850000000  0.4505900000000 1.0
C      1  0.5690290000000  0.5257890000000  0.4546070000000 1.0
C      1  0.5589260000000  0.5450080000000  0.4768680000000 1.0
C      1  0.5698120000000  0.5525260000000  0.5046740000000 1.0
C      1  0.5581510000000  0.5391990000000  0.5310970000000 1.0
C      1  0.5694420000000  0.5200680000000  0.5523830000000 1.0
C      1  0.5689100000000  0.4871670000000  0.5531450000000 1.0
C      1  0.4659370000000  0.4466550000000  0.5741810000000 1.0
C      1  0.4633160000000  0.4140290000000  0.5314720000000 1.0
C      1  0.4569080000000  0.4093070000000  0.4814260000000 1.0
C      1  0.4631350000000  0.4355780000000  0.4353310000000 1.0
C      1  0.4575270000000  0.4790760000000  0.4094660000000 1.0
C      1  0.4634130000000  0.5321450000000  0.4144290000000 1.0
C      1  0.4586500000000  0.5729210000000  0.4433270000000 1.0
C      1  0.4641800000000  0.5908740000000  0.4928150000000 1.0
C      1  0.4586420000000  0.5819040000000  0.5417080000000 1.0
C      1  0.4632120000000  0.5446900000000  0.5789520000000 1.0
C      1  0.4564580000000  0.4960150000000  0.5921230000000 1.0
C      1  0.5134500000000  0.4189860000000  0.4419730000000 1.0
C      1  0.5223300000000  0.4687830000000  0.4025200000000 1.0
C      1  0.5134510000000  0.5192230000000  0.4024210000000 1.0
C      1  0.5234920000000  0.5760550000000  0.4298020000000 1.0
C      1  0.5145660000000  0.5974280000000  0.4759860000000 1.0
C      1  0.5233730000000  0.5966130000000  0.5393630000000 1.0
C      1  0.5129800000000  0.5634540000000  0.5779350000000 1.0
C      1  0.5226770000000  0.5060880000000  0.6042970000000 1.0
C      1  0.5141920000000  0.4574880000000  0.5936770000000 1.0
C      1  0.5118980000000  0.4095620000000  0.5491890000000 1.0
C      1  0.5225530000000  0.3971620000000  0.4876190000000 1.0
C      1  0.6090280000000  0.4733460000000  0.5260220000000 1.0
C      1  0.5972340000000  0.4561270000000  0.5077740000000 1.0
C      1  0.6060150000000  0.4557690000000  0.4816440000000 1.0
C      1  0.5976670000000  0.4710230000000  0.4605230000000 1.0
C      1  0.6079590000000  0.4951490000000  0.4514110000000 1.0
C      1  0.5985040000000  0.5201290000000  0.4595900000000 1.0
C      1  0.6079420000000  0.5338790000000  0.4810880000000 1.0
C      1  0.5995180000000  0.5448270000000  0.5044730000000 1.0
C      1  0.6103360000000  0.5361920000000  0.5291730000000 1.0
C      1  0.5990340000000  0.5187810000000  0.5461680000000 1.0
C      1  0.5981750000000  0.4894000000000  0.5445890000000 1.0
C      1  0.4491090000000  0.5476080000000  0.4338520000000 1.0
C      1  0.4535870000000  0.5761680000000  0.4710140000000 1.0
C      1  0.4496170000000  0.5798360000000  0.5148530000000 1.0
C      1  0.4538500000000  0.5572850000000  0.5554880000000 1.0
C      1  0.4482020000000  0.5198040000000  0.5780440000000 1.0
C      1  0.4507900000000  0.4716840000000  0.5774810000000 1.0
C      1  0.4565260000000  0.4350150000000  0.5498200000000 1.0
C      1  0.4475490000000  0.4180260000000  0.5074080000000 1.0
C      1  0.4521180000000  0.4283240000000  0.4607150000000 1.0
C      1  0.4485220000000  0.4595680000000  0.4286130000000 1.0
C      1  0.4537010000000  0.5056550000000  0.4194730000000 1.0
C      1  0.5546500000000  0.4964230000000  0.4208030000000 1.0
C      1  0.5553020000000  0.5390800000000  0.4301080000000 1.0
C      1  0.5559190000000  0.5717220000000  0.4632230000000 1.0
C      1  0.5562360000000  0.5806320000000  0.5062000000000 1.0
C      1  0.5538350000000  0.5627840000000  0.5490810000000 1.0
C      1  0.5552680000000  0.5292780000000  0.5772240000000 1.0
C      1  0.5568080000000  0.4819970000000  0.5803800000000 1.0
C      1  0.5474860000000  0.4443030000000  0.5567330000000 1.0
C      1  0.5541060000000  0.4217340000000  0.5175040000000 1.0
C      1  0.5551010000000  0.4256640000000  0.4709090000000 1.0
C      1  0.5542210000000  0.4527500000000  0.4361700000000 1.0
C      1  0.5431420000000  0.5892760000000  0.4819350000000 1.0
C      1  0.5487170000000  0.5860370000000  0.5332520000000 1.0
C      1  0.5409520000000  0.5540550000000  0.5728590000000 1.0
C      1  0.5485950000000  0.5064550000000  0.5933760000000 1.0
C      1  0.5410230000000  0.4580160000000  0.5808990000000 1.0
C      1  0.5391460000000  0.4210530000000  0.5427300000000 1.0
C      1  0.5475490000000  0.4088030000000  0.4926640000000 1.0
C      1  0.5416340000000  0.4286770000000  0.4453430000000 1.0
C      1  0.5474950000000  0.4697470000000  0.4142920000000 1.0
C      1  0.5419230000000  0.5208070000000  0.4124560000000 1.0
C      1  0.5490090000000  0.5662090000000  0.4361580000000 1.0
C      1  0.4824100000000  0.3979470000000  0.4808750000000 1.0
C      1  0.4919590000000  0.4317170000000  0.4264280000000 1.0
C      1  0.4830750000000  0.4742590000000  0.3995150000000 1.0
C      1  0.4922240000000  0.5389390000000  0.4067430000000 1.0
C      1  0.4840320000000  0.5803770000000  0.4344720000000 1.0
C      1  0.4928570000000  0.6014880000000  0.4955380000000 1.0
C      1  0.4835570000000  0.5940700000000  0.5446430000000 1.0
C      1  0.4912250000000  0.5475670000000  0.5899890000000 1.0
C      1  0.4822010000000  0.4994870000000  0.6037750000000 1.0
C      1  0.4934000000000  0.4390870000000  0.5841500000000 1.0
C      1  0.4906360000000  0.4024150000000  0.5300060000000 1.0
C      1  0.4059260000000  0.5262540000000  0.4653870000000 1.0
C      1  0.3969710000000  0.5362040000000  0.4897330000000 1.0
C      1  0.4094240000000  0.5394340000000  0.5134850000000 1.0
C      1  0.4090990000000  0.5203030000000  0.5364000000000 1.0
C      1  0.3940680000000  0.4964130000000  0.5357150000000 1.0
C      1  0.4065290000000  0.4748060000000  0.5491630000000 1.0
C      1  0.3941390000000  0.4693360000000  0.5253760000000 1.0
C      1  0.4041950000000  0.4540320000000  0.5032690000000 1.0
C      1  0.3956380000000  0.4593100000000  0.4780650000000 1.0
C      1  0.4047130000000  0.4763590000000  0.4585520000000 1.0
C      1  0.3966670000000  0.5022330000000  0.4566500000000 1.0
C      1  0.4913850000000  0.5490180000000  0.5075050000000 1.0
C      1  0.4787930000000  0.5286310000000  0.5251090000000 1.0
C      1  0.4905060000000  0.5144410000000  0.5462930000000 1.0
C      1  0.4867760000000  0.4861350000000  0.5450630000000 1.0
C      1  0.4722880000000  0.4722260000000  0.5245810000000 1.0
C      1  0.4873380000000  0.4557270000000  0.5053850000000 1.0
C      1  0.4720410000000  0.4665560000000  0.4825450000000 1.0
C      1  0.4866780000000  0.4780530000000  0.4611690000000 1.0
C      1  0.4753200000000  0.5019660000000  0.4517500000000 1.0
C      1  0.4882730000000  0.5266800000000  0.4595950000000 1.0
C      1  0.4761670000000  0.5370840000000  0.4833500000000 1.0
C      1  0.4358870000000  0.5311590000000  0.4571920000000 1.0
C      1  0.4483130000000  0.5477250000000  0.4808860000000 1.0
C      1  0.4372630000000  0.5515380000000  0.5099420000000 1.0
C      1  0.4509340000000  0.5361220000000  0.5337180000000 1.0
C      1  0.4358440000000  0.5135560000000  0.5502430000000 1.0
C      1  0.4356590000000  0.4791750000000  0.5526440000000 1.0
C      1  0.4475400000000  0.4579480000000  0.5327400000000 1.0
C      1  0.4346760000000  0.4456650000000  0.5055680000000 1.0
C      1  0.4462160000000  0.4535650000000  0.4754670000000 1.0
C      1  0.4353220000000  0.4734620000000  0.4526520000000 1.0
C      1  0.4462440000000  0.5029230000000  0.4483220000000 1.0
C      1  0.5156600000000  0.4862840000000  0.5455300000000 1.0
C      1  0.5303640000000  0.4762660000000  0.5232640000000 1.0
C      1  0.5153930000000  0.4564200000000  0.5066700000000 1.0
C      1  0.5271460000000  0.4577390000000  0.4819240000000 1.0
C      1  0.5146840000000  0.4793500000000  0.4674830000000 1.0
C      1  0.5287720000000  0.4990620000000  0.4522280000000 1.0
C      1  0.5163600000000  0.5222630000000  0.4654310000000 1.0
C      1  0.5297660000000  0.5428350000000  0.4793730000000 1.0
C      1  0.5193720000000  0.5458750000000  0.5057440000000 1.0
C      1  0.5328360000000  0.5258080000000  0.5229950000000 1.0
C      1  0.5192040000000  0.5148250000000  0.5466210000000 1.0
C      1  0.4811850000000  0.5121110000000  0.4989440000000 1.0
C      1  0.4623060000000  0.4904610000000  0.5009840000000 1.0
C      1  0.5110470000000  0.5026390000000  0.4881080000000 1.0
C      1  0.5344370000000  0.5010300000000  0.5062830000000 1.0
C      1  0.4359930000000  0.4974380000000  0.4989750000000 1.0
END
