TITL C-110356-5043-4 -93.6899129717408 125000 -384.302226453337 0 0 58 (C3) n - 1
REM
REM in /rds/project/t2_vol4/rds-t2-cs072/BORA/CARBON/from-Arr/AIRSS/Generating-Clusters/GAP-ML-2020/Higher-Symm/SD-CG/HFTN-CG
REM
REM
REM
REM
REM
REM ./C.cell (b20cbc046b6831c77cfcea5457e17084)
REM AIRSS Version 0.9.1 bugfix July 2018 build 013d7b7c2542+ Fri, 06 Jul 2018 19:26:36 +0100
REM compiler GCC version 9.3.0
REM options -cpp -mtune=generic -march=x86-64 -g -O0
REM seed 1640569337 -29381837 1043375259 -1739681118 1310163948 607169356 -386184424 -985183371 1283450920 -1367873236 1740972138 -1908989848 -650926925 1477118224 -782364971 -1680323391 811421770 1966171249 1370108989 338326059 352328827 1290423585 -1442855059 -1240145198 138887882 -439917014 2076253608 -1340531490 1727350574 -1411160959 -141555356 -341557368 -327176916
REM
CELL 1.54180   50.00000   50.00000   50.00000   90.00000   90.00000   90.00000
LATT -1
SFAC C  
C      1  0.4662620000000  0.4383370000000  0.4880890000000 1.0
C      1  0.5065250000000  0.4383340000000  0.5347960000000 1.0
C      1  0.5268410000000  0.4388000000000  0.4765750000000 1.0
C      1  0.4373130000000  0.4856190000000  0.5356810000000 1.0
C      1  0.5615090000000  0.4864300000000  0.5362120000000 1.0
C      1  0.4998670000000  0.4866440000000  0.4283890000000 1.0
C      1  0.4716350000000  0.4826080000000  0.4310700000000 1.0
C      1  0.4538080000000  0.4817590000000  0.5587790000000 1.0
C      1  0.5733210000000  0.4828200000000  0.5103670000000 1.0
C      1  0.4724260000000  0.5717570000000  0.5132300000000 1.0
C      1  0.5232400000000  0.5720670000000  0.5172780000000 1.0
C      1  0.5013370000000  0.5721870000000  0.4712480000000 1.0
C      1  0.5232990000000  0.5741880000000  0.4889680000000 1.0
C      1  0.4767610000000  0.5739040000000  0.4853570000000 1.0
C      1  0.4969040000000  0.5737940000000  0.5274660000000 1.0
C      1  0.4827900000000  0.4876470000000  0.5189710000000 1.0
C      1  0.5242740000000  0.4879980000000  0.5051870000000 1.0
C      1  0.4915930000000  0.4879500000000  0.4761520000000 1.0
C      1  0.4796170000000  0.4433660000000  0.5371020000000 1.0
C      1  0.5422150000000  0.4439960000000  0.4987410000000 1.0
C      1  0.4776930000000  0.4437740000000  0.4637080000000 1.0
C      1  0.4742480000000  0.4613610000000  0.5586420000000 1.0
C      1  0.5632860000000  0.4623230000000  0.4926740000000 1.0
C      1  0.4616350000000  0.4619090000000  0.4485470000000 1.0
C      1  0.5180160000000  0.4958920000000  0.4787920000000 1.0
C      1  0.4717490000000  0.4954970000000  0.4947910000000 1.0
C      1  0.5087390000000  0.4955560000000  0.5268610000000 1.0
C      1  0.5442010000000  0.5592730000000  0.5304500000000 1.0
C      1  0.5024530000000  0.5594810000000  0.4464720000000 1.0
C      1  0.4506010000000  0.5586930000000  0.5246130000000 1.0
C      1  0.4761480000000  0.5227000000000  0.4855400000000 1.0
C      1  0.4981270000000  0.5226030000000  0.5277550000000 1.0
C      1  0.5236960000000  0.5230000000000  0.4876140000000 1.0
C      1  0.5079270000000  0.4462330000000  0.4585690000000 1.0
C      1  0.4600160000000  0.4456040000000  0.5134940000000 1.0
C      1  0.5315390000000  0.4459930000000  0.5275260000000 1.0
C      1  0.4432570000000  0.4807370000000  0.4618740000000 1.0
C      1  0.4946980000000  0.4804660000000  0.5679500000000 1.0
C      1  0.5608400000000  0.4814590000000  0.4703660000000 1.0
C      1  0.4774420000000  0.5242950000000  0.5477940000000 1.0
C      1  0.5513650000000  0.5250800000000  0.4955150000000 1.0
C      1  0.4691260000000  0.5247580000000  0.4576340000000 1.0
C      1  0.5674670000000  0.5028580000000  0.4892430000000 1.0
C      1  0.4559730000000  0.5023700000000  0.4467600000000 1.0
C      1  0.4749320000000  0.5018200000000  0.5645570000000 1.0
C      1  0.4921570000000  0.5349380000000  0.4401460000000 1.0
C      1  0.4506340000000  0.5341130000000  0.5366220000000 1.0
C      1  0.5549470000000  0.5348670000000  0.5243470000000 1.0
C      1  0.4450290000000  0.4833220000000  0.4892720000000 1.0
C      1  0.5174980000000  0.4834330000000  0.5527250000000 1.0
C      1  0.5362130000000  0.4840980000000  0.4582400000000 1.0
C      1  0.5612200000000  0.5134640000000  0.5414320000000 1.0
C      1  0.5041320000000  0.5137500000000  0.4261090000000 1.0
C      1  0.4328050000000  0.5126690000000  0.5332070000000 1.0
C      1  0.5179780000000  0.4686750000000  0.4421990000000 1.0
C      1  0.4404830000000  0.4677600000000  0.5130390000000 1.0
C      1  0.5405820000000  0.4682350000000  0.5447340000000 1.0
C      1  0.4992550000000  0.5332080000000  0.5003630000000 1.0
END
