TITL C-116599-951-1 0.110784441362573 125000 -816.201560296724 0 0 117 (C1) n - 1
REM
REM in /rds/project/t2_vol4/rds-t2-cs072/BORA/CARBON/from-Arr/AIRSS/Generating-Clusters/GAP-ML-2020/Higher-Symm/SD-CG/HFTN-CG
REM
REM
REM
REM
REM
REM ./C.cell (b20cbc046b6831c77cfcea5457e17084)
REM AIRSS Version 0.9.1 bugfix July 2018 build 013d7b7c2542+ Fri, 06 Jul 2018 19:26:36 +0100
REM compiler GCC version 9.3.0
REM options -cpp -mtune=generic -march=x86-64 -g -O0
REM seed -1602665857 -222779075 -339609550 -1297598629 -659019255 374223698 -180137506 1728441736 -795733656 -84189566 1663101977 -182538362 1808700278 1144338585 -1000279403 193664230 -192757826 -1736135890 1745836847 1990843665 -861407283 1634428040 2100902673 792299597 -1148754931 -616325576 -1101903692 -608023635 706572223 80041479 1383818571 -1962675157 -965229409
REM
CELL 1.54180   50.00000   50.00000   50.00000   90.00000   90.00000   90.00000
LATT -1
SFAC C  
C      1  0.4138850000000  0.5077940000000  0.4596250000000 1.0
C      1  0.5466500000000  0.5594050000000  0.4597350000000 1.0
C      1  0.5314850000000  0.5111380000000  0.4782540000000 1.0
C      1  0.5002720000000  0.5867740000000  0.5050930000000 1.0
C      1  0.5344850000000  0.4635850000000  0.4100070000000 1.0
C      1  0.5082950000000  0.4218550000000  0.4569420000000 1.0
C      1  0.4807730000000  0.4715920000000  0.5852640000000 1.0
C      1  0.4627260000000  0.4780240000000  0.4795150000000 1.0
C      1  0.4654960000000  0.5578180000000  0.5572770000000 1.0
C      1  0.4301060000000  0.4701070000000  0.5248330000000 1.0
C      1  0.4097050000000  0.5411830000000  0.5150200000000 1.0
C      1  0.5710220000000  0.5506570000000  0.4981380000000 1.0
C      1  0.5788420000000  0.5034380000000  0.4975250000000 1.0
C      1  0.4854490000000  0.4358830000000  0.5484420000000 1.0
C      1  0.5742270000000  0.4529960000000  0.5532760000000 1.0
C      1  0.5216100000000  0.5277880000000  0.4228970000000 1.0
C      1  0.4255120000000  0.5165570000000  0.5136320000000 1.0
C      1  0.4627540000000  0.5096310000000  0.5833010000000 1.0
C      1  0.4169050000000  0.5571960000000  0.5363190000000 1.0
C      1  0.5351590000000  0.5022790000000  0.5304800000000 1.0
C      1  0.5739010000000  0.4515430000000  0.5067940000000 1.0
C      1  0.4998600000000  0.4193470000000  0.5293730000000 1.0
C      1  0.4993170000000  0.5258240000000  0.5123810000000 1.0
C      1  0.4406050000000  0.4773550000000  0.4366150000000 1.0
C      1  0.4532230000000  0.5450000000000  0.4328980000000 1.0
C      1  0.4322520000000  0.4185920000000  0.4502370000000 1.0
C      1  0.5395080000000  0.4762140000000  0.5881320000000 1.0
C      1  0.5303840000000  0.4733910000000  0.5336060000000 1.0
C      1  0.5145340000000  0.5098930000000  0.5521760000000 1.0
C      1  0.4929630000000  0.5263630000000  0.4157180000000 1.0
C      1  0.5815800000000  0.4788830000000  0.5133270000000 1.0
C      1  0.5103440000000  0.5823340000000  0.5305040000000 1.0
C      1  0.5518290000000  0.5720040000000  0.5036920000000 1.0
C      1  0.5815880000000  0.4784870000000  0.5433500000000 1.0
C      1  0.4870310000000  0.4975850000000  0.5958330000000 1.0
C      1  0.4178070000000  0.5342540000000  0.4666930000000 1.0
C      1  0.4704470000000  0.5058730000000  0.4140210000000 1.0
C      1  0.5142780000000  0.5905370000000  0.4799470000000 1.0
C      1  0.5398930000000  0.5795250000000  0.4787790000000 1.0
C      1  0.5206830000000  0.4824960000000  0.4693600000000 1.0
C      1  0.5102390000000  0.4496230000000  0.4192220000000 1.0
C      1  0.4877300000000  0.4611730000000  0.4360460000000 1.0
C      1  0.5758200000000  0.4998560000000  0.5610670000000 1.0
C      1  0.4974650000000  0.4851950000000  0.4526770000000 1.0
C      1  0.5449590000000  0.4641950000000  0.4675550000000 1.0
C      1  0.5615120000000  0.4990410000000  0.4434280000000 1.0
C      1  0.4684230000000  0.5382970000000  0.5794050000000 1.0
C      1  0.5422570000000  0.4875050000000  0.3998880000000 1.0
C      1  0.5720470000000  0.4354520000000  0.5301600000000 1.0
C      1  0.4532600000000  0.4744420000000  0.5445470000000 1.0
C      1  0.4564010000000  0.4837510000000  0.5722610000000 1.0
C      1  0.5632710000000  0.5125810000000  0.4710630000000 1.0
C      1  0.5500800000000  0.4408530000000  0.5654380000000 1.0
C      1  0.5795970000000  0.5224400000000  0.5458370000000 1.0
C      1  0.5368170000000  0.5729700000000  0.5279140000000 1.0
C      1  0.5447350000000  0.4181160000000  0.4861560000000 1.0
C      1  0.5500900000000  0.4465410000000  0.4900760000000 1.0
C      1  0.5094290000000  0.5601050000000  0.5764380000000 1.0
C      1  0.5773490000000  0.5272500000000  0.5141300000000 1.0
C      1  0.4814560000000  0.4352350000000  0.4563280000000 1.0
C      1  0.4324470000000  0.4376490000000  0.4708460000000 1.0
C      1  0.4987930000000  0.4570030000000  0.5669300000000 1.0
C      1  0.5276430000000  0.4540010000000  0.5782180000000 1.0
C      1  0.5144490000000  0.4117690000000  0.4829980000000 1.0
C      1  0.4124070000000  0.5527110000000  0.4881030000000 1.0
C      1  0.5005590000000  0.5676150000000  0.4385420000000 1.0
C      1  0.4397840000000  0.4431030000000  0.5205080000000 1.0
C      1  0.4921180000000  0.5407930000000  0.4865800000000 1.0
C      1  0.4465330000000  0.5198770000000  0.4212250000000 1.0
C      1  0.4803590000000  0.4682560000000  0.5004260000000 1.0
C      1  0.5251910000000  0.4315900000000  0.4361030000000 1.0
C      1  0.5489570000000  0.4224080000000  0.5428560000000 1.0
C      1  0.4696430000000  0.6006360000000  0.4603890000000 1.0
C      1  0.5164200000000  0.5352120000000  0.4705130000000 1.0
C      1  0.4278350000000  0.5019650000000  0.4343440000000 1.0
C      1  0.4391480000000  0.5652640000000  0.4849460000000 1.0
C      1  0.5024990000000  0.4811850000000  0.5468060000000 1.0
C      1  0.4186270000000  0.4895090000000  0.5072920000000 1.0
C      1  0.4548470000000  0.5556870000000  0.5100270000000 1.0
C      1  0.4747350000000  0.4992180000000  0.4665030000000 1.0
C      1  0.4533350000000  0.5247760000000  0.5069680000000 1.0
C      1  0.4361440000000  0.4666670000000  0.4656040000000 1.0
C      1  0.4946410000000  0.5641530000000  0.5504940000000 1.0
C      1  0.4932430000000  0.4185050000000  0.5013650000000 1.0
C      1  0.4593070000000  0.5860220000000  0.4799720000000 1.0
C      1  0.5429960000000  0.5075630000000  0.4204570000000 1.0
C      1  0.5278630000000  0.4106890000000  0.5292610000000 1.0
C      1  0.4657720000000  0.4778230000000  0.4227180000000 1.0
C      1  0.5624520000000  0.4705730000000  0.4468830000000 1.0
C      1  0.4464420000000  0.4333960000000  0.4953250000000 1.0
C      1  0.4809760000000  0.5504730000000  0.4258420000000 1.0
C      1  0.5070210000000  0.5174330000000  0.5967360000000 1.0
C      1  0.4753850000000  0.4372440000000  0.4890810000000 1.0
C      1  0.5306010000000  0.5176150000000  0.5782750000000 1.0
C      1  0.4595740000000  0.4442420000000  0.5418640000000 1.0
C      1  0.5545260000000  0.5265170000000  0.5342530000000 1.0
C      1  0.5092200000000  0.4755860000000  0.4960230000000 1.0
C      1  0.4751310000000  0.5125870000000  0.5214870000000 1.0
C      1  0.5533660000000  0.4981040000000  0.5803600000000 1.0
C      1  0.5661430000000  0.5423540000000  0.4720120000000 1.0
C      1  0.5231660000000  0.5489800000000  0.4439230000000 1.0
C      1  0.5082930000000  0.5363770000000  0.5385720000000 1.0
C      1  0.4572570000000  0.4203650000000  0.4450160000000 1.0
C      1  0.5377850000000  0.5484660000000  0.5425830000000 1.0
C      1  0.4456740000000  0.5436660000000  0.4619240000000 1.0
C      1  0.4170000000000  0.4857530000000  0.4778900000000 1.0
C      1  0.5338430000000  0.5473240000000  0.5715300000000 1.0
C      1  0.4938930000000  0.5424220000000  0.5915410000000 1.0
C      1  0.5487090000000  0.4499670000000  0.4323760000000 1.0
C      1  0.5200310000000  0.5058040000000  0.5053410000000 1.0
C      1  0.4963970000000  0.5894090000000  0.4565630000000 1.0
C      1  0.5354990000000  0.4006610000000  0.5033870000000 1.0
C      1  0.4438620000000  0.5608980000000  0.5384240000000 1.0
C      1  0.4777340000000  0.4846330000000  0.5286300000000 1.0
C      1  0.4788630000000  0.5682570000000  0.4972730000000 1.0
C      1  0.4675260000000  0.5250920000000  0.4773200000000 1.0
C      1  0.5270150000000  0.4583290000000  0.5099210000000 1.0
END
