TITL C-111527-3893-1 76.4649755948616 125000 -443.263501691194 0 0 66 (C1) n - 1
REM
REM in /rds/project/t2_vol4/rds-t2-cs072/BORA/CARBON/from-Arr/AIRSS/Generating-Clusters/GAP-ML-2020/Higher-Symm/SD-CG/HFTN-CG
REM
REM
REM
REM
REM
REM ./C.cell (b20cbc046b6831c77cfcea5457e17084)
REM AIRSS Version 0.9.1 bugfix July 2018 build 013d7b7c2542+ Fri, 06 Jul 2018 19:26:36 +0100
REM compiler GCC version 9.3.0
REM options -cpp -mtune=generic -march=x86-64 -g -O0
REM seed -1719498463 -321119784 1111515530 779570581 -11068412 -2129532113 -1055799375 413906772 -894938834 -1121923249 1630630121 1748612014 -1482357310 -1056979265 -551305373 1785953777 263820846 1922774235 590592880 1518049660 -1304701287 116543272 -997947420 -1023546931 1114178787 -1545178949 -908629 1668383860 2120441813 1862128591 256288744 -830591034 -477392398
REM
CELL 1.54180   50.00000   50.00000   50.00000   90.00000   90.00000   90.00000
LATT -1
SFAC C  
C      1  0.5021530000000  0.4771960000000  0.5707060000000 1.0
C      1  0.4680880000000  0.5652360000000  0.5012690000000 1.0
C      1  0.5708430000000  0.5031630000000  0.4596220000000 1.0
C      1  0.4879060000000  0.5291250000000  0.5636000000000 1.0
C      1  0.4982020000000  0.5199780000000  0.4375270000000 1.0
C      1  0.4902440000000  0.4685380000000  0.4369760000000 1.0
C      1  0.5243850000000  0.4368850000000  0.5149910000000 1.0
C      1  0.4719660000000  0.4323240000000  0.5012500000000 1.0
C      1  0.5240300000000  0.5714370000000  0.4894270000000 1.0
C      1  0.4325720000000  0.4870960000000  0.4768290000000 1.0
C      1  0.5635750000000  0.4926420000000  0.5310720000000 1.0
C      1  0.4311260000000  0.5054500000000  0.5279910000000 1.0
C      1  0.5012910000000  0.5322840000000  0.4847810000000 1.0
C      1  0.5541680000000  0.5048660000000  0.4859310000000 1.0
C      1  0.4943010000000  0.4924660000000  0.5266820000000 1.0
C      1  0.5096080000000  0.4771660000000  0.4815250000000 1.0
C      1  0.4930970000000  0.4778040000000  0.5032360000000 1.0
C      1  0.5189000000000  0.5287220000000  0.5079210000000 1.0
C      1  0.4755960000000  0.5187850000000  0.4883100000000 1.0
C      1  0.5473080000000  0.5291200000000  0.4998880000000 1.0
C      1  0.4752500000000  0.4983940000000  0.5066880000000 1.0
C      1  0.5181390000000  0.5068290000000  0.5266400000000 1.0
C      1  0.5174020000000  0.5225930000000  0.4598000000000 1.0
C      1  0.5279920000000  0.4965440000000  0.4698830000000 1.0
C      1  0.4376820000000  0.4641910000000  0.5237380000000 1.0
C      1  0.4591420000000  0.5127480000000  0.4411660000000 1.0
C      1  0.5173660000000  0.4501990000000  0.4702910000000 1.0
C      1  0.5588650000000  0.5445510000000  0.5202660000000 1.0
C      1  0.4479570000000  0.5307360000000  0.4805730000000 1.0
C      1  0.5595630000000  0.4618830000000  0.4860830000000 1.0
C      1  0.5378870000000  0.4767080000000  0.4480230000000 1.0
C      1  0.4616160000000  0.4834700000000  0.5633800000000 1.0
C      1  0.5323180000000  0.5199450000000  0.5503720000000 1.0
C      1  0.4754540000000  0.5582460000000  0.4601990000000 1.0
C      1  0.5161430000000  0.5515350000000  0.5292130000000 1.0
C      1  0.4789080000000  0.4414610000000  0.5415110000000 1.0
C      1  0.5631150000000  0.5243790000000  0.4458250000000 1.0
C      1  0.5262330000000  0.4663020000000  0.5608380000000 1.0
C      1  0.4587300000000  0.5526190000000  0.5247310000000 1.0
C      1  0.4472620000000  0.4639170000000  0.4685120000000 1.0
C      1  0.5496770000000  0.4725770000000  0.5464490000000 1.0
C      1  0.4424970000000  0.5308640000000  0.5340850000000 1.0
C      1  0.4647140000000  0.5386230000000  0.5489460000000 1.0
C      1  0.5414080000000  0.5406770000000  0.4529690000000 1.0
C      1  0.4692150000000  0.4566670000000  0.4530910000000 1.0
C      1  0.5334400000000  0.4510040000000  0.5383370000000 1.0
C      1  0.4630370000000  0.4416330000000  0.4761000000000 1.0
C      1  0.5391980000000  0.5634680000000  0.4685900000000 1.0
C      1  0.4755290000000  0.5365690000000  0.4424600000000 1.0
C      1  0.5373920000000  0.4434550000000  0.4894270000000 1.0
C      1  0.4405970000000  0.4835880000000  0.5451990000000 1.0
C      1  0.5166440000000  0.4585340000000  0.4428720000000 1.0
C      1  0.4794030000000  0.4604060000000  0.5621660000000 1.0
C      1  0.5129330000000  0.5400600000000  0.5554390000000 1.0
C      1  0.4528770000000  0.5581760000000  0.4774320000000 1.0
C      1  0.5360830000000  0.5669530000000  0.5181850000000 1.0
C      1  0.4559250000000  0.4428850000000  0.5237440000000 1.0
C      1  0.5575900000000  0.5214950000000  0.5366020000000 1.0
C      1  0.4390830000000  0.5110150000000  0.4620120000000 1.0
C      1  0.5640760000000  0.4727630000000  0.4575950000000 1.0
C      1  0.4847170000000  0.5013840000000  0.5711050000000 1.0
C      1  0.4831220000000  0.4960900000000  0.4326340000000 1.0
C      1  0.4963240000000  0.4314480000000  0.5185920000000 1.0
C      1  0.4942240000000  0.5614900000000  0.4845900000000 1.0
C      1  0.5637060000000  0.4846890000000  0.5035130000000 1.0
C      1  0.4279540000000  0.4861710000000  0.5052020000000 1.0
END
