TITL C-111531-3824-6 -0.039904802485407 125000 -545.790936839539 0 0 81 (C1) n - 1
REM
REM in /rds/project/t2_vol4/rds-t2-cs072/BORA/CARBON/from-Arr/AIRSS/Generating-Clusters/GAP-ML-2020/Higher-Symm/SD-CG/HFTN-CG
REM
REM
REM
REM
REM
REM ./C.cell (b20cbc046b6831c77cfcea5457e17084)
REM AIRSS Version 0.9.1 bugfix July 2018 build 013d7b7c2542+ Fri, 06 Jul 2018 19:26:36 +0100
REM compiler GCC version 9.3.0
REM options -cpp -mtune=generic -march=x86-64 -g -O0
REM seed 1826921078 -1764038321 -166932832 63118627 2092027640 -44089422 2134469653 1772424662 1365868918 -1416087232 -1470939244 -1905131543 -1384758192 581687084 -1779247797 -770724646 1127089527 -726563985 -1215175136 -2031611592 1637734118 -117616074 -925769206 159839247 2140293641 -1813707149 -307327316 1140762878 -1868725996 -525723920 -733814113 968479786 1779644158
REM
CELL 1.54180   50.00000   50.00000   50.00000   90.00000   90.00000   90.00000
LATT -1
SFAC C  
C      1  0.4617520000000  0.4513750000000  0.4269180000000 1.0
C      1  0.4717720000000  0.4205790000000  0.4900660000000 1.0
C      1  0.4758960000000  0.4396760000000  0.5583310000000 1.0
C      1  0.4608100000000  0.5101470000000  0.5796740000000 1.0
C      1  0.4630720000000  0.5735380000000  0.5463250000000 1.0
C      1  0.4720280000000  0.5806730000000  0.4745210000000 1.0
C      1  0.4646750000000  0.5229000000000  0.4214210000000 1.0
C      1  0.5604620000000  0.4823120000000  0.4618840000000 1.0
C      1  0.5550670000000  0.4680760000000  0.5103800000000 1.0
C      1  0.5439020000000  0.4817290000000  0.5369770000000 1.0
C      1  0.5467600000000  0.5103900000000  0.5456480000000 1.0
C      1  0.5564060000000  0.5309470000000  0.5298330000000 1.0
C      1  0.5550110000000  0.5316870000000  0.4678060000000 1.0
C      1  0.5511050000000  0.5092150000000  0.4511510000000 1.0
C      1  0.4569420000000  0.4422150000000  0.4998230000000 1.0
C      1  0.4620140000000  0.4580450000000  0.5462180000000 1.0
C      1  0.4526180000000  0.5111320000000  0.5535200000000 1.0
C      1  0.4567750000000  0.5529290000000  0.5304020000000 1.0
C      1  0.4586290000000  0.5577630000000  0.4810840000000 1.0
C      1  0.4567330000000  0.5048880000000  0.4407130000000 1.0
C      1  0.4547690000000  0.4563250000000  0.4528690000000 1.0
C      1  0.5124130000000  0.5046130000000  0.5833970000000 1.0
C      1  0.5093900000000  0.5710430000000  0.5643640000000 1.0
C      1  0.5220050000000  0.5747770000000  0.4863240000000 1.0
C      1  0.5136900000000  0.5305840000000  0.4277580000000 1.0
C      1  0.5099170000000  0.4611760000000  0.4131950000000 1.0
C      1  0.5231040000000  0.4301060000000  0.4832850000000 1.0
C      1  0.5263440000000  0.4406650000000  0.5551050000000 1.0
C      1  0.5792170000000  0.5256970000000  0.5138410000000 1.0
C      1  0.5783780000000  0.5273500000000  0.4847190000000 1.0
C      1  0.5967790000000  0.5083130000000  0.4743290000000 1.0
C      1  0.5869330000000  0.4828300000000  0.4756940000000 1.0
C      1  0.5844310000000  0.4710260000000  0.5039610000000 1.0
C      1  0.6036520000000  0.4798330000000  0.5231340000000 1.0
C      1  0.5959430000000  0.5048470000000  0.5231860000000 1.0
C      1  0.4660680000000  0.4781470000000  0.5254740000000 1.0
C      1  0.4755420000000  0.5069750000000  0.5348240000000 1.0
C      1  0.4782540000000  0.5341230000000  0.5193650000000 1.0
C      1  0.4774020000000  0.5354750000000  0.4895210000000 1.0
C      1  0.4775670000000  0.4960090000000  0.4635970000000 1.0
C      1  0.4781370000000  0.4667810000000  0.4693620000000 1.0
C      1  0.4787140000000  0.4634540000000  0.5018050000000 1.0
C      1  0.4343290000000  0.4724520000000  0.4665990000000 1.0
C      1  0.4353020000000  0.4655620000000  0.4942340000000 1.0
C      1  0.4387850000000  0.4848820000000  0.5155060000000 1.0
C      1  0.4336600000000  0.5104310000000  0.5293570000000 1.0
C      1  0.4355410000000  0.5366340000000  0.5171950000000 1.0
C      1  0.4332450000000  0.5431940000000  0.4890950000000 1.0
C      1  0.4315800000000  0.4990690000000  0.4553240000000 1.0
C      1  0.5008020000000  0.4335610000000  0.5624200000000 1.0
C      1  0.4847200000000  0.5073440000000  0.5894470000000 1.0
C      1  0.4857020000000  0.5790900000000  0.5579340000000 1.0
C      1  0.4975290000000  0.5849680000000  0.4776070000000 1.0
C      1  0.4882770000000  0.5321370000000  0.4171110000000 1.0
C      1  0.4852590000000  0.4533880000000  0.4153740000000 1.0
C      1  0.4971940000000  0.4194930000000  0.4852250000000 1.0
C      1  0.5338890000000  0.5503560000000  0.5272950000000 1.0
C      1  0.5296380000000  0.5483370000000  0.4703520000000 1.0
C      1  0.5244900000000  0.5045140000000  0.4413040000000 1.0
C      1  0.5460340000000  0.4620810000000  0.4456400000000 1.0
C      1  0.5344850000000  0.4436840000000  0.5085230000000 1.0
C      1  0.5374160000000  0.4672780000000  0.5619730000000 1.0
C      1  0.5224390000000  0.5200080000000  0.5591730000000 1.0
C      1  0.5077460000000  0.5293370000000  0.4853000000000 1.0
C      1  0.5064270000000  0.5038490000000  0.4690720000000 1.0
C      1  0.5070690000000  0.4600590000000  0.4652400000000 1.0
C      1  0.5078380000000  0.4669630000000  0.5083110000000 1.0
C      1  0.5152000000000  0.4820520000000  0.5312290000000 1.0
C      1  0.5058610000000  0.5087040000000  0.5360360000000 1.0
C      1  0.5095330000000  0.5310240000000  0.5161150000000 1.0
C      1  0.5236860000000  0.5498710000000  0.5554850000000 1.0
C      1  0.5324350000000  0.5744290000000  0.5112820000000 1.0
C      1  0.5261050000000  0.5501570000000  0.4417690000000 1.0
C      1  0.5283400000000  0.4765060000000  0.4274130000000 1.0
C      1  0.5293740000000  0.4425810000000  0.4587990000000 1.0
C      1  0.5377690000000  0.4307640000000  0.5325410000000 1.0
C      1  0.5292560000000  0.4823470000000  0.5831870000000 1.0
C      1  0.5454980000000  0.4820450000000  0.4874320000000 1.0
C      1  0.5175940000000  0.4806790000000  0.4839220000000 1.0
C      1  0.4347890000000  0.5191090000000  0.4746110000000 1.0
C      1  0.4628890000000  0.5125680000000  0.4812950000000 1.0
END
