TITL C-114862-6499-1 -0.0348497735073194 125000 -507.116909260964 0 0 80 (C1) n - 1
REM
REM in /rds/project/t2_vol4/rds-t2-cs072/BORA/CARBON/from-Arr/AIRSS/Generating-Clusters/GAP-ML-2020/Higher-Symm/SD-CG/HFTN-CG
REM
REM
REM
REM
REM
REM ./C.cell (b20cbc046b6831c77cfcea5457e17084)
REM AIRSS Version 0.9.1 bugfix July 2018 build 013d7b7c2542+ Fri, 06 Jul 2018 19:26:36 +0100
REM compiler GCC version 9.3.0
REM options -cpp -mtune=generic -march=x86-64 -g -O0
REM seed 6779135 1286263879 1139867389 -782299318 2128938292 -2068359220 -662025858 1047403550 -949681890 -279390084 -2077758470 -1195701449 404458513 544039064 1847813385 1724208332 -1740695694 422436656 -153184571 1551116562 -481471619 -239529392 1187591222 1491649392 1311925731 -1172319747 -1086698699 1313411170 -672238441 91338371 -1858829487 659745069 1988021792
REM
CELL 1.54180   50.00000   50.00000   50.00000   90.00000   90.00000   90.00000
LATT -1
SFAC C  
C      1  0.4803780000000  0.5123100000000  0.5375320000000 1.0
C      1  0.5550390000000  0.4821960000000  0.5111270000000 1.0
C      1  0.5156710000000  0.5413980000000  0.4854750000000 1.0
C      1  0.4814070000000  0.4828570000000  0.4523860000000 1.0
C      1  0.5131340000000  0.4859090000000  0.5361540000000 1.0
C      1  0.5153980000000  0.5174770000000  0.4650680000000 1.0
C      1  0.5725340000000  0.5124580000000  0.4851750000000 1.0
C      1  0.4678320000000  0.5250510000000  0.5124440000000 1.0
C      1  0.4599130000000  0.4832680000000  0.4911540000000 1.0
C      1  0.5243670000000  0.4719430000000  0.5121130000000 1.0
C      1  0.4845450000000  0.4685510000000  0.4784170000000 1.0
C      1  0.4831590000000  0.5512270000000  0.5135270000000 1.0
C      1  0.5103320000000  0.5160780000000  0.5363030000000 1.0
C      1  0.4538760000000  0.4756460000000  0.5186520000000 1.0
C      1  0.4894740000000  0.5596360000000  0.4854770000000 1.0
C      1  0.5295670000000  0.4905900000000  0.4679420000000 1.0
C      1  0.4824400000000  0.4816530000000  0.5418310000000 1.0
C      1  0.4853220000000  0.5109220000000  0.4598450000000 1.0
C      1  0.4644800000000  0.5126220000000  0.4848780000000 1.0
C      1  0.5685560000000  0.5105650000000  0.5135320000000 1.0
C      1  0.5586460000000  0.4861840000000  0.4798210000000 1.0
C      1  0.4751390000000  0.4578700000000  0.5252080000000 1.0
C      1  0.5140540000000  0.4699640000000  0.4843020000000 1.0
C      1  0.5133580000000  0.5399960000000  0.5157860000000 1.0
C      1  0.5727220000000  0.5330750000000  0.4667690000000 1.0
C      1  0.4695020000000  0.5665360000000  0.5334400000000 1.0
C      1  0.5277850000000  0.4724300000000  0.5573150000000 1.0
C      1  0.5685940000000  0.4633200000000  0.5276800000000 1.0
C      1  0.4380810000000  0.4680840000000  0.4807830000000 1.0
C      1  0.4403330000000  0.5310900000000  0.5188120000000 1.0
C      1  0.4766190000000  0.4407070000000  0.4723220000000 1.0
C      1  0.5250200000000  0.4433350000000  0.5193090000000 1.0
C      1  0.5328220000000  0.5623940000000  0.4755760000000 1.0
C      1  0.5279650000000  0.5298690000000  0.4415450000000 1.0
C      1  0.4652940000000  0.5236290000000  0.5587110000000 1.0
C      1  0.4628320000000  0.4697450000000  0.4367310000000 1.0
C      1  0.4417090000000  0.5268320000000  0.4735440000000 1.0
C      1  0.5276420000000  0.5619900000000  0.5275780000000 1.0
C      1  0.4698580000000  0.4731850000000  0.5665190000000 1.0
C      1  0.4310880000000  0.4676560000000  0.5335440000000 1.0
C      1  0.5706640000000  0.4653030000000  0.4642100000000 1.0
C      1  0.5649320000000  0.5296880000000  0.5330790000000 1.0
C      1  0.5245190000000  0.4451240000000  0.4714470000000 1.0
C      1  0.4672350000000  0.4345890000000  0.5388760000000 1.0
C      1  0.4718920000000  0.5648370000000  0.4661190000000 1.0
C      1  0.4737690000000  0.5253860000000  0.4376560000000 1.0
C      1  0.5227570000000  0.5263740000000  0.5599020000000 1.0
C      1  0.5320830000000  0.4802640000000  0.4407490000000 1.0
C      1  0.5271910000000  0.5587690000000  0.4464390000000 1.0
C      1  0.4376990000000  0.5233240000000  0.5473540000000 1.0
C      1  0.5537840000000  0.4371480000000  0.5238190000000 1.0
C      1  0.5208020000000  0.4443970000000  0.5490080000000 1.0
C      1  0.4680530000000  0.4404550000000  0.4439260000000 1.0
C      1  0.4640810000000  0.5536920000000  0.5596420000000 1.0
C      1  0.4353040000000  0.4662100000000  0.4501860000000 1.0
C      1  0.5562130000000  0.4637570000000  0.5545490000000 1.0
C      1  0.5574300000000  0.5321910000000  0.4397840000000 1.0
C      1  0.5620380000000  0.5607260000000  0.4687750000000 1.0
C      1  0.4399830000000  0.5598130000000  0.5261380000000 1.0
C      1  0.4477580000000  0.4404240000000  0.4809280000000 1.0
C      1  0.4710590000000  0.5546750000000  0.4374090000000 1.0
C      1  0.5521130000000  0.5276000000000  0.5603100000000 1.0
C      1  0.4366050000000  0.4380060000000  0.5366110000000 1.0
C      1  0.4686740000000  0.4431490000000  0.5670040000000 1.0
C      1  0.5221850000000  0.4517150000000  0.4426370000000 1.0
C      1  0.5215750000000  0.5552670000000  0.5556600000000 1.0
C      1  0.5596800000000  0.4691930000000  0.4367230000000 1.0
C      1  0.4398630000000  0.4725140000000  0.5622560000000 1.0
C      1  0.4449900000000  0.5230070000000  0.4444360000000 1.0
C      1  0.4423750000000  0.5560530000000  0.4685960000000 1.0
C      1  0.5564170000000  0.5588820000000  0.5335810000000 1.0
C      1  0.5536780000000  0.4405470000000  0.4662510000000 1.0
C      1  0.4421130000000  0.5510760000000  0.4393500000000 1.0
C      1  0.4394480000000  0.4440260000000  0.5652700000000 1.0
C      1  0.5550330000000  0.5615640000000  0.4406200000000 1.0
C      1  0.5495680000000  0.4363710000000  0.5522930000000 1.0
C      1  0.5505280000000  0.4425350000000  0.4374010000000 1.0
C      1  0.4357860000000  0.5520510000000  0.5535340000000 1.0
C      1  0.5493410000000  0.5567460000000  0.5618110000000 1.0
C      1  0.4408850000000  0.4378590000000  0.4523730000000 1.0
END
