TITL C-114833-6492-8 28.2673403402711 125000 -730.283861264674 0 0 106 (C1) n - 1
REM
REM in /rds/project/t2_vol4/rds-t2-cs072/BORA/CARBON/from-Arr/AIRSS/Generating-Clusters/GAP-ML-2020/Higher-Symm/SD-CG/HFTN-CG
REM
REM
REM
REM
REM
REM ./C.cell (b20cbc046b6831c77cfcea5457e17084)
REM AIRSS Version 0.9.1 bugfix July 2018 build 013d7b7c2542+ Fri, 06 Jul 2018 19:26:36 +0100
REM compiler GCC version 9.3.0
REM options -cpp -mtune=generic -march=x86-64 -g -O0
REM seed -2087708504 846074971 1357296214 -1627142116 172446550 1295701517 1747948060 -1353310907 1158826639 -1292277085 -881275442 -24846640 1276616479 -1423996042 -28523146 -1551047992 371595530 -357475011 -1946608788 -1584959037 1842716713 -689151347 1316994363 -1900869774 749984902 1770111917 1174894158 610205696 323875076 -908589002 -1997721443 -453760746 1738727891
REM
CELL 1.54180   50.00000   50.00000   50.00000   90.00000   90.00000   90.00000
LATT -1
SFAC C  
C      1  0.4654490000000  0.5702120000000  0.5449700000000 1.0
C      1  0.5258690000000  0.5714450000000  0.5010750000000 1.0
C      1  0.5458210000000  0.5000170000000  0.5035360000000 1.0
C      1  0.4436760000000  0.4968910000000  0.5481680000000 1.0
C      1  0.5244730000000  0.4600370000000  0.4296180000000 1.0
C      1  0.5540050000000  0.4535530000000  0.5284490000000 1.0
C      1  0.4273380000000  0.4384560000000  0.5042090000000 1.0
C      1  0.4533390000000  0.4429610000000  0.4645850000000 1.0
C      1  0.5512990000000  0.4574090000000  0.5580210000000 1.0
C      1  0.4328010000000  0.4583050000000  0.4483420000000 1.0
C      1  0.4399480000000  0.5113140000000  0.4392750000000 1.0
C      1  0.4975540000000  0.5366120000000  0.4190460000000 1.0
C      1  0.5549880000000  0.5099840000000  0.5619250000000 1.0
C      1  0.5259020000000  0.5671910000000  0.4510640000000 1.0
C      1  0.4933130000000  0.5773340000000  0.5496820000000 1.0
C      1  0.4438780000000  0.4250160000000  0.4868960000000 1.0
C      1  0.4660170000000  0.5402280000000  0.5515050000000 1.0
C      1  0.4240440000000  0.4849650000000  0.5270790000000 1.0
C      1  0.4583620000000  0.4890390000000  0.4811510000000 1.0
C      1  0.4762450000000  0.4517350000000  0.5645600000000 1.0
C      1  0.5012980000000  0.4257600000000  0.5340950000000 1.0
C      1  0.4542890000000  0.5867340000000  0.4948480000000 1.0
C      1  0.5745870000000  0.5153970000000  0.5423830000000 1.0
C      1  0.5735080000000  0.4579190000000  0.5041100000000 1.0
C      1  0.5112020000000  0.5642370000000  0.5684270000000 1.0
C      1  0.4904050000000  0.5372980000000  0.5288110000000 1.0
C      1  0.5182760000000  0.4264350000000  0.4642680000000 1.0
C      1  0.4167360000000  0.5168840000000  0.4816770000000 1.0
C      1  0.4764240000000  0.4335050000000  0.5208370000000 1.0
C      1  0.4119230000000  0.4753830000000  0.4512970000000 1.0
C      1  0.5446690000000  0.5003780000000  0.4341260000000 1.0
C      1  0.5742530000000  0.5545220000000  0.4920750000000 1.0
C      1  0.4601210000000  0.5781230000000  0.4691300000000 1.0
C      1  0.5209060000000  0.4166450000000  0.5146610000000 1.0
C      1  0.4282160000000  0.5307300000000  0.5226220000000 1.0
C      1  0.4948050000000  0.4719330000000  0.4576090000000 1.0
C      1  0.5397280000000  0.4946850000000  0.4739180000000 1.0
C      1  0.5148600000000  0.4797690000000  0.4777450000000 1.0
C      1  0.4448830000000  0.5474700000000  0.5062220000000 1.0
C      1  0.4715780000000  0.4644260000000  0.4778280000000 1.0
C      1  0.4959430000000  0.5185220000000  0.5891980000000 1.0
C      1  0.4542120000000  0.4643270000000  0.4299710000000 1.0
C      1  0.5831130000000  0.4921700000000  0.4675140000000 1.0
C      1  0.4852810000000  0.3976490000000  0.4904470000000 1.0
C      1  0.5463280000000  0.4279240000000  0.5142140000000 1.0
C      1  0.4932600000000  0.5445210000000  0.4787970000000 1.0
C      1  0.5599620000000  0.4360600000000  0.4901200000000 1.0
C      1  0.4523770000000  0.5738700000000  0.5190840000000 1.0
C      1  0.4591360000000  0.4923480000000  0.4315060000000 1.0
C      1  0.4290230000000  0.4554500000000  0.5250680000000 1.0
C      1  0.5596020000000  0.4817390000000  0.4520160000000 1.0
C      1  0.5125220000000  0.5168470000000  0.5355390000000 1.0
C      1  0.4712600000000  0.5422400000000  0.4209700000000 1.0
C      1  0.5249530000000  0.4759310000000  0.5846000000000 1.0
C      1  0.5851670000000  0.4824780000000  0.4964270000000 1.0
C      1  0.4589040000000  0.4970600000000  0.5732240000000 1.0
C      1  0.5293820000000  0.5166580000000  0.4562460000000 1.0
C      1  0.5484580000000  0.4554120000000  0.4447310000000 1.0
C      1  0.4422680000000  0.5250980000000  0.5449630000000 1.0
C      1  0.5683110000000  0.5416350000000  0.4670030000000 1.0
C      1  0.5455040000000  0.4346560000000  0.4644090000000 1.0
C      1  0.4177520000000  0.5020940000000  0.4563170000000 1.0
C      1  0.5018220000000  0.4390930000000  0.5591050000000 1.0
C      1  0.5756400000000  0.5062340000000  0.5129030000000 1.0
C      1  0.5334980000000  0.5573760000000  0.5473860000000 1.0
C      1  0.4770030000000  0.4759070000000  0.5801510000000 1.0
C      1  0.5021130000000  0.4451500000000  0.4442340000000 1.0
C      1  0.4874990000000  0.4567750000000  0.5031860000000 1.0
C      1  0.4886270000000  0.5696180000000  0.4634010000000 1.0
C      1  0.5214590000000  0.5435610000000  0.4896450000000 1.0
C      1  0.5007410000000  0.4894850000000  0.5896880000000 1.0
C      1  0.4173700000000  0.5079090000000  0.5098180000000 1.0
C      1  0.5104410000000  0.5646370000000  0.5282700000000 1.0
C      1  0.5335340000000  0.4745130000000  0.5185860000000 1.0
C      1  0.5225610000000  0.5181610000000  0.5072750000000 1.0
C      1  0.5010020000000  0.4991540000000  0.4953290000000 1.0
C      1  0.5314800000000  0.5287160000000  0.5582240000000 1.0
C      1  0.4298710000000  0.5426230000000  0.4807660000000 1.0
C      1  0.5255460000000  0.4505890000000  0.5704360000000 1.0
C      1  0.5172510000000  0.4595130000000  0.4973240000000 1.0
C      1  0.5138870000000  0.5384800000000  0.5801760000000 1.0
C      1  0.4751250000000  0.5355140000000  0.5021680000000 1.0
C      1  0.5589250000000  0.5632270000000  0.5349920000000 1.0
C      1  0.4433330000000  0.5556920000000  0.4594620000000 1.0
C      1  0.4658160000000  0.4127480000000  0.5013090000000 1.0
C      1  0.5830120000000  0.5189510000000  0.4625980000000 1.0
C      1  0.5039120000000  0.5073810000000  0.4186320000000 1.0
C      1  0.4713510000000  0.5226480000000  0.5757630000000 1.0
C      1  0.5498280000000  0.4839820000000  0.5712230000000 1.0
C      1  0.4612850000000  0.4789090000000  0.5322710000000 1.0
C      1  0.5552170000000  0.5701830000000  0.5072140000000 1.0
C      1  0.5019800000000  0.5605100000000  0.4370710000000 1.0
C      1  0.5146200000000  0.5815230000000  0.4737270000000 1.0
C      1  0.5388440000000  0.5433800000000  0.4631150000000 1.0
C      1  0.4869320000000  0.4971270000000  0.4404670000000 1.0
C      1  0.4766120000000  0.5099760000000  0.4862760000000 1.0
C      1  0.5788160000000  0.5425850000000  0.5358230000000 1.0
C      1  0.4944200000000  0.5181290000000  0.4628090000000 1.0
C      1  0.4718250000000  0.4428860000000  0.4394220000000 1.0
C      1  0.4875700000000  0.4819920000000  0.5192600000000 1.0
C      1  0.5104200000000  0.4869390000000  0.5358110000000 1.0
C      1  0.4586910000000  0.4502480000000  0.5393160000000 1.0
C      1  0.5253410000000  0.4883370000000  0.4188580000000 1.0
C      1  0.4499650000000  0.5382650000000  0.4376240000000 1.0
C      1  0.5094470000000  0.4109270000000  0.4880120000000 1.0
C      1  0.5856620000000  0.5348240000000  0.5086630000000 1.0
END
