TITL C-114840-6420-4 -0.0442664647533701 125000 -412.375433099412 0 0 61 (C3) n - 1
REM
REM in /rds/project/t2_vol4/rds-t2-cs072/BORA/CARBON/from-Arr/AIRSS/Generating-Clusters/GAP-ML-2020/Higher-Symm/SD-CG/HFTN-CG
REM
REM
REM
REM
REM
REM ./C.cell (b20cbc046b6831c77cfcea5457e17084)
REM AIRSS Version 0.9.1 bugfix July 2018 build 013d7b7c2542+ Fri, 06 Jul 2018 19:26:36 +0100
REM compiler GCC version 9.3.0
REM options -cpp -mtune=generic -march=x86-64 -g -O0
REM seed 911704931 -1548218770 -753630171 1298024355 748617521 -867148309 -1441346049 581141848 -1135549051 -1340912568 -39442482 2000432732 1726280786 1749091598 869259784 -554414998 -467033223 -1529397847 1369118886 -633120006 652454241 102020360 234118216 -1716188883 -394014893 554590214 1417440547 -656931737 -1215008699 1313180937 1198746562 1719710011 -2026485792
REM
CELL 1.54180   50.00000   50.00000   50.00000   90.00000   90.00000   90.00000
LATT -1
SFAC C  
C      1  0.4495660000000  0.5473900000000  0.5065800000000 1.0
C      1  0.5314700000000  0.5473880000000  0.5397290000000 1.0
C      1  0.5192250000000  0.5473870000000  0.4522240000000 1.0
C      1  0.5114970000000  0.5827680000000  0.4875990000000 1.0
C      1  0.4840680000000  0.5827690000000  0.4955860000000 1.0
C      1  0.5046990000000  0.5827680000000  0.5153470000000 1.0
C      1  0.4962870000000  0.5279650000000  0.5623450000000 1.0
C      1  0.5564020000000  0.5279620000000  0.4713850000000 1.0
C      1  0.4475710000000  0.5279640000000  0.4648040000000 1.0
C      1  0.5036770000000  0.4237400000000  0.4838200000000 1.0
C      1  0.4846970000000  0.4237400000000  0.5042480000000 1.0
C      1  0.5118780000000  0.4237400000000  0.5104710000000 1.0
C      1  0.5370380000000  0.4988500000000  0.5336370000000 1.0
C      1  0.5111640000000  0.4988490000000  0.4504480000000 1.0
C      1  0.4520570000000  0.4988510000000  0.5144500000000 1.0
C      1  0.5078400000000  0.5638270000000  0.5356580000000 1.0
C      1  0.5275150000000  0.5638260000000  0.4747240000000 1.0
C      1  0.4649080000000  0.5638270000000  0.4881510000000 1.0
C      1  0.4866480000000  0.4516470000000  0.5521390000000 1.0
C      1  0.5523790000000  0.4516440000000  0.4848360000000 1.0
C      1  0.4612270000000  0.4516460000000  0.4615630000000 1.0
C      1  0.4748880000000  0.5004050000000  0.4920420000000 1.0
C      1  0.5062160000000  0.5004050000000  0.5250690000000 1.0
C      1  0.5191540000000  0.5004040000000  0.4814250000000 1.0
C      1  0.4852110000000  0.5495250000000  0.5465080000000 1.0
C      1  0.5482260000000  0.5495220000000  0.4888960000000 1.0
C      1  0.4668250000000  0.5495240000000  0.4631290000000 1.0
C      1  0.4839130000000  0.5034380000000  0.5513540000000 1.0
C      1  0.5530690000000  0.5034350000000  0.4875970000000 1.0
C      1  0.4632760000000  0.5034370000000  0.4595850000000 1.0
C      1  0.4832980000000  0.4407060000000  0.4501380000000 1.0
C      1  0.4657180000000  0.4407070000000  0.5387380000000 1.0
C      1  0.5512370000000  0.4407050000000  0.5096630000000 1.0
C      1  0.5026090000000  0.4727450000000  0.5164270000000 1.0
C      1  0.5134720000000  0.4727440000000  0.4888690000000 1.0
C      1  0.4841750000000  0.4727450000000  0.4932410000000 1.0
C      1  0.4905780000000  0.4783160000000  0.5642560000000 1.0
C      1  0.5609090000000  0.4783130000000  0.4753740000000 1.0
C      1  0.4487700000000  0.4783160000000  0.4589070000000 1.0
C      1  0.5250630000000  0.5269290000000  0.5601300000000 1.0
C      1  0.5400950000000  0.5269260000000  0.4475720000000 1.0
C      1  0.4351010000000  0.5269300000000  0.4908330000000 1.0
C      1  0.5469680000000  0.4761710000000  0.4505510000000 1.0
C      1  0.4342420000000  0.4761740000000  0.4833920000000 1.0
C      1  0.5190460000000  0.4761730000000  0.5645940000000 1.0
C      1  0.5179060000000  0.4503950000000  0.5506660000000 1.0
C      1  0.5354740000000  0.4503930000000  0.4585020000000 1.0
C      1  0.4468740000000  0.4503950000000  0.4893700000000 1.0
C      1  0.4608370000000  0.5406700000000  0.5328860000000 1.0
C      1  0.5486150000000  0.5406670000000  0.5168150000000 1.0
C      1  0.4908080000000  0.5406680000000  0.4488330000000 1.0
C      1  0.4288160000000  0.4995240000000  0.4990890000000 1.0
C      1  0.5353540000000  0.4995230000000  0.5614450000000 1.0
C      1  0.5360880000000  0.4995200000000  0.4380020000000 1.0
C      1  0.4594740000000  0.4363830000000  0.5120610000000 1.0
C      1  0.5312570000000  0.4363810000000  0.5284090000000 1.0
C      1  0.5095230000000  0.4363810000000  0.4580690000000 1.0
C      1  0.4872710000000  0.5126930000000  0.4448140000000 1.0
C      1  0.4591250000000  0.5126950000000  0.5379590000000 1.0
C      1  0.5538630000000  0.5126920000000  0.5157620000000 1.0
C      1  0.5000860000000  0.5143950000000  0.4995120000000 1.0
END
