TITL C-116623-6010-2 131.492483857168 125000 -165.297668466358 0 0 25 (C1) n - 1
REM
REM in /rds/project/t2_vol4/rds-t2-cs072/BORA/CARBON/from-Arr/AIRSS/Generating-Clusters/GAP-ML-2020/Higher-Symm/SD-CG/HFTN-CG
REM
REM
REM
REM
REM
REM ./C.cell (b20cbc046b6831c77cfcea5457e17084)
REM AIRSS Version 0.9.1 bugfix July 2018 build 013d7b7c2542+ Fri, 06 Jul 2018 19:26:36 +0100
REM compiler GCC version 9.3.0
REM options -cpp -mtune=generic -march=x86-64 -g -O0
REM seed -1064567875 -990886454 -876177810 -437035119 1315023051 1552651222 -1189586117 1480254386 -1974195307 -1351410622 -211593510 -2098477259 -1965668005 -1496074904 1764358127 219686749 1650829236 251474838 -489054678 -138825776 -203282457 893302560 377462894 1831366622 488720915 263147677 251757615 296496802 -558068669 1093779231 -2011457536 984612780 -1559907913
REM
CELL 1.54180   50.00000   50.00000   50.00000   90.00000   90.00000   90.00000
LATT -1
SFAC C  
C      1  0.4917000000000  0.5701240000000  0.4874510000000 1.0
C      1  0.5039100000000  0.4285220000000  0.4926380000000 1.0
C      1  0.5000690000000  0.4234680000000  0.5175780000000 1.0
C      1  0.4962830000000  0.5652500000000  0.5126680000000 1.0
C      1  0.5756980000000  0.4906480000000  0.4924620000000 1.0
C      1  0.4262680000000  0.5061850000000  0.4876060000000 1.0
C      1  0.4322110000000  0.5018660000000  0.5127910000000 1.0
C      1  0.5731270000000  0.4962290000000  0.5173200000000 1.0
C      1  0.4941430000000  0.4398560000000  0.5376220000000 1.0
C      1  0.5018700000000  0.5475040000000  0.5300740000000 1.0
C      1  0.4812700000000  0.5641220000000  0.4648620000000 1.0
C      1  0.5111670000000  0.4388910000000  0.4700710000000 1.0
C      1  0.4503840000000  0.4965350000000  0.5297120000000 1.0
C      1  0.5585880000000  0.5029960000000  0.5380360000000 1.0
C      1  0.5669360000000  0.4830730000000  0.4689900000000 1.0
C      1  0.4322810000000  0.5166360000000  0.4650780000000 1.0
C      1  0.5123040000000  0.5231960000000  0.5345010000000 1.0
C      1  0.4847630000000  0.4626420000000  0.5438370000000 1.0
C      1  0.5251690000000  0.4570580000000  0.4578630000000 1.0
C      1  0.4654160000000  0.5500410000000  0.4495800000000 1.0
C      1  0.5354870000000  0.5128590000000  0.5429030000000 1.0
C      1  0.4755400000000  0.4852710000000  0.5308080000000 1.0
C      1  0.4465900000000  0.5320210000000  0.4494500000000 1.0
C      1  0.5463070000000  0.4720070000000  0.4575030000000 1.0
C      1  0.4961030000000  0.4992330000000  0.5102160000000 1.0
END
