TITL C-111521-4116-6 -0.0439233652558084 125000 -270.622821500218 0 0 40 (T23) n - 1
REM
REM in /rds/project/t2_vol4/rds-t2-cs072/BORA/CARBON/from-Arr/AIRSS/Generating-Clusters/GAP-ML-2020/Higher-Symm/SD-CG/HFTN-CG
REM
REM
REM
REM
REM
REM ./C.cell (b20cbc046b6831c77cfcea5457e17084)
REM AIRSS Version 0.9.1 bugfix July 2018 build 013d7b7c2542+ Fri, 06 Jul 2018 19:26:36 +0100
REM compiler GCC version 9.3.0
REM options -cpp -mtune=generic -march=x86-64 -g -O0
REM seed 425629926 1157888056 397677902 -1668135991 142057228 -1220951966 -1512450449 506581779 -49149793 -124615003 108560173 709202925 890808271 -100447272 -564529350 1872086219 1793722792 427465237 364385599 1893608778 -860413394 1149047873 -1146471444 172216986 -1876971595 -1375884543 -186658933 1955327747 -959001962 1306665636 1214948590 -1135354236 -723746554
REM
CELL 1.54180   50.00000   50.00000   50.00000   90.00000   90.00000   90.00000
LATT -1
SFAC C  
C      1  0.5171040000000  0.4602680000000  0.4676960000000 1.0
C      1  0.4669570000000  0.5164090000000  0.4617100000000 1.0
C      1  0.4609660000000  0.4662570000000  0.5178460000000 1.0
C      1  0.5171070000000  0.5382450000000  0.5337030000000 1.0
C      1  0.4828110000000  0.5382490000000  0.4676990000000 1.0
C      1  0.4828070000000  0.4602680000000  0.5337000000000 1.0
C      1  0.4669540000000  0.4821100000000  0.5396880000000 1.0
C      1  0.5329590000000  0.4821090000000  0.4617100000000 1.0
C      1  0.5329600000000  0.5164030000000  0.5396900000000 1.0
C      1  0.4609690000000  0.5322620000000  0.4835520000000 1.0
C      1  0.5389480000000  0.5322570000000  0.5178500000000 1.0
C      1  0.5389460000000  0.4662540000000  0.4835500000000 1.0
C      1  0.5090120000000  0.4500760000000  0.5307410000000 1.0
C      1  0.5300020000000  0.5083150000000  0.4515200000000 1.0
C      1  0.4507780000000  0.5293030000000  0.5097570000000 1.0
C      1  0.5090170000000  0.5484390000000  0.4706580000000 1.0
C      1  0.4909020000000  0.5484380000000  0.5307440000000 1.0
C      1  0.4908980000000  0.4500790000000  0.4706540000000 1.0
C      1  0.5300000000000  0.4901970000000  0.5498800000000 1.0
C      1  0.4699140000000  0.4902030000000  0.4515180000000 1.0
C      1  0.4699140000000  0.5083150000000  0.5498800000000 1.0
C      1  0.4507750000000  0.4692170000000  0.4916410000000 1.0
C      1  0.5491360000000  0.4692120000000  0.5097560000000 1.0
C      1  0.5491390000000  0.5292990000000  0.4916440000000 1.0
C      1  0.5062560000000  0.5701550000000  0.4896710000000 1.0
C      1  0.4889260000000  0.5055510000000  0.5715970000000 1.0
C      1  0.5708540000000  0.4882230000000  0.5069960000000 1.0
C      1  0.5062490000000  0.4283600000000  0.5117280000000 1.0
C      1  0.4936580000000  0.4283610000000  0.4896660000000 1.0
C      1  0.4936650000000  0.5701550000000  0.5117320000000 1.0
C      1  0.4889270000000  0.4929650000000  0.4298020000000 1.0
C      1  0.5109870000000  0.4929590000000  0.5715970000000 1.0
C      1  0.5109890000000  0.5055550000000  0.4298030000000 1.0
C      1  0.5708550000000  0.5102850000000  0.4944050000000 1.0
C      1  0.4290610000000  0.5102920000000  0.5069950000000 1.0
C      1  0.4290600000000  0.4882310000000  0.4944030000000 1.0
C      1  0.5320550000000  0.5313530000000  0.4686050000000 1.0
C      1  0.4678630000000  0.5313540000000  0.5327960000000 1.0
C      1  0.5320510000000  0.4671590000000  0.5327950000000 1.0
C      1  0.4678600000000  0.4671640000000  0.4686020000000 1.0
END
