TITL C-116603-7047-10 0.205835147505581 125000 -617.879276141044 0 0 88 (Cs) n - 1
REM
REM in /rds/project/t2_vol4/rds-t2-cs072/BORA/CARBON/from-Arr/AIRSS/Generating-Clusters/GAP-ML-2020/Higher-Symm/SD-CG/HFTN-CG
REM
REM
REM
REM
REM
REM ./C.cell (b20cbc046b6831c77cfcea5457e17084)
REM AIRSS Version 0.9.1 bugfix July 2018 build 013d7b7c2542+ Fri, 06 Jul 2018 19:26:36 +0100
REM compiler GCC version 9.3.0
REM options -cpp -mtune=generic -march=x86-64 -g -O0
REM seed -1114735310 904656728 266444554 -1496508509 575547951 -751681541 -1840139655 -1111924424 855283585 -330487156 1084881920 -774812371 -585521488 -2118196241 428007841 1911634068 -677152325 1968025925 -632712561 -1277990468 -706440178 862189500 25384416 1919894774 1365921023 1606456536 759615771 996883940 135015873 1889481397 847610132 -1715545874 587625391
REM
CELL 1.54180   50.00000   50.00000   50.00000   90.00000   90.00000   90.00000
LATT -1
SFAC C  
C      1  0.4755790000000  0.4850920000000  0.4553480000000 1.0
C      1  0.4755790000000  0.5149070000000  0.4553480000000 1.0
C      1  0.5178320000000  0.5699540000000  0.4429680000000 1.0
C      1  0.5178320000000  0.4300460000000  0.4429690000000 1.0
C      1  0.5405960000000  0.5658550000000  0.4828000000000 1.0
C      1  0.5405960000000  0.4341450000000  0.4828000000000 1.0
C      1  0.5402370000000  0.4854780000000  0.5695190000000 1.0
C      1  0.5402370000000  0.5145220000000  0.5695190000000 1.0
C      1  0.4286280000000  0.5285880000000  0.5036040000000 1.0
C      1  0.4286280000000  0.4714120000000  0.5036040000000 1.0
C      1  0.4308530000000  0.5138500000000  0.4785150000000 1.0
C      1  0.4308530000000  0.4861500000000  0.4785150000000 1.0
C      1  0.5399600000000  0.4455790000000  0.4546400000000 1.0
C      1  0.5399600000000  0.5544210000000  0.4546400000000 1.0
C      1  0.4635090000000  0.4857880000000  0.5677180000000 1.0
C      1  0.4635090000000  0.5142120000000  0.5677180000000 1.0
C      1  0.4859570000000  0.4742270000000  0.5260310000000 1.0
C      1  0.4859570000000  0.5257730000000  0.5260300000000 1.0
C      1  0.5652710000000  0.4859190000000  0.4530130000000 1.0
C      1  0.5652710000000  0.5140800000000  0.4530130000000 1.0
C      1  0.4301270000000  0.4855460000000  0.5287750000000 1.0
C      1  0.4301270000000  0.5144540000000  0.5287750000000 1.0
C      1  0.4782570000000  0.5143140000000  0.5034510000000 1.0
C      1  0.4782570000000  0.4856860000000  0.5034510000000 1.0
C      1  0.5434000000000  0.5287490000000  0.4422870000000 1.0
C      1  0.5434000000000  0.4712500000000  0.4422870000000 1.0
C      1  0.4855130000000  0.4675760000000  0.5727830000000 1.0
C      1  0.4855130000000  0.5324250000000  0.5727830000000 1.0
C      1  0.4923390000000  0.5562760000000  0.4412280000000 1.0
C      1  0.4923390000000  0.4437230000000  0.4412280000000 1.0
C      1  0.4486790000000  0.5274900000000  0.4612800000000 1.0
C      1  0.4486790000000  0.4725100000000  0.4612800000000 1.0
C      1  0.5758660000000  0.5143960000000  0.5011740000000 1.0
C      1  0.5758660000000  0.4856040000000  0.5011740000000 1.0
C      1  0.4563730000000  0.5667290000000  0.5192640000000 1.0
C      1  0.4563730000000  0.4332710000000  0.5192640000000 1.0
C      1  0.4537340000000  0.5550220000000  0.5456830000000 1.0
C      1  0.4537340000000  0.4449780000000  0.5456830000000 1.0
C      1  0.4444810000000  0.4719510000000  0.5495510000000 1.0
C      1  0.4444810000000  0.5280490000000  0.5495510000000 1.0
C      1  0.4753920000000  0.5663560000000  0.4631590000000 1.0
C      1  0.4753920000000  0.4336430000000  0.4631590000000 1.0
C      1  0.5596460000000  0.5148200000000  0.5469020000000 1.0
C      1  0.5596460000000  0.4851810000000  0.5469020000000 1.0
C      1  0.5181200000000  0.5144210000000  0.4854200000000 1.0
C      1  0.5181200000000  0.4855790000000  0.4854200000000 1.0
C      1  0.4920880000000  0.5235530000000  0.4806560000000 1.0
C      1  0.4920880000000  0.4764470000000  0.4806560000000 1.0
C      1  0.4813000000000  0.5794960000000  0.5108360000000 1.0
C      1  0.4813000000000  0.4205040000000  0.5108370000000 1.0
C      1  0.4921520000000  0.5274710000000  0.4333080000000 1.0
C      1  0.4921520000000  0.4725290000000  0.4333090000000 1.0
C      1  0.5230290000000  0.5585230000000  0.5567790000000 1.0
C      1  0.5230290000000  0.4414770000000  0.5567790000000 1.0
C      1  0.5198830000000  0.4040590000000  0.4520420000000 1.0
C      1  0.5198830000000  0.5959410000000  0.4520420000000 1.0
C      1  0.4771020000000  0.4873050000000  0.4105280000000 1.0
C      1  0.4771020000000  0.5126950000000  0.4105280000000 1.0
C      1  0.5029220000000  0.4186290000000  0.5297260000000 1.0
C      1  0.5029220000000  0.5813720000000  0.5297260000000 1.0
C      1  0.5299320000000  0.4841420000000  0.5130260000000 1.0
C      1  0.5299320000000  0.5158580000000  0.5130260000000 1.0
C      1  0.5176150000000  0.5851360000000  0.4773270000000 1.0
C      1  0.5176150000000  0.4148640000000  0.4773270000000 1.0
C      1  0.5161830000000  0.4692020000000  0.5637690000000 1.0
C      1  0.5161830000000  0.5307980000000  0.5637690000000 1.0
C      1  0.4513890000000  0.5537560000000  0.4712170000000 1.0
C      1  0.4513890000000  0.4462440000000  0.4712170000000 1.0
C      1  0.4416170000000  0.4459400000000  0.4986320000000 1.0
C      1  0.4416170000000  0.5540600000000  0.4986320000000 1.0
C      1  0.5753730000000  0.4755100000000  0.4761250000000 1.0
C      1  0.5753730000000  0.5244900000000  0.4761250000000 1.0
C      1  0.5304430000000  0.4309870000000  0.5301300000000 1.0
C      1  0.5304430000000  0.5690130000000  0.5301290000000 1.0
C      1  0.5098590000000  0.4844880000000  0.5352500000000 1.0
C      1  0.5098590000000  0.5155130000000  0.5352500000000 1.0
C      1  0.4894470000000  0.4199450000000  0.4840330000000 1.0
C      1  0.4894470000000  0.5800550000000  0.4840330000000 1.0
C      1  0.5572230000000  0.4713600000000  0.5193100000000 1.0
C      1  0.5572230000000  0.5286410000000  0.5193100000000 1.0
C      1  0.5472740000000  0.5577170000000  0.5101720000000 1.0
C      1  0.5472740000000  0.4422840000000  0.5101730000000 1.0
C      1  0.4979510000000  0.4269710000000  0.5562810000000 1.0
C      1  0.4979510000000  0.5730290000000  0.5562810000000 1.0
C      1  0.4764400000000  0.4426970000000  0.5631810000000 1.0
C      1  0.4764400000000  0.5573030000000  0.5631810000000 1.0
C      1  0.5204280000000  0.4858820000000  0.4325580000000 1.0
C      1  0.5204280000000  0.5141180000000  0.4325580000000 1.0
END
