TITL C-111525-4125-7 -73.2563875397701 125000 -333.727786714151 0 0 51 (C1) n - 1
REM
REM in /rds/project/t2_vol4/rds-t2-cs072/BORA/CARBON/from-Arr/AIRSS/Generating-Clusters/GAP-ML-2020/Higher-Symm/SD-CG/HFTN-CG
REM
REM
REM
REM
REM
REM ./C.cell (b20cbc046b6831c77cfcea5457e17084)
REM AIRSS Version 0.9.1 bugfix July 2018 build 013d7b7c2542+ Fri, 06 Jul 2018 19:26:36 +0100
REM compiler GCC version 9.3.0
REM options -cpp -mtune=generic -march=x86-64 -g -O0
REM seed 695318829 -899335695 -320812484 1452021775 507529643 -57086975 -1147320623 -279576063 1723877902 -1415900236 -14412171 -772157467 227162126 1249796865 935236083 1185784566 1598107571 1164205853 922617570 -59076906 840615685 -1145421758 -1981793322 94316433 1974748121 -1133127596 -1472364192 -541330451 -808675202 877467426 -1463216822 -182296158 -2066755995
REM
CELL 1.54180   50.00000   50.00000   50.00000   90.00000   90.00000   90.00000
LATT -1
SFAC C  
C      1  0.5539690000000  0.5354000000000  0.5131070000000 1.0
C      1  0.4454130000000  0.4660730000000  0.5146620000000 1.0
C      1  0.5522200000000  0.5402470000000  0.4842600000000 1.0
C      1  0.4458770000000  0.4656560000000  0.4855210000000 1.0
C      1  0.5313070000000  0.5082350000000  0.4557750000000 1.0
C      1  0.4786430000000  0.4908240000000  0.4513460000000 1.0
C      1  0.5265910000000  0.5077340000000  0.5505720000000 1.0
C      1  0.4751640000000  0.4916370000000  0.5505680000000 1.0
C      1  0.5655630000000  0.4956730000000  0.4813140000000 1.0
C      1  0.4172810000000  0.5043410000000  0.4863620000000 1.0
C      1  0.5800640000000  0.4955600000000  0.5039470000000 1.0
C      1  0.4168050000000  0.5044760000000  0.5120450000000 1.0
C      1  0.5285840000000  0.4457500000000  0.5471400000000 1.0
C      1  0.4708980000000  0.5525530000000  0.5476790000000 1.0
C      1  0.5288400000000  0.4422070000000  0.4523240000000 1.0
C      1  0.4741810000000  0.5537230000000  0.4536300000000 1.0
C      1  0.4926580000000  0.5361240000000  0.4439710000000 1.0
C      1  0.5128550000000  0.4621940000000  0.4439740000000 1.0
C      1  0.4901530000000  0.5363640000000  0.5585330000000 1.0
C      1  0.5103270000000  0.4627490000000  0.5580390000000 1.0
C      1  0.4847840000000  0.5187590000000  0.5155040000000 1.0
C      1  0.5148420000000  0.4797870000000  0.5165560000000 1.0
C      1  0.4850620000000  0.5183110000000  0.4866590000000 1.0
C      1  0.5149880000000  0.4776050000000  0.4872040000000 1.0
C      1  0.5178320000000  0.4928060000000  0.4353680000000 1.0
C      1  0.4927750000000  0.5070760000000  0.4337420000000 1.0
C      1  0.5129700000000  0.4918270000000  0.5687550000000 1.0
C      1  0.4884210000000  0.5071310000000  0.5690790000000 1.0
C      1  0.5364760000000  0.4329760000000  0.5260260000000 1.0
C      1  0.4625270000000  0.5649550000000  0.5263650000000 1.0
C      1  0.5361150000000  0.4307950000000  0.4747950000000 1.0
C      1  0.4642090000000  0.5652990000000  0.4747080000000 1.0
C      1  0.5600460000000  0.5073750000000  0.5189420000000 1.0
C      1  0.4392470000000  0.4926700000000  0.5245330000000 1.0
C      1  0.5572290000000  0.5194910000000  0.4658290000000 1.0
C      1  0.4399310000000  0.4920340000000  0.4750660000000 1.0
C      1  0.5390390000000  0.4857620000000  0.4738470000000 1.0
C      1  0.4638740000000  0.5051300000000  0.4706210000000 1.0
C      1  0.5384150000000  0.4933480000000  0.5300800000000 1.0
C      1  0.4624280000000  0.5063990000000  0.5304500000000 1.0
C      1  0.4913550000000  0.4696410000000  0.5354070000000 1.0
C      1  0.5087610000000  0.5304800000000  0.5362400000000 1.0
C      1  0.4933710000000  0.4685050000000  0.4669060000000 1.0
C      1  0.5083380000000  0.5299300000000  0.4687990000000 1.0
C      1  0.5247570000000  0.5468950000000  0.4877580000000 1.0
C      1  0.4736090000000  0.4561970000000  0.4860010000000 1.0
C      1  0.5263980000000  0.5445010000000  0.5171470000000 1.0
C      1  0.4730760000000  0.4566150000000  0.5154220000000 1.0
C      1  0.4593760000000  0.5697970000000  0.5004380000000 1.0
C      1  0.5395380000000  0.4265310000000  0.5004700000000 1.0
C      1  0.5057710000000  0.5022320000000  0.5006610000000 1.0
END
