TITL C-116621-5958-4 0.101003439118653 125000 -261.645632883229 0 0 40 (Td) n - 1
REM
REM in /rds/project/t2_vol4/rds-t2-cs072/BORA/CARBON/from-Arr/AIRSS/Generating-Clusters/GAP-ML-2020/Higher-Symm/SD-CG/HFTN-CG
REM
REM
REM
REM
REM
REM ./C.cell (b20cbc046b6831c77cfcea5457e17084)
REM AIRSS Version 0.9.1 bugfix July 2018 build 013d7b7c2542+ Fri, 06 Jul 2018 19:26:36 +0100
REM compiler GCC version 9.3.0
REM options -cpp -mtune=generic -march=x86-64 -g -O0
REM seed -1570918763 74401030 -1449880008 -86893557 -1764253630 -1552904875 -1952697610 -859906443 -1380706698 1475421190 767510755 1670595510 -174269077 1253550305 2042394719 -1280994819 1983863073 -870463218 -1893664853 -310750176 -1447385312 1749673056 959446199 590781097 320898163 1673733906 1188617615 -1408307886 -1878668781 -1289501213 -1021780334 1093209680 -1349509680
REM
CELL 1.54180   50.00000   50.00000   50.00000   90.00000   90.00000   90.00000
LATT -1
SFAC C  
C      1  0.4557860000000  0.4999710000000  0.5199680000000 1.0
C      1  0.4989650000000  0.5207640000000  0.4559950000000 1.0
C      1  0.5197590000000  0.4567910000000  0.4991750000000 1.0
C      1  0.4557860000000  0.4996100000000  0.4780200000000 1.0
C      1  0.5417840000000  0.4999710000000  0.4780200000000 1.0
C      1  0.5417840000000  0.4996100000000  0.5199680000000 1.0
C      1  0.4989650000000  0.4788160000000  0.5419930000000 1.0
C      1  0.4986040000000  0.5207640000000  0.5419930000000 1.0
C      1  0.4986040000000  0.4788160000000  0.4559950000000 1.0
C      1  0.5197590000000  0.5427890000000  0.4988140000000 1.0
C      1  0.4778110000000  0.4567910000000  0.4988140000000 1.0
C      1  0.4778110000000  0.5427890000000  0.4991750000000 1.0
C      1  0.4557860000000  0.5207640000000  0.4991750000000 1.0
C      1  0.4989650000000  0.4567910000000  0.5199680000000 1.0
C      1  0.5197590000000  0.4999710000000  0.4559950000000 1.0
C      1  0.4557860000000  0.4788160000000  0.4988140000000 1.0
C      1  0.5417840000000  0.4788160000000  0.4991750000000 1.0
C      1  0.5417840000000  0.5207640000000  0.4988140000000 1.0
C      1  0.4989650000000  0.5427890000000  0.4780200000000 1.0
C      1  0.4986040000000  0.5427890000000  0.5199680000000 1.0
C      1  0.4986040000000  0.4567910000000  0.4780200000000 1.0
C      1  0.5197590000000  0.4996100000000  0.5419930000000 1.0
C      1  0.4778110000000  0.4996100000000  0.4559950000000 1.0
C      1  0.4778110000000  0.4999710000000  0.5419930000000 1.0
C      1  0.5459730000000  0.4526020000000  0.4868170000000 1.0
C      1  0.4515960000000  0.5469790000000  0.4868170000000 1.0
C      1  0.5109620000000  0.4526020000000  0.4518060000000 1.0
C      1  0.4866070000000  0.5469790000000  0.4518060000000 1.0
C      1  0.4866070000000  0.4526020000000  0.5461830000000 1.0
C      1  0.5459730000000  0.4876130000000  0.4518060000000 1.0
C      1  0.4515970000000  0.4876130000000  0.5461830000000 1.0
C      1  0.4515960000000  0.5119680000000  0.4518060000000 1.0
C      1  0.5459730000000  0.5119680000000  0.5461830000000 1.0
C      1  0.5459730000000  0.5469790000000  0.5111720000000 1.0
C      1  0.5109620000000  0.5469790000000  0.5461830000000 1.0
C      1  0.4515960000000  0.4526020000000  0.5111720000000 1.0
C      1  0.4575470000000  0.4585530000000  0.5402320000000 1.0
C      1  0.4575470000000  0.5410280000000  0.4577570000000 1.0
C      1  0.5400220000000  0.4585530000000  0.4577560000000 1.0
C      1  0.5400230000000  0.5410280000000  0.5402320000000 1.0
END
