TITL C-116596-6019-3 -0.0750767658537291 125000 -446.042906821119 0 0 66 (C2) n - 1
REM
REM in /rds/project/t2_vol4/rds-t2-cs072/BORA/CARBON/from-Arr/AIRSS/Generating-Clusters/GAP-ML-2020/Higher-Symm/SD-CG/HFTN-CG
REM
REM
REM
REM
REM
REM ./C.cell (b20cbc046b6831c77cfcea5457e17084)
REM AIRSS Version 0.9.1 bugfix July 2018 build 013d7b7c2542+ Fri, 06 Jul 2018 19:26:36 +0100
REM compiler GCC version 9.3.0
REM options -cpp -mtune=generic -march=x86-64 -g -O0
REM seed -1033166876 -1389218438 -326061911 -85830075 -708729978 -1563696206 1198660270 707525688 -1177296609 2045156618 595795062 -1748460603 111291700 -1072401243 -1074585258 1412204305 -1068259168 -122556441 -782963723 131968664 -152615788 -372076056 -1816872320 -1664139595 1012349743 377344314 -1746381964 -452497571 -1533238430 549658005 -1696269292 1533227714 -1945330278
REM
CELL 1.54180   50.00000   50.00000   50.00000   90.00000   90.00000   90.00000
LATT -1
SFAC C  
C      1  0.5543300000000  0.5152960000000  0.4531610000000 1.0
C      1  0.5524730000000  0.4801470000000  0.5472390000000 1.0
C      1  0.4461530000000  0.5206230000000  0.4533990000000 1.0
C      1  0.4442410000000  0.4840780000000  0.5461880000000 1.0
C      1  0.4251330000000  0.5176160000000  0.5014530000000 1.0
C      1  0.4239150000000  0.4888530000000  0.4979780000000 1.0
C      1  0.5753450000000  0.5112450000000  0.5017070000000 1.0
C      1  0.5741200000000  0.4823740000000  0.4988540000000 1.0
C      1  0.4853180000000  0.5109810000000  0.4669910000000 1.0
C      1  0.4841870000000  0.4903350000000  0.5328930000000 1.0
C      1  0.5147060000000  0.5094310000000  0.4673930000000 1.0
C      1  0.5136030000000  0.4893700000000  0.5327120000000 1.0
C      1  0.4485180000000  0.5585620000000  0.4803300000000 1.0
C      1  0.4435600000000  0.4460660000000  0.5192630000000 1.0
C      1  0.5568010000000  0.5535660000000  0.4774750000000 1.0
C      1  0.5518490000000  0.4417980000000  0.5229330000000 1.0
C      1  0.4827610000000  0.4700630000000  0.4865540000000 1.0
C      1  0.4852800000000  0.5313160000000  0.5133240000000 1.0
C      1  0.5147040000000  0.4679730000000  0.4867440000000 1.0
C      1  0.5172860000000  0.5306700000000  0.5133760000000 1.0
C      1  0.5681630000000  0.5192220000000  0.5264970000000 1.0
C      1  0.5664700000000  0.4750310000000  0.4740080000000 1.0
C      1  0.4325710000000  0.5254690000000  0.5262290000000 1.0
C      1  0.4308420000000  0.4803850000000  0.4732560000000 1.0
C      1  0.4822030000000  0.4477210000000  0.5492700000000 1.0
C      1  0.4871030000000  0.5536040000000  0.4506130000000 1.0
C      1  0.5118100000000  0.4467930000000  0.5502750000000 1.0
C      1  0.5166870000000  0.5520000000000  0.4498320000000 1.0
C      1  0.4676190000000  0.4354690000000  0.5272960000000 1.0
C      1  0.4734540000000  0.5670630000000  0.4724820000000 1.0
C      1  0.5265400000000  0.4326710000000  0.5296710000000 1.0
C      1  0.5324150000000  0.5648190000000  0.4705500000000 1.0
C      1  0.4479740000000  0.4915570000000  0.4558510000000 1.0
C      1  0.4485560000000  0.5128810000000  0.5437590000000 1.0
C      1  0.5505610000000  0.4868010000000  0.4558170000000 1.0
C      1  0.5511710000000  0.5088600000000  0.5445640000000 1.0
C      1  0.4762130000000  0.4420240000000  0.4814270000000 1.0
C      1  0.4811120000000  0.5598130000000  0.5184110000000 1.0
C      1  0.5217670000000  0.4365520000000  0.4834670000000 1.0
C      1  0.5269810000000  0.5613750000000  0.5167150000000 1.0
C      1  0.5113450000000  0.4242430000000  0.5073380000000 1.0
C      1  0.5178280000000  0.5745210000000  0.4927710000000 1.0
C      1  0.4832140000000  0.4268910000000  0.5053330000000 1.0
C      1  0.4895600000000  0.5742850000000  0.4945630000000 1.0
C      1  0.5571360000000  0.4690200000000  0.5200170000000 1.0
C      1  0.5597210000000  0.5259930000000  0.4804220000000 1.0
C      1  0.4397650000000  0.4737940000000  0.5185850000000 1.0
C      1  0.4423640000000  0.5312600000000  0.4809710000000 1.0
C      1  0.4931840000000  0.4393740000000  0.4566270000000 1.0
C      1  0.4980610000000  0.5610120000000  0.5433390000000 1.0
C      1  0.5133150000000  0.4227360000000  0.4599090000000 1.0
C      1  0.5195630000000  0.5758690000000  0.5402140000000 1.0
C      1  0.4689680000000  0.4875260000000  0.5065340000000 1.0
C      1  0.4701970000000  0.5150880000000  0.4932360000000 1.0
C      1  0.5289810000000  0.4848510000000  0.5067920000000 1.0
C      1  0.5302190000000  0.5126290000000  0.4934290000000 1.0
C      1  0.4764990000000  0.4831220000000  0.4592190000000 1.0
C      1  0.4777210000000  0.5188480000000  0.5406080000000 1.0
C      1  0.5209990000000  0.4803110000000  0.4595660000000 1.0
C      1  0.5223000000000  0.5178480000000  0.5405960000000 1.0
C      1  0.4732460000000  0.5292930000000  0.4472270000000 1.0
C      1  0.4704470000000  0.4731270000000  0.5525600000000 1.0
C      1  0.5280060000000  0.5262730000000  0.4472850000000 1.0
C      1  0.5252650000000  0.4714600000000  0.5529140000000 1.0
C      1  0.4995800000000  0.5328980000000  0.5538990000000 1.0
C      1  0.4971770000000  0.4672520000000  0.4460870000000 1.0
END
