TITL C-110348-5878-3 96.0895747739043 125000 -513.294204692662 0 0 74 (C1) n - 1
REM
REM in /rds/project/t2_vol4/rds-t2-cs072/BORA/CARBON/from-Arr/AIRSS/Generating-Clusters/GAP-ML-2020/Higher-Symm/SD-CG/HFTN-CG
REM
REM
REM
REM
REM
REM ./C.cell (b20cbc046b6831c77cfcea5457e17084)
REM AIRSS Version 0.9.1 bugfix July 2018 build 013d7b7c2542+ Fri, 06 Jul 2018 19:26:36 +0100
REM compiler GCC version 9.3.0
REM options -cpp -mtune=generic -march=x86-64 -g -O0
REM seed -1264255197 -246957778 -557947360 -1271176553 1910896433 -1622467117 550034813 -373724308 -721708811 -587230515 132678549 -1760471328 1888509278 1869043659 1466943687 -1984454914 -915922283 -878614436 881703027 -163014036 -957780273 885639204 -289684900 1504580993 1051721707 -1760944522 -2094445968 592965912 -1843105461 -1133407735 -946938042 1849634996 812332253
REM
CELL 1.54180   50.00000   50.00000   50.00000   90.00000   90.00000   90.00000
LATT -1
SFAC C  
C      1  0.5229690000000  0.4067370000000  0.4993650000000 1.0
C      1  0.5086190000000  0.4054010000000  0.5239570000000 1.0
C      1  0.4807890000000  0.4045550000000  0.5177010000000 1.0
C      1  0.4773310000000  0.4037840000000  0.4890070000000 1.0
C      1  0.5084360000000  0.4312900000000  0.4623030000000 1.0
C      1  0.5400760000000  0.4724260000000  0.4692840000000 1.0
C      1  0.5458050000000  0.4690630000000  0.5315030000000 1.0
C      1  0.4850550000000  0.4677920000000  0.5563610000000 1.0
C      1  0.4443810000000  0.4669680000000  0.5054490000000 1.0
C      1  0.4833720000000  0.4719750000000  0.4474080000000 1.0
C      1  0.5377370000000  0.4313950000000  0.4988300000000 1.0
C      1  0.5138880000000  0.4295140000000  0.5393130000000 1.0
C      1  0.4682100000000  0.4281770000000  0.5279880000000 1.0
C      1  0.4572710000000  0.4232900000000  0.4824440000000 1.0
C      1  0.4841190000000  0.4441230000000  0.4516820000000 1.0
C      1  0.5338770000000  0.5355350000000  0.5576780000000 1.0
C      1  0.4562480000000  0.5343050000000  0.5509400000000 1.0
C      1  0.4402470000000  0.5318760000000  0.4719270000000 1.0
C      1  0.5128180000000  0.5337320000000  0.4271490000000 1.0
C      1  0.5709160000000  0.5347150000000  0.4872260000000 1.0
C      1  0.5263480000000  0.4936150000000  0.4538490000000 1.0
C      1  0.5617760000000  0.4849670000000  0.5135240000000 1.0
C      1  0.5076910000000  0.4843040000000  0.5637460000000 1.0
C      1  0.4429000000000  0.4835670000000  0.5294190000000 1.0
C      1  0.4665830000000  0.4911150000000  0.4612760000000 1.0
C      1  0.5665420000000  0.5106620000000  0.4702460000000 1.0
C      1  0.5479740000000  0.5109880000000  0.5505380000000 1.0
C      1  0.4675500000000  0.5102110000000  0.5637170000000 1.0
C      1  0.4341100000000  0.5100020000000  0.4905420000000 1.0
C      1  0.4914480000000  0.5129470000000  0.4275930000000 1.0
C      1  0.5604740000000  0.4861480000000  0.4842030000000 1.0
C      1  0.5348690000000  0.4857140000000  0.5526480000000 1.0
C      1  0.4611890000000  0.4846230000000  0.5530480000000 1.0
C      1  0.4444250000000  0.4849820000000  0.4819020000000 1.0
C      1  0.5033020000000  0.4884510000000  0.4360950000000 1.0
C      1  0.4769130000000  0.5479470000000  0.5337400000000 1.0
C      1  0.4676330000000  0.5426490000000  0.4806570000000 1.0
C      1  0.5103410000000  0.5471470000000  0.4535170000000 1.0
C      1  0.5462010000000  0.5519150000000  0.4878110000000 1.0
C      1  0.5260010000000  0.5531790000000  0.5343750000000 1.0
C      1  0.4517060000000  0.4397130000000  0.5063780000000 1.0
C      1  0.4589900000000  0.4322770000000  0.4568410000000 1.0
C      1  0.5315910000000  0.4456760000000  0.4738330000000 1.0
C      1  0.5364810000000  0.4432040000000  0.5260420000000 1.0
C      1  0.4875890000000  0.4416220000000  0.5460330000000 1.0
C      1  0.4917330000000  0.5223270000000  0.5247750000000 1.0
C      1  0.4834920000000  0.5150580000000  0.4790350000000 1.0
C      1  0.5119770000000  0.5199020000000  0.4699900000000 1.0
C      1  0.5291420000000  0.5267550000000  0.4920420000000 1.0
C      1  0.5153820000000  0.5327960000000  0.5152980000000 1.0
C      1  0.4424970000000  0.5279850000000  0.4442850000000 1.0
C      1  0.5403890000000  0.5260970000000  0.4257320000000 1.0
C      1  0.5786600000000  0.5292560000000  0.5134120000000 1.0
C      1  0.5129770000000  0.5304400000000  0.5750070000000 1.0
C      1  0.4322510000000  0.5295600000000  0.5383740000000 1.0
C      1  0.5401210000000  0.5686260000000  0.5128670000000 1.0
C      1  0.4998680000000  0.5675530000000  0.5387260000000 1.0
C      1  0.4707350000000  0.5586300000000  0.5063300000000 1.0
C      1  0.4863870000000  0.5598420000000  0.4647710000000 1.0
C      1  0.5311210000000  0.5653590000000  0.4666380000000 1.0
C      1  0.4959610000000  0.5095700000000  0.5718740000000 1.0
C      1  0.4324010000000  0.5092050000000  0.5199920000000 1.0
C      1  0.4645270000000  0.5126920000000  0.4389390000000 1.0
C      1  0.5493900000000  0.5113190000000  0.4465900000000 1.0
C      1  0.5659710000000  0.5096870000000  0.5274920000000 1.0
C      1  0.5248330000000  0.5911680000000  0.5060420000000 1.0
C      1  0.4994850000000  0.5906210000000  0.5215290000000 1.0
C      1  0.4789730000000  0.5869830000000  0.5017420000000 1.0
C      1  0.4904520000000  0.5868690000000  0.4752310000000 1.0
C      1  0.5190190000000  0.5897570000000  0.4770750000000 1.0
C      1  0.5001770000000  0.4813740000000  0.5037480000000 1.0
C      1  0.4851250000000  0.5030450000000  0.5057890000000 1.0
C      1  0.5038280000000  0.4070110000000  0.4773250000000 1.0
C      1  0.5029720000000  0.5547980000000  0.4977640000000 1.0
END
