TITL C-110364-4528-8 -172.344767280528 125000 -495.430024028988 0 0 72 (C1) n - 1
REM
REM in /rds/project/t2_vol4/rds-t2-cs072/BORA/CARBON/from-Arr/AIRSS/Generating-Clusters/GAP-ML-2020/Higher-Symm/SD-CG/HFTN-CG
REM
REM
REM
REM
REM
REM ./C.cell (b20cbc046b6831c77cfcea5457e17084)
REM AIRSS Version 0.9.1 bugfix July 2018 build 013d7b7c2542+ Fri, 06 Jul 2018 19:26:36 +0100
REM compiler GCC version 9.3.0
REM options -cpp -mtune=generic -march=x86-64 -g -O0
REM seed -1871212684 761099126 -1044079924 274257956 11288838 210935540 1682124637 -976062555 -860936782 2047588626 284222165 -194793062 -1874443318 1990459757 -668258704 950987865 -1381248524 332204831 -1154155488 -843506375 376444366 -260366152 -798688844 1520186722 -60473599 -553164362 -1776003396 489356866 -1882534740 -976531278 -1812208566 2002554513 -1583432809
REM
CELL 1.54180   50.00000   50.00000   50.00000   90.00000   90.00000   90.00000
LATT -1
SFAC C  
C      1  0.5622060000000  0.4452090000000  0.4822750000000 1.0
C      1  0.5233670000000  0.4216040000000  0.4807960000000 1.0
C      1  0.4784750000000  0.4330950000000  0.4824010000000 1.0
C      1  0.4402310000000  0.4588150000000  0.4725150000000 1.0
C      1  0.4162090000000  0.4962290000000  0.4805170000000 1.0
C      1  0.4266960000000  0.5392140000000  0.4888630000000 1.0
C      1  0.4584360000000  0.5689010000000  0.4926360000000 1.0
C      1  0.5020360000000  0.5785200000000  0.4864220000000 1.0
C      1  0.5421910000000  0.5604300000000  0.4934710000000 1.0
C      1  0.5719920000000  0.5282510000000  0.4788250000000 1.0
C      1  0.5809210000000  0.4851450000000  0.4730300000000 1.0
C      1  0.5833220000000  0.4940490000000  0.5173910000000 1.0
C      1  0.5941240000000  0.4675830000000  0.5142680000000 1.0
C      1  0.5353690000000  0.4305330000000  0.5233420000000 1.0
C      1  0.5062930000000  0.4232160000000  0.5236600000000 1.0
C      1  0.4390230000000  0.4474590000000  0.5164180000000 1.0
C      1  0.4123690000000  0.4550570000000  0.5084770000000 1.0
C      1  0.4299090000000  0.5137590000000  0.5258470000000 1.0
C      1  0.4405170000000  0.5401310000000  0.5324820000000 1.0
C      1  0.4862120000000  0.5770840000000  0.5291490000000 1.0
C      1  0.5152590000000  0.5792370000000  0.5314390000000 1.0
C      1  0.5600170000000  0.5490450000000  0.5160740000000 1.0
C      1  0.4988320000000  0.4596640000000  0.5943980000000 1.0
C      1  0.4762030000000  0.4676320000000  0.5784200000000 1.0
C      1  0.4641000000000  0.4926200000000  0.5806730000000 1.0
C      1  0.4590060000000  0.5093900000000  0.5608420000000 1.0
C      1  0.4610700000000  0.5375210000000  0.5523080000000 1.0
C      1  0.4866770000000  0.5488320000000  0.5410630000000 1.0
C      1  0.5157770000000  0.5569530000000  0.5491730000000 1.0
C      1  0.5355930000000  0.5370880000000  0.5536090000000 1.0
C      1  0.5328790000000  0.5171690000000  0.5714090000000 1.0
C      1  0.5279970000000  0.4909610000000  0.5653100000000 1.0
C      1  0.5168180000000  0.4723110000000  0.5822460000000 1.0
C      1  0.4517100000000  0.4942580000000  0.5343880000000 1.0
C      1  0.4764810000000  0.5033660000000  0.5172580000000 1.0
C      1  0.4931240000000  0.5252290000000  0.5233120000000 1.0
C      1  0.5194350000000  0.5211500000000  0.5097950000000 1.0
C      1  0.5471990000000  0.5267150000000  0.5282160000000 1.0
C      1  0.5590610000000  0.5000120000000  0.5303590000000 1.0
C      1  0.5338450000000  0.4819940000000  0.5362470000000 1.0
C      1  0.5282810000000  0.4526720000000  0.5407790000000 1.0
C      1  0.4999260000000  0.4426580000000  0.5441690000000 1.0
C      1  0.4747630000000  0.4542400000000  0.5533480000000 1.0
C      1  0.4523770000000  0.4628230000000  0.5370150000000 1.0
C      1  0.5445300000000  0.4604300000000  0.4648200000000 1.0
C      1  0.5202200000000  0.4443130000000  0.4632470000000 1.0
C      1  0.4928840000000  0.4514120000000  0.4646350000000 1.0
C      1  0.4554370000000  0.4801550000000  0.4628690000000 1.0
C      1  0.4396780000000  0.5034140000000  0.4643940000000 1.0
C      1  0.4462430000000  0.5318560000000  0.4688200000000 1.0
C      1  0.4689160000000  0.5505440000000  0.4718530000000 1.0
C      1  0.4986560000000  0.5531750000000  0.4726180000000 1.0
C      1  0.5242240000000  0.5353430000000  0.4818900000000 1.0
C      1  0.5472880000000  0.5174030000000  0.4687450000000 1.0
C      1  0.5545810000000  0.4880450000000  0.4632570000000 1.0
C      1  0.5463750000000  0.4263620000000  0.4970920000000 1.0
C      1  0.4989610000000  0.4180750000000  0.4962780000000 1.0
C      1  0.4526160000000  0.4403690000000  0.4896710000000 1.0
C      1  0.4159700000000  0.4685510000000  0.4851510000000 1.0
C      1  0.4155170000000  0.5158260000000  0.5008580000000 1.0
C      1  0.4380100000000  0.5567420000000  0.5084840000000 1.0
C      1  0.4793410000000  0.5839500000000  0.5028160000000 1.0
C      1  0.5253640000000  0.5807710000000  0.5031550000000 1.0
C      1  0.5704490000000  0.5532140000000  0.4915330000000 1.0
C      1  0.5868360000000  0.5069880000000  0.4894280000000 1.0
C      1  0.5844690000000  0.4607800000000  0.4890740000000 1.0
C      1  0.4990530000000  0.4989960000000  0.4527940000000 1.0
C      1  0.5181440000000  0.4915600000000  0.5107350000000 1.0
C      1  0.4985450000000  0.5030080000000  0.4269370000000 1.0
C      1  0.4918440000000  0.4846530000000  0.5021300000000 1.0
C      1  0.5018840000000  0.5131280000000  0.4038120000000 1.0
C      1  0.4855570000000  0.4805400000000  0.4694310000000 1.0
END
