TITL C-114845-6486-5 -0.00111469158823394 125000 -21.1237922463334 0 0 4 (C2v) n - 1
REM
REM in /rds/project/t2_vol4/rds-t2-cs072/BORA/CARBON/from-Arr/AIRSS/Generating-Clusters/GAP-ML-2020/Higher-Symm/SD-CG/HFTN-CG
REM
REM
REM
REM
REM
REM ./C.cell (b20cbc046b6831c77cfcea5457e17084)
REM AIRSS Version 0.9.1 bugfix July 2018 build 013d7b7c2542+ Fri, 06 Jul 2018 19:26:36 +0100
REM compiler GCC version 9.3.0
REM options -cpp -mtune=generic -march=x86-64 -g -O0
REM seed -986541342 -1735139187 -1199474559 1756471205 -267030897 1352839520 -1207802315 -575004922 -525626091 -251019140 -1782118608 1342550456 -1121577653 -2132053928 410865974 -1516776790 548145418 774919349 -2130049534 1069814031 -1819176309 1394426557 -568776743 -879153570 1715955484 -1081434069 656793491 289999546 2132708444 1179149434 -1366833638 -1227066424 -1115577609
REM
CELL 1.54180   50.00000   50.00000   50.00000   90.00000   90.00000   90.00000
LATT -1
SFAC C  
C      1  0.4825310000000  0.4846630000000  0.5027520000000 1.0
C      1  0.5051420000000  0.4781530000000  0.4933490000000 1.0
C      1  0.5103030000000  0.5310800000000  0.5032590000000 1.0
C      1  0.5020240000000  0.5061040000000  0.5006400000000 1.0
END
