TITL C-114844-6528-4 0.196369038760854 125000 -336.257814726792 0 0 49 (C1) n - 1
REM
REM in /rds/project/t2_vol4/rds-t2-cs072/BORA/CARBON/from-Arr/AIRSS/Generating-Clusters/GAP-ML-2020/Higher-Symm/SD-CG/HFTN-CG
REM
REM
REM
REM
REM
REM ./C.cell (b20cbc046b6831c77cfcea5457e17084)
REM AIRSS Version 0.9.1 bugfix July 2018 build 013d7b7c2542+ Fri, 06 Jul 2018 19:26:36 +0100
REM compiler GCC version 9.3.0
REM options -cpp -mtune=generic -march=x86-64 -g -O0
REM seed -1534772909 1918140526 259408453 1673076209 533505871 383401953 -1547489887 575031525 -601543001 -2050676272 952139410 787284407 -545641464 -421792701 -75093980 -1486243531 -1786223309 1775290732 -1710340270 -1618621235 -1437597672 -94653251 -934457484 1404336608 -267837976 1398518075 -361323482 -1963347574 -1397048264 -1091311621 -1297070160 1323041934 -112143855
REM
CELL 1.54180   50.00000   50.00000   50.00000   90.00000   90.00000   90.00000
LATT -1
SFAC C  
C      1  0.4841360000000  0.4672010000000  0.5477680000000 1.0
C      1  0.4814880000000  0.5340230000000  0.5441510000000 1.0
C      1  0.5104000000000  0.5349010000000  0.5450690000000 1.0
C      1  0.5132070000000  0.4674750000000  0.5464040000000 1.0
C      1  0.4410150000000  0.4693560000000  0.5301750000000 1.0
C      1  0.4429720000000  0.5240260000000  0.5208730000000 1.0
C      1  0.4615420000000  0.5132830000000  0.5410120000000 1.0
C      1  0.4623230000000  0.4855440000000  0.5443520000000 1.0
C      1  0.4482330000000  0.4422810000000  0.5311640000000 1.0
C      1  0.4458350000000  0.5514380000000  0.5196950000000 1.0
C      1  0.5054320000000  0.5760270000000  0.4919080000000 1.0
C      1  0.5029070000000  0.4252340000000  0.4970220000000 1.0
C      1  0.5398650000000  0.5565660000000  0.5162850000000 1.0
C      1  0.5408520000000  0.4454540000000  0.5163800000000 1.0
C      1  0.5315190000000  0.5152860000000  0.5372430000000 1.0
C      1  0.5328110000000  0.4871360000000  0.5369410000000 1.0
C      1  0.5173510000000  0.5600010000000  0.5332870000000 1.0
C      1  0.5204490000000  0.4423440000000  0.5356360000000 1.0
C      1  0.4996420000000  0.5195820000000  0.4453020000000 1.0
C      1  0.4939190000000  0.4920280000000  0.4483140000000 1.0
C      1  0.5152390000000  0.4733110000000  0.4493440000000 1.0
C      1  0.5248410000000  0.5326680000000  0.4422210000000 1.0
C      1  0.5096760000000  0.4452050000000  0.4552040000000 1.0
C      1  0.5216700000000  0.5608740000000  0.4498060000000 1.0
C      1  0.4699680000000  0.4832380000000  0.4636440000000 1.0
C      1  0.4868970000000  0.5373130000000  0.4653650000000 1.0
C      1  0.5350430000000  0.5716770000000  0.4928600000000 1.0
C      1  0.5315420000000  0.4311940000000  0.4936240000000 1.0
C      1  0.4820560000000  0.5191110000000  0.4867620000000 1.0
C      1  0.4790340000000  0.4629210000000  0.4817010000000 1.0
C      1  0.4951250000000  0.5713430000000  0.5188960000000 1.0
C      1  0.4976000000000  0.4287600000000  0.5246440000000 1.0
C      1  0.5056720000000  0.5017320000000  0.4916610000000 1.0
C      1  0.5024040000000  0.4741670000000  0.4967740000000 1.0
C      1  0.5444050000000  0.5307460000000  0.4659970000000 1.0
C      1  0.5405130000000  0.4708410000000  0.4664790000000 1.0
C      1  0.5497140000000  0.4856990000000  0.4894440000000 1.0
C      1  0.5394510000000  0.5130450000000  0.4892210000000 1.0
C      1  0.4892090000000  0.4369090000000  0.4736470000000 1.0
C      1  0.4979780000000  0.5638140000000  0.4661400000000 1.0
C      1  0.4383850000000  0.5031270000000  0.4994630000000 1.0
C      1  0.4269680000000  0.4803430000000  0.5095970000000 1.0
C      1  0.5437630000000  0.5281090000000  0.5145130000000 1.0
C      1  0.5475290000000  0.4734260000000  0.5150680000000 1.0
C      1  0.5355950000000  0.4428280000000  0.4687940000000 1.0
C      1  0.5432130000000  0.5594000000000  0.4687860000000 1.0
C      1  0.4747990000000  0.4412030000000  0.5367750000000 1.0
C      1  0.4713580000000  0.5581120000000  0.5293450000000 1.0
C      1  0.4586090000000  0.5029660000000  0.4800920000000 1.0
END
