TITL C-110357-4810-10 0.0500988548254753 125000 -378.782351788089 0 0 55 (Cs) n - 1
REM
REM in /rds/project/t2_vol4/rds-t2-cs072/BORA/CARBON/from-Arr/AIRSS/Generating-Clusters/GAP-ML-2020/Higher-Symm/SD-CG/HFTN-CG
REM
REM
REM
REM
REM
REM ./C.cell (b20cbc046b6831c77cfcea5457e17084)
REM AIRSS Version 0.9.1 bugfix July 2018 build 013d7b7c2542+ Fri, 06 Jul 2018 19:26:36 +0100
REM compiler GCC version 9.3.0
REM options -cpp -mtune=generic -march=x86-64 -g -O0
REM seed 899832963 393784050 1504577764 561661551 834537735 647184231 51215001 155107941 -569641699 1451559876 1479224366 -1350223820 -10691641 -686188625 121666305 -1884224126 1520468227 -1449438446 -1374985204 -658112784 -1598511783 1189031995 378484802 -1045115048 -1618346569 -1186405350 -920305642 1164584102 -952227826 1315885430 -165534976 -1545139858 -447419965
REM
CELL 1.54180   50.00000   50.00000   50.00000   90.00000   90.00000   90.00000
LATT -1
SFAC C  
C      1  0.4190540000000  0.4958160000000  0.4983580000000 1.0
C      1  0.4341350000000  0.4500740000000  0.4973190000000 1.0
C      1  0.4674140000000  0.4163120000000  0.4911610000000 1.0
C      1  0.5140770000000  0.4194630000000  0.4991850000000 1.0
C      1  0.5585500000000  0.4364770000000  0.4964930000000 1.0
C      1  0.5759590000000  0.4804820000000  0.5007820000000 1.0
C      1  0.5818240000000  0.5268930000000  0.4924400000000 1.0
C      1  0.5511250000000  0.5633910000000  0.4927330000000 1.0
C      1  0.5115960000000  0.5879540000000  0.4834670000000 1.0
C      1  0.4663080000000  0.5750620000000  0.4917160000000 1.0
C      1  0.4310760000000  0.5425210000000  0.4962650000000 1.0
C      1  0.4525320000000  0.4372530000000  0.4806060000000 1.0
C      1  0.4925970000000  0.4218950000000  0.4817070000000 1.0
C      1  0.5345220000000  0.4306800000000  0.4841120000000 1.0
C      1  0.5651460000000  0.4605090000000  0.4847980000000 1.0
C      1  0.5757670000000  0.5017720000000  0.4829490000000 1.0
C      1  0.5633020000000  0.5424900000000  0.4791000000000 1.0
C      1  0.5307600000000  0.5701550000000  0.4750610000000 1.0
C      1  0.4882410000000  0.5759750000000  0.4743880000000 1.0
C      1  0.4510300000000  0.5545490000000  0.4813370000000 1.0
C      1  0.4289110000000  0.5175930000000  0.4842510000000 1.0
C      1  0.4304140000000  0.4744560000000  0.4849270000000 1.0
C      1  0.5236470000000  0.4525090000000  0.4664380000000 1.0
C      1  0.5443740000000  0.4722340000000  0.4664350000000 1.0
C      1  0.5515250000000  0.5000160000000  0.4651900000000 1.0
C      1  0.5428750000000  0.5272090000000  0.4630900000000 1.0
C      1  0.5207700000000  0.5455200000000  0.4609930000000 1.0
C      1  0.4922440000000  0.5488820000000  0.4610840000000 1.0
C      1  0.4668010000000  0.5356350000000  0.4644640000000 1.0
C      1  0.4521650000000  0.5108060000000  0.4663770000000 1.0
C      1  0.4529790000000  0.4819370000000  0.4668710000000 1.0
C      1  0.4688080000000  0.4578370000000  0.4651650000000 1.0
C      1  0.4954140000000  0.4470150000000  0.4654080000000 1.0
C      1  0.4370330000000  0.4505040000000  0.5268420000000 1.0
C      1  0.4659880000000  0.4127600000000  0.5198070000000 1.0
C      1  0.5109900000000  0.4271250000000  0.5276140000000 1.0
C      1  0.5573400000000  0.4375550000000  0.5253220000000 1.0
C      1  0.5654730000000  0.4844160000000  0.5283070000000 1.0
C      1  0.5808670000000  0.5289560000000  0.5212250000000 1.0
C      1  0.5453430000000  0.5605820000000  0.5216310000000 1.0
C      1  0.5126780000000  0.5941430000000  0.5116770000000 1.0
C      1  0.4692770000000  0.5757680000000  0.5212270000000 1.0
C      1  0.4316210000000  0.5442370000000  0.5255930000000 1.0
C      1  0.4193380000000  0.4965180000000  0.5277320000000 1.0
C      1  0.5588730000000  0.5394080000000  0.5345950000000 1.0
C      1  0.5237480000000  0.5763450000000  0.5303750000000 1.0
C      1  0.4955080000000  0.5828030000000  0.5302100000000 1.0
C      1  0.4489670000000  0.5638320000000  0.5352810000000 1.0
C      1  0.4215490000000  0.5219400000000  0.5389560000000 1.0
C      1  0.4252980000000  0.4718810000000  0.5394030000000 1.0
C      1  0.4568130000000  0.4324810000000  0.5369480000000 1.0
C      1  0.4846660000000  0.4245170000000  0.5371810000000 1.0
C      1  0.5333250000000  0.4401600000000  0.5390440000000 1.0
C      1  0.5532620000000  0.4614020000000  0.5393000000000 1.0
C      1  0.5661040000000  0.5112950000000  0.5370640000000 1.0
END
