TITL C-111531-3824-8 -0.00299431518882254 125000 -254.958272581859 0 0 37 (Cs) n - 1
REM
REM in /rds/project/t2_vol4/rds-t2-cs072/BORA/CARBON/from-Arr/AIRSS/Generating-Clusters/GAP-ML-2020/Higher-Symm/SD-CG/HFTN-CG
REM
REM
REM
REM
REM
REM ./C.cell (b20cbc046b6831c77cfcea5457e17084)
REM AIRSS Version 0.9.1 bugfix July 2018 build 013d7b7c2542+ Fri, 06 Jul 2018 19:26:36 +0100
REM compiler GCC version 9.3.0
REM options -cpp -mtune=generic -march=x86-64 -g -O0
REM seed 1476472797 560859665 615957673 396603370 1616508875 -1012182027 -766536299 -1599345543 1002816655 -873390300 -744642177 -2047180504 -709057752 1990079693 17194478 877598897 -1690093945 846098480 -571222111 -456792251 421745701 -2030526122 -710329803 -2062780446 -1336655389 1485372132 1666188681 -547405380 -1218235922 2044175167 86335488 446645590 -192777104
REM
CELL 1.54180   50.00000   50.00000   50.00000   90.00000   90.00000   90.00000
LATT -1
SFAC C  
C      1  0.5426490000000  0.5083750000000  0.5361990000000 1.0
C      1  0.5289400000000  0.4666240000000  0.4654840000000 1.0
C      1  0.4865300000000  0.4578090000000  0.5375160000000 1.0
C      1  0.4566530000000  0.4886440000000  0.4645990000000 1.0
C      1  0.4701390000000  0.5312340000000  0.5355840000000 1.0
C      1  0.5128590000000  0.5412420000000  0.4620610000000 1.0
C      1  0.4562140000000  0.5049870000000  0.5364060000000 1.0
C      1  0.4829840000000  0.5400700000000  0.4621320000000 1.0
C      1  0.5267080000000  0.5334520000000  0.5354490000000 1.0
C      1  0.5431470000000  0.4920350000000  0.4643910000000 1.0
C      1  0.5161250000000  0.4589700000000  0.5374450000000 1.0
C      1  0.4728110000000  0.4644240000000  0.4656180000000 1.0
C      1  0.5139770000000  0.4742130000000  0.4421730000000 1.0
C      1  0.4857380000000  0.4746490000000  0.5611890000000 1.0
C      1  0.4711560000000  0.4974790000000  0.4411750000000 1.0
C      1  0.4851820000000  0.5239820000000  0.5595290000000 1.0
C      1  0.5132110000000  0.5228710000000  0.4398530000000 1.0
C      1  0.5282980000000  0.4999840000000  0.5600960000000 1.0
C      1  0.5123940000000  0.5250490000000  0.5594630000000 1.0
C      1  0.5278840000000  0.4997040000000  0.4410390000000 1.0
C      1  0.5157100000000  0.4758240000000  0.5611170000000 1.0
C      1  0.4870220000000  0.4731560000000  0.4422380000000 1.0
C      1  0.4712920000000  0.4977500000000  0.5602320000000 1.0
C      1  0.4839650000000  0.5217240000000  0.4399230000000 1.0
C      1  0.4733090000000  0.4653940000000  0.5134320000000 1.0
C      1  0.4554310000000  0.5042490000000  0.4877220000000 1.0
C      1  0.4838680000000  0.5373710000000  0.5115690000000 1.0
C      1  0.5231190000000  0.5288140000000  0.4864110000000 1.0
C      1  0.5428610000000  0.4928200000000  0.5125950000000 1.0
C      1  0.5155940000000  0.4593850000000  0.4890060000000 1.0
C      1  0.5124260000000  0.5384910000000  0.5115010000000 1.0
C      1  0.5432540000000  0.5076920000000  0.4875110000000 1.0
C      1  0.5285960000000  0.4675610000000  0.5132990000000 1.0
C      1  0.4867950000000  0.4582560000000  0.4890760000000 1.0
C      1  0.4571070000000  0.4894580000000  0.5128000000000 1.0
C      1  0.4738450000000  0.5268820000000  0.4865290000000 1.0
C      1  0.4993760000000  0.5045420000000  0.4782620000000 1.0
END
