TITL C-116595-6141-11 -125.078853708854 125000 -983.152679458776 0 0 136 (C1) n - 1
REM
REM in /rds/project/t2_vol4/rds-t2-cs072/BORA/CARBON/from-Arr/AIRSS/Generating-Clusters/GAP-ML-2020/Higher-Symm/SD-CG/HFTN-CG
REM
REM
REM
REM
REM
REM ./C.cell (b20cbc046b6831c77cfcea5457e17084)
REM AIRSS Version 0.9.1 bugfix July 2018 build 013d7b7c2542+ Fri, 06 Jul 2018 19:26:36 +0100
REM compiler GCC version 9.3.0
REM options -cpp -mtune=generic -march=x86-64 -g -O0
REM seed -1355496662 -1163833499 -291285024 2009302043 -1205142864 -198955533 528051317 318606298 -464817182 -1861310772 -1377029617 89040675 -211923506 -2093344098 -468933169 -1022341229 1566710044 496129942 483572165 -831797073 1078866606 -749579474 -87659636 -1547170031 363759425 633343634 302117214 -1500218386 -1669753765 -1877966702 -267565539 1992575545 960692501
REM
CELL 1.54180   50.00000   50.00000   50.00000   90.00000   90.00000   90.00000
LATT -1
SFAC C  
C      1  0.4382060000000  0.4327510000000  0.5206300000000 1.0
C      1  0.4108740000000  0.4784400000000  0.5206340000000 1.0
C      1  0.4118830000000  0.5306690000000  0.5211430000000 1.0
C      1  0.4407720000000  0.5754710000000  0.5240700000000 1.0
C      1  0.4891340000000  0.5934820000000  0.5224150000000 1.0
C      1  0.5416660000000  0.5836410000000  0.5229610000000 1.0
C      1  0.5781370000000  0.5467460000000  0.5225910000000 1.0
C      1  0.5910770000000  0.4939180000000  0.5256410000000 1.0
C      1  0.5761160000000  0.4431620000000  0.5261040000000 1.0
C      1  0.5358790000000  0.4113050000000  0.5254720000000 1.0
C      1  0.4827240000000  0.4071140000000  0.5252060000000 1.0
C      1  0.5949850000000  0.4916370000000  0.4695170000000 1.0
C      1  0.5797510000000  0.4447250000000  0.4684360000000 1.0
C      1  0.5263450000000  0.3934990000000  0.4683690000000 1.0
C      1  0.4843040000000  0.3939340000000  0.4735940000000 1.0
C      1  0.4340120000000  0.4464660000000  0.4568460000000 1.0
C      1  0.4087520000000  0.4781050000000  0.4670770000000 1.0
C      1  0.4071700000000  0.5510460000000  0.4633170000000 1.0
C      1  0.4329250000000  0.5827160000000  0.4708390000000 1.0
C      1  0.5046300000000  0.5931220000000  0.4591350000000 1.0
C      1  0.5439960000000  0.5880180000000  0.4694670000000 1.0
C      1  0.5922480000000  0.5330240000000  0.4630680000000 1.0
C      1  0.5209750000000  0.5988900000000  0.4830890000000 1.0
C      1  0.5641150000000  0.5719340000000  0.4800970000000 1.0
C      1  0.5976960000000  0.5161380000000  0.4850500000000 1.0
C      1  0.5909810000000  0.4670110000000  0.4825500000000 1.0
C      1  0.5643080000000  0.4240270000000  0.4824660000000 1.0
C      1  0.5080430000000  0.3889270000000  0.4902380000000 1.0
C      1  0.4632140000000  0.4115500000000  0.4792330000000 1.0
C      1  0.4170900000000  0.4539070000000  0.4801830000000 1.0
C      1  0.4015830000000  0.5026130000000  0.4785700000000 1.0
C      1  0.4128100000000  0.5676940000000  0.4863430000000 1.0
C      1  0.4583140000000  0.5903710000000  0.4801210000000 1.0
C      1  0.5283790000000  0.5819540000000  0.4457020000000 1.0
C      1  0.5738160000000  0.5539220000000  0.4595070000000 1.0
C      1  0.5872030000000  0.5096810000000  0.4461220000000 1.0
C      1  0.5727080000000  0.4527320000000  0.4429360000000 1.0
C      1  0.5450500000000  0.4137410000000  0.4637460000000 1.0
C      1  0.5024650000000  0.3975800000000  0.4514290000000 1.0
C      1  0.4565980000000  0.4295330000000  0.4563810000000 1.0
C      1  0.4262100000000  0.4724150000000  0.4443410000000 1.0
C      1  0.4088270000000  0.5237970000000  0.4602390000000 1.0
C      1  0.4277510000000  0.5653620000000  0.4479090000000 1.0
C      1  0.4776300000000  0.5856660000000  0.4589670000000 1.0
C      1  0.5339770000000  0.5373380000000  0.5783050000000 1.0
C      1  0.5489880000000  0.5123410000000  0.5794270000000 1.0
C      1  0.5479490000000  0.4831310000000  0.5804710000000 1.0
C      1  0.5311300000000  0.4595870000000  0.5805340000000 1.0
C      1  0.5041280000000  0.4489360000000  0.5795340000000 1.0
C      1  0.4757180000000  0.4547760000000  0.5786400000000 1.0
C      1  0.4549560000000  0.4748900000000  0.5774720000000 1.0
C      1  0.4477110000000  0.5029310000000  0.5782500000000 1.0
C      1  0.4567500000000  0.5305530000000  0.5784410000000 1.0
C      1  0.4794870000000  0.5485590000000  0.5788210000000 1.0
C      1  0.5084410000000  0.5511150000000  0.5783460000000 1.0
C      1  0.5492910000000  0.4768470000000  0.5077370000000 1.0
C      1  0.5253210000000  0.4732540000000  0.5238340000000 1.0
C      1  0.5037290000000  0.4579280000000  0.5138640000000 1.0
C      1  0.4776740000000  0.4620520000000  0.5200380000000 1.0
C      1  0.4656830000000  0.4848480000000  0.5110480000000 1.0
C      1  0.4724340000000  0.5068100000000  0.5269250000000 1.0
C      1  0.4708580000000  0.5322210000000  0.5150820000000 1.0
C      1  0.4922400000000  0.5472570000000  0.5225840000000 1.0
C      1  0.5145900000000  0.5392510000000  0.5092210000000 1.0
C      1  0.5303730000000  0.5193700000000  0.5203560000000 1.0
C      1  0.5521030000000  0.5088270000000  0.5046090000000 1.0
C      1  0.4231670000000  0.5039970000000  0.5614300000000 1.0
C      1  0.4363970000000  0.5452110000000  0.5624570000000 1.0
C      1  0.4703350000000  0.5721190000000  0.5633330000000 1.0
C      1  0.5130020000000  0.5754500000000  0.5621150000000 1.0
C      1  0.5512810000000  0.5554740000000  0.5626760000000 1.0
C      1  0.5731990000000  0.5181400000000  0.5635340000000 1.0
C      1  0.5718240000000  0.4741950000000  0.5652110000000 1.0
C      1  0.5472490000000  0.4391170000000  0.5657340000000 1.0
C      1  0.5069700000000  0.4236360000000  0.5642400000000 1.0
C      1  0.4642600000000  0.4321940000000  0.5631830000000 1.0
C      1  0.4339850000000  0.4620580000000  0.5606380000000 1.0
C      1  0.4411530000000  0.4378450000000  0.5486360000000 1.0
C      1  0.4171940000000  0.4802650000000  0.5481190000000 1.0
C      1  0.4188200000000  0.5282750000000  0.5486540000000 1.0
C      1  0.4455660000000  0.5692850000000  0.5513360000000 1.0
C      1  0.4902240000000  0.5869290000000  0.5504440000000 1.0
C      1  0.5380570000000  0.5765370000000  0.5501130000000 1.0
C      1  0.5727860000000  0.5428440000000  0.5500710000000 1.0
C      1  0.5847690000000  0.4951830000000  0.5523850000000 1.0
C      1  0.5703140000000  0.4489020000000  0.5532030000000 1.0
C      1  0.5321430000000  0.4198010000000  0.5524820000000 1.0
C      1  0.4830690000000  0.4151410000000  0.5521910000000 1.0
C      1  0.4617370000000  0.4909220000000  0.4836840000000 1.0
C      1  0.4479230000000  0.5142190000000  0.4767110000000 1.0
C      1  0.4636630000000  0.5341860000000  0.4873310000000 1.0
C      1  0.4851200000000  0.5385040000000  0.4683650000000 1.0
C      1  0.5125780000000  0.5405770000000  0.4811140000000 1.0
C      1  0.5216540000000  0.5180560000000  0.4665780000000 1.0
C      1  0.5409410000000  0.5029750000000  0.4773980000000 1.0
C      1  0.5404160000000  0.4753500000000  0.4792280000000 1.0
C      1  0.5230720000000  0.4561920000000  0.4677660000000 1.0
C      1  0.5045430000000  0.4478570000000  0.4877180000000 1.0
C      1  0.4937240000000  0.4607660000000  0.4646940000000 1.0
C      1  0.5048090000000  0.4217940000000  0.4396270000000 1.0
C      1  0.4820540000000  0.4403300000000  0.4428110000000 1.0
C      1  0.4383130000000  0.4942010000000  0.4311240000000 1.0
C      1  0.4362990000000  0.5187220000000  0.4479900000000 1.0
C      1  0.4475010000000  0.5463680000000  0.4376680000000 1.0
C      1  0.4764350000000  0.5578850000000  0.4463670000000 1.0
C      1  0.5349920000000  0.5603420000000  0.4287970000000 1.0
C      1  0.5589710000000  0.5463700000000  0.4360540000000 1.0
C      1  0.5656290000000  0.5187770000000  0.4288110000000 1.0
C      1  0.5492720000000  0.4533280000000  0.4289530000000 1.0
C      1  0.5316010000000  0.4351780000000  0.4461190000000 1.0
C      1  0.4592490000000  0.4156390000000  0.5082860000000 1.0
C      1  0.4201550000000  0.4527120000000  0.5080150000000 1.0
C      1  0.4053250000000  0.5044990000000  0.5074580000000 1.0
C      1  0.4198670000000  0.5579180000000  0.5115770000000 1.0
C      1  0.4624170000000  0.5897540000000  0.5092630000000 1.0
C      1  0.5168540000000  0.5954150000000  0.5106440000000 1.0
C      1  0.5639760000000  0.5686400000000  0.5091200000000 1.0
C      1  0.5833660000000  0.5186750000000  0.5101600000000 1.0
C      1  0.5826300000000  0.4685840000000  0.5111690000000 1.0
C      1  0.5599280000000  0.4232850000000  0.5115890000000 1.0
C      1  0.5099850000000  0.4004260000000  0.5153840000000 1.0
C      1  0.4555890000000  0.5206000000000  0.3953950000000 1.0
C      1  0.4621210000000  0.5419830000000  0.4107940000000 1.0
C      1  0.4876140000000  0.5522000000000  0.4186110000000 1.0
C      1  0.5154060000000  0.5458370000000  0.4125380000000 1.0
C      1  0.5268560000000  0.5220490000000  0.4045720000000 1.0
C      1  0.5449520000000  0.5038090000000  0.4136230000000 1.0
C      1  0.5357760000000  0.4757980000000  0.4155850000000 1.0
C      1  0.5078420000000  0.4716770000000  0.4103680000000 1.0
C      1  0.4870760000000  0.4550590000000  0.4177130000000 1.0
C      1  0.4801260000000  0.4789770000000  0.4058820000000 1.0
C      1  0.4569710000000  0.4959640000000  0.4090530000000 1.0
C      1  0.4963880000000  0.5094090000000  0.4581630000000 1.0
C      1  0.5171280000000  0.4985370000000  0.5335290000000 1.0
C      1  0.4929650000000  0.5023750000000  0.5450800000000 1.0
C      1  0.4832280000000  0.4870470000000  0.4667900000000 1.0
END
