TITL C-116622-6071-2 -11.1882673923123 125000 -497.473960224013 0 0 75 (C1) n - 1
REM
REM in /rds/project/t2_vol4/rds-t2-cs072/BORA/CARBON/from-Arr/AIRSS/Generating-Clusters/GAP-ML-2020/Higher-Symm/SD-CG/HFTN-CG
REM
REM
REM
REM
REM
REM ./C.cell (b20cbc046b6831c77cfcea5457e17084)
REM AIRSS Version 0.9.1 bugfix July 2018 build 013d7b7c2542+ Fri, 06 Jul 2018 19:26:36 +0100
REM compiler GCC version 9.3.0
REM options -cpp -mtune=generic -march=x86-64 -g -O0
REM seed -686016042 -2100959410 -2076726816 -82484691 -2094302701 165910084 2028706362 -38615053 1587683020 1581998891 595430876 -808406333 1264718975 -133220129 1391967154 602192882 160249731 2093626846 1679222288 -1507619825 -1675039181 807996615 -286222030 -1200222565 1751821631 -1393841541 -1985285737 -1639758329 -2031041802 778851749 -1029996905 2100098054 -1115319126
REM
CELL 1.54180   50.00000   50.00000   50.00000   90.00000   90.00000   90.00000
LATT -1
SFAC C  
C      1  0.4342690000000  0.4964440000000  0.4531960000000 1.0
C      1  0.4365550000000  0.4809380000000  0.4972680000000 1.0
C      1  0.4559290000000  0.5065100000000  0.5374730000000 1.0
C      1  0.4951210000000  0.4846750000000  0.5602670000000 1.0
C      1  0.5343420000000  0.5104320000000  0.5454090000000 1.0
C      1  0.5600760000000  0.4876730000000  0.5101580000000 1.0
C      1  0.5422360000000  0.5116370000000  0.4727600000000 1.0
C      1  0.5230740000000  0.4981220000000  0.4326420000000 1.0
C      1  0.5176220000000  0.5561320000000  0.4890070000000 1.0
C      1  0.5053070000000  0.4577690000000  0.4658530000000 1.0
C      1  0.4680640000000  0.5401390000000  0.4540140000000 1.0
C      1  0.4710910000000  0.4568760000000  0.4914610000000 1.0
C      1  0.4694290000000  0.5559630000000  0.5219190000000 1.0
C      1  0.4932510000000  0.4552250000000  0.5247380000000 1.0
C      1  0.5139030000000  0.5519120000000  0.5403480000000 1.0
C      1  0.5261670000000  0.4477920000000  0.5049110000000 1.0
C      1  0.5421600000000  0.4902690000000  0.4518700000000 1.0
C      1  0.5038470000000  0.5179890000000  0.4277450000000 1.0
C      1  0.4359880000000  0.4741840000000  0.4676620000000 1.0
C      1  0.4369160000000  0.5062930000000  0.5115960000000 1.0
C      1  0.4646910000000  0.4814170000000  0.5530350000000 1.0
C      1  0.5080100000000  0.5103990000000  0.5630020000000 1.0
C      1  0.5506600000000  0.4865500000000  0.5386370000000 1.0
C      1  0.5599350000000  0.5136330000000  0.4964590000000 1.0
C      1  0.4776410000000  0.4997970000000  0.5181730000000 1.0
C      1  0.4991700000000  0.4832200000000  0.5301080000000 1.0
C      1  0.5175330000000  0.5036630000000  0.5198160000000 1.0
C      1  0.5243810000000  0.4958760000000  0.4923300000000 1.0
C      1  0.5007550000000  0.5119870000000  0.4810610000000 1.0
C      1  0.4960340000000  0.4907620000000  0.4301460000000 1.0
C      1  0.4770510000000  0.4983520000000  0.4706080000000 1.0
C      1  0.4678230000000  0.4863030000000  0.4948640000000 1.0
C      1  0.5402330000000  0.5366150000000  0.5361850000000 1.0
C      1  0.5410100000000  0.4705290000000  0.4936800000000 1.0
C      1  0.5166780000000  0.5335070000000  0.4692760000000 1.0
C      1  0.4844040000000  0.4752620000000  0.4535690000000 1.0
C      1  0.4539640000000  0.5167090000000  0.4643160000000 1.0
C      1  0.4473420000000  0.4560120000000  0.5105660000000 1.0
C      1  0.4683890000000  0.5331330000000  0.5437050000000 1.0
C      1  0.5132750000000  0.4616200000000  0.5639900000000 1.0
C      1  0.4547810000000  0.4144080000000  0.4833570000000 1.0
C      1  0.4703320000000  0.5800600000000  0.5378210000000 1.0
C      1  0.4839650000000  0.4183860000000  0.5508560000000 1.0
C      1  0.5390430000000  0.5940060000000  0.5410540000000 1.0
C      1  0.5493120000000  0.4188400000000  0.5178100000000 1.0
C      1  0.5481860000000  0.5779870000000  0.4713770000000 1.0
C      1  0.5203660000000  0.4186070000000  0.4510570000000 1.0
C      1  0.4774010000000  0.5819720000000  0.4586970000000 1.0
C      1  0.4881450000000  0.5929040000000  0.5506840000000 1.0
C      1  0.5055820000000  0.4376850000000  0.5479880000000 1.0
C      1  0.5487730000000  0.5809770000000  0.5214780000000 1.0
C      1  0.5425350000000  0.4253250000000  0.4920310000000 1.0
C      1  0.5219210000000  0.5778280000000  0.4663080000000 1.0
C      1  0.4968960000000  0.4300720000000  0.4560760000000 1.0
C      1  0.4617960000000  0.5624720000000  0.4702330000000 1.0
C      1  0.4503220000000  0.4264640000000  0.5084250000000 1.0
C      1  0.5337760000000  0.4378110000000  0.5341030000000 1.0
C      1  0.5478060000000  0.5638840000000  0.4991630000000 1.0
C      1  0.5414650000000  0.4319960000000  0.4647640000000 1.0
C      1  0.5010800000000  0.5721270000000  0.4479140000000 1.0
C      1  0.4676930000000  0.4282910000000  0.4619510000000 1.0
C      1  0.4533140000000  0.5524000000000  0.4968340000000 1.0
C      1  0.4616870000000  0.4263000000000  0.5365420000000 1.0
C      1  0.5144650000000  0.5806170000000  0.5469100000000 1.0
C      1  0.4947900000000  0.5332570000000  0.5547110000000 1.0
C      1  0.5396670000000  0.4630640000000  0.5502420000000 1.0
C      1  0.5549920000000  0.5378030000000  0.5114180000000 1.0
C      1  0.5363320000000  0.4631990000000  0.4653700000000 1.0
C      1  0.4973080000000  0.5410570000000  0.4455060000000 1.0
C      1  0.4613380000000  0.4567790000000  0.4628980000000 1.0
C      1  0.4433100000000  0.5266880000000  0.4922090000000 1.0
C      1  0.4623530000000  0.4576850000000  0.5359710000000 1.0
C      1  0.4996800000000  0.5502730000000  0.5134190000000 1.0
C      1  0.4987680000000  0.4480320000000  0.4943590000000 1.0
C      1  0.4958090000000  0.5206670000000  0.5081990000000 1.0
END
