TITL C-110350-4428-7 -0.00187198233316421 125000 -400.867465131369 0 0 59 (C1) n - 1
REM
REM in /rds/project/t2_vol4/rds-t2-cs072/BORA/CARBON/from-Arr/AIRSS/Generating-Clusters/GAP-ML-2020/Higher-Symm/SD-CG/HFTN-CG
REM
REM
REM
REM
REM
REM ./C.cell (b20cbc046b6831c77cfcea5457e17084)
REM AIRSS Version 0.9.1 bugfix July 2018 build 013d7b7c2542+ Fri, 06 Jul 2018 19:26:36 +0100
REM compiler GCC version 9.3.0
REM options -cpp -mtune=generic -march=x86-64 -g -O0
REM seed -817543287 -688290528 -1757732210 1235279486 -1038631613 -1849506255 -1726829715 -378816114 -1519665421 2131636452 -1141779839 805375320 -1624278492 -1360223324 -1012154864 1304880028 -35823807 -339938656 -747413980 637561469 2073039723 -1648322288 1957052007 -1827710561 -1293781139 1404802337 -949189525 -819180474 142030173 1556179974 39201052 -808225011 -819520801
REM
CELL 1.54180   50.00000   50.00000   50.00000   90.00000   90.00000   90.00000
LATT -1
SFAC C  
C      1  0.4960430000000  0.5100700000000  0.4572350000000 1.0
C      1  0.4955480000000  0.5236880000000  0.4842880000000 1.0
C      1  0.5121000000000  0.5458240000000  0.4894350000000 1.0
C      1  0.5158370000000  0.5576180000000  0.5152020000000 1.0
C      1  0.5155760000000  0.5427570000000  0.5410140000000 1.0
C      1  0.5111220000000  0.5148150000000  0.5442420000000 1.0
C      1  0.4873060000000  0.4717360000000  0.5356160000000 1.0
C      1  0.5081190000000  0.4549010000000  0.5225480000000 1.0
C      1  0.5101280000000  0.4441880000000  0.4966260000000 1.0
C      1  0.5088250000000  0.4553020000000  0.4683010000000 1.0
C      1  0.5087640000000  0.4808620000000  0.4570020000000 1.0
C      1  0.4586330000000  0.5373720000000  0.4390590000000 1.0
C      1  0.4503580000000  0.5793880000000  0.4648190000000 1.0
C      1  0.4570310000000  0.5939090000000  0.5128770000000 1.0
C      1  0.4570490000000  0.5737300000000  0.5596080000000 1.0
C      1  0.4487080000000  0.5290020000000  0.5816260000000 1.0
C      1  0.4533010000000  0.4806850000000  0.5685980000000 1.0
C      1  0.4571870000000  0.4363770000000  0.5477370000000 1.0
C      1  0.4446370000000  0.4052860000000  0.5113010000000 1.0
C      1  0.4424140000000  0.4095610000000  0.4610570000000 1.0
C      1  0.4499220000000  0.4438490000000  0.4247050000000 1.0
C      1  0.4646230000000  0.4915830000000  0.4238160000000 1.0
C      1  0.5680950000000  0.5301440000000  0.4604650000000 1.0
C      1  0.5624310000000  0.5484280000000  0.4832650000000 1.0
C      1  0.5663510000000  0.5515910000000  0.5105840000000 1.0
C      1  0.5660870000000  0.5348880000000  0.5365370000000 1.0
C      1  0.5619450000000  0.5083750000000  0.5446790000000 1.0
C      1  0.5667520000000  0.4803000000000  0.5398750000000 1.0
C      1  0.5594660000000  0.4589540000000  0.5215460000000 1.0
C      1  0.5602960000000  0.4477320000000  0.4956400000000 1.0
C      1  0.5589290000000  0.4578010000000  0.4671130000000 1.0
C      1  0.5591860000000  0.4833350000000  0.4539980000000 1.0
C      1  0.5769050000000  0.5052350000000  0.4576670000000 1.0
C      1  0.5351750000000  0.4420010000000  0.4630780000000 1.0
C      1  0.5327380000000  0.4911050000000  0.4449010000000 1.0
C      1  0.5236800000000  0.5178920000000  0.4416050000000 1.0
C      1  0.5412460000000  0.5373820000000  0.4488630000000 1.0
C      1  0.5351370000000  0.5518670000000  0.4725200000000 1.0
C      1  0.5431850000000  0.5668270000000  0.5215630000000 1.0
C      1  0.5432430000000  0.5518110000000  0.5457740000000 1.0
C      1  0.5346160000000  0.5019790000000  0.5559000000000 1.0
C      1  0.5404340000000  0.4749060000000  0.5544210000000 1.0
C      1  0.5334020000000  0.4556120000000  0.5358080000000 1.0
C      1  0.5359660000000  0.4315570000000  0.4899180000000 1.0
C      1  0.4572150000000  0.4681610000000  0.4187700000000 1.0
C      1  0.4726350000000  0.5136580000000  0.4376460000000 1.0
C      1  0.4511670000000  0.5600550000000  0.4470310000000 1.0
C      1  0.4536860000000  0.5905290000000  0.4873680000000 1.0
C      1  0.4581640000000  0.5873570000000  0.5378140000000 1.0
C      1  0.4531540000000  0.5529010000000  0.5747180000000 1.0
C      1  0.4475970000000  0.5027550000000  0.5786890000000 1.0
C      1  0.4664820000000  0.4621570000000  0.5522150000000 1.0
C      1  0.4494340000000  0.4165780000000  0.5345340000000 1.0
C      1  0.4422400000000  0.4032450000000  0.4861200000000 1.0
C      1  0.4450280000000  0.4239810000000  0.4398590000000 1.0
C      1  0.4916880000000  0.5003330000000  0.5298310000000 1.0
C      1  0.4376170000000  0.4811480000000  0.4965160000000 1.0
C      1  0.4816710000000  0.5081770000000  0.5041130000000 1.0
C      1  0.4580880000000  0.4957770000000  0.4974710000000 1.0
END
