TITL C-114841-6426-3 -218.494377144064 125000 -568.744177677784 0 0 83 (C1) n - 1
REM
REM in /rds/project/t2_vol4/rds-t2-cs072/BORA/CARBON/from-Arr/AIRSS/Generating-Clusters/GAP-ML-2020/Higher-Symm/SD-CG/HFTN-CG
REM
REM
REM
REM
REM
REM ./C.cell (b20cbc046b6831c77cfcea5457e17084)
REM AIRSS Version 0.9.1 bugfix July 2018 build 013d7b7c2542+ Fri, 06 Jul 2018 19:26:36 +0100
REM compiler GCC version 9.3.0
REM options -cpp -mtune=generic -march=x86-64 -g -O0
REM seed 1747688588 -1313547609 1700402345 -1014195493 1819838986 1813080120 1789371393 -561527462 609794073 -770287458 -1769233991 -96855829 -1874327859 -1030547483 -37037072 1219576158 -789083605 1316439878 -1884611890 -330630823 1974050656 1568822453 368205926 -250470377 -1979861161 -900269450 938708436 -182078950 138174282 -752822507 842977841 205079465 1006824696
REM
CELL 1.54180   50.00000   50.00000   50.00000   90.00000   90.00000   90.00000
LATT -1
SFAC C  
C      1  0.4704550000000  0.5363370000000  0.5053710000000 1.0
C      1  0.4871480000000  0.4568410000000  0.5148830000000 1.0
C      1  0.4979690000000  0.5409660000000  0.5168570000000 1.0
C      1  0.5125260000000  0.4457400000000  0.5243300000000 1.0
C      1  0.4656350000000  0.5613000000000  0.4853570000000 1.0
C      1  0.4726410000000  0.4423260000000  0.4922600000000 1.0
C      1  0.4913830000000  0.4409370000000  0.4680690000000 1.0
C      1  0.4896420000000  0.5600760000000  0.4651850000000 1.0
C      1  0.5227590000000  0.5213620000000  0.5212770000000 1.0
C      1  0.5314510000000  0.4698490000000  0.5278720000000 1.0
C      1  0.5869150000000  0.5181590000000  0.5001000000000 1.0
C      1  0.5920620000000  0.4724410000000  0.4876520000000 1.0
C      1  0.5398630000000  0.5512460000000  0.4634130000000 1.0
C      1  0.5392510000000  0.4427790000000  0.4565340000000 1.0
C      1  0.4593500000000  0.5332530000000  0.5551520000000 1.0
C      1  0.4635550000000  0.4710690000000  0.5577950000000 1.0
C      1  0.5350670000000  0.5077510000000  0.4982270000000 1.0
C      1  0.5371650000000  0.4798010000000  0.5007040000000 1.0
C      1  0.4414820000000  0.4747440000000  0.5101670000000 1.0
C      1  0.4193880000000  0.5371310000000  0.4821670000000 1.0
C      1  0.4394870000000  0.5521920000000  0.4711720000000 1.0
C      1  0.4480940000000  0.4589040000000  0.4876350000000 1.0
C      1  0.4700660000000  0.5082100000000  0.4184940000000 1.0
C      1  0.4549040000000  0.4861790000000  0.4204710000000 1.0
C      1  0.5241720000000  0.4290590000000  0.5024060000000 1.0
C      1  0.5131530000000  0.5637230000000  0.5035020000000 1.0
C      1  0.5627810000000  0.5450340000000  0.4788210000000 1.0
C      1  0.5658010000000  0.4498270000000  0.4647600000000 1.0
C      1  0.4744980000000  0.5779350000000  0.5309870000000 1.0
C      1  0.4775820000000  0.4158190000000  0.5349830000000 1.0
C      1  0.4424030000000  0.5142930000000  0.5704160000000 1.0
C      1  0.4579970000000  0.4915600000000  0.5775220000000 1.0
C      1  0.5050800000000  0.4750020000000  0.4331620000000 1.0
C      1  0.5088670000000  0.5288600000000  0.4326270000000 1.0
C      1  0.4656190000000  0.5813790000000  0.5073660000000 1.0
C      1  0.4689980000000  0.4181630000000  0.5108410000000 1.0
C      1  0.4949080000000  0.5592690000000  0.5420310000000 1.0
C      1  0.4953420000000  0.4356060000000  0.5459440000000 1.0
C      1  0.5209770000000  0.5716970000000  0.5322520000000 1.0
C      1  0.5487930000000  0.4210250000000  0.5103510000000 1.0
C      1  0.4637230000000  0.4735510000000  0.5292820000000 1.0
C      1  0.4508080000000  0.5325340000000  0.5285580000000 1.0
C      1  0.4641050000000  0.5353300000000  0.4295280000000 1.0
C      1  0.4584750000000  0.4665790000000  0.4405140000000 1.0
C      1  0.5800680000000  0.4762280000000  0.4616210000000 1.0
C      1  0.5807060000000  0.5231670000000  0.4721130000000 1.0
C      1  0.4444710000000  0.5367760000000  0.4485040000000 1.0
C      1  0.4400410000000  0.4687760000000  0.4628790000000 1.0
C      1  0.5455790000000  0.5654940000000  0.5407520000000 1.0
C      1  0.5665030000000  0.4406210000000  0.5145860000000 1.0
C      1  0.4853670000000  0.5406960000000  0.5629900000000 1.0
C      1  0.4876220000000  0.4554560000000  0.5652450000000 1.0
C      1  0.4977350000000  0.5186550000000  0.5765130000000 1.0
C      1  0.5016170000000  0.4749650000000  0.5802100000000 1.0
C      1  0.5613990000000  0.4629240000000  0.5336110000000 1.0
C      1  0.5486710000000  0.5405980000000  0.5278930000000 1.0
C      1  0.5793740000000  0.4464770000000  0.4902590000000 1.0
C      1  0.5686140000000  0.5398180000000  0.5074700000000 1.0
C      1  0.5296530000000  0.4879750000000  0.4523970000000 1.0
C      1  0.5484600000000  0.5077510000000  0.4419590000000 1.0
C      1  0.5160360000000  0.5624560000000  0.4754890000000 1.0
C      1  0.5178660000000  0.4344910000000  0.4745340000000 1.0
C      1  0.4849090000000  0.4574290000000  0.4453660000000 1.0
C      1  0.4879430000000  0.5465520000000  0.4401250000000 1.0
C      1  0.5309750000000  0.4630020000000  0.4388700000000 1.0
C      1  0.5356550000000  0.5330830000000  0.4416010000000 1.0
C      1  0.4304280000000  0.4956240000000  0.4630810000000 1.0
C      1  0.4910340000000  0.4959380000000  0.4908400000000 1.0
C      1  0.4233540000000  0.4965580000000  0.5086860000000 1.0
C      1  0.5185590000000  0.4915390000000  0.4816970000000 1.0
C      1  0.5736520000000  0.5028190000000  0.4539960000000 1.0
C      1  0.4980080000000  0.5029360000000  0.4239250000000 1.0
C      1  0.4891240000000  0.4868110000000  0.5188940000000 1.0
C      1  0.4191790000000  0.5119550000000  0.5563470000000 1.0
C      1  0.5154970000000  0.4940360000000  0.5362520000000 1.0
C      1  0.4535970000000  0.5127420000000  0.4625760000000 1.0
C      1  0.5825390000000  0.4796120000000  0.5331100000000 1.0
C      1  0.4266260000000  0.5156660000000  0.5298360000000 1.0
C      1  0.4169630000000  0.5092440000000  0.4839250000000 1.0
C      1  0.4834170000000  0.4971470000000  0.5888030000000 1.0
C      1  0.5919360000000  0.4916350000000  0.5089450000000 1.0
C      1  0.4724760000000  0.5154540000000  0.4846520000000 1.0
C      1  0.5145720000000  0.4971850000000  0.5658930000000 1.0
END
