TITL C-116614-6039-7 0.000195788474707824 125000 -29.795980989042 0 0 5 (D(inf)h) n - 1
REM
REM in /rds/project/t2_vol4/rds-t2-cs072/BORA/CARBON/from-Arr/AIRSS/Generating-Clusters/GAP-ML-2020/Higher-Symm/SD-CG/HFTN-CG
REM
REM
REM
REM
REM
REM ./C.cell (b20cbc046b6831c77cfcea5457e17084)
REM AIRSS Version 0.9.1 bugfix July 2018 build 013d7b7c2542+ Fri, 06 Jul 2018 19:26:36 +0100
REM compiler GCC version 9.3.0
REM options -cpp -mtune=generic -march=x86-64 -g -O0
REM seed 1438365458 -42837049 1046698334 1361359901 1363361261 100373055 -769707368 -461463117 298252831 148079451 1226719436 -238438040 1817884858 1170993550 -944690450 -1118099186 9457546 1100233715 -373253622 1880442535 -1166217465 1524336581 -1245394128 1572807049 -97639087 -884434669 975746039 -1713088408 -319177493 -1012646513 -72996287 601663519 2009474188
REM
CELL 1.54180   50.00000   50.00000   50.00000   90.00000   90.00000   90.00000
LATT -1
SFAC C  
C      1  0.4741540000000  0.5012090000000  0.4986920000000 1.0
C      1  0.5258460000000  0.5012090000000  0.4986920000000 1.0
C      1  0.5517070000000  0.5012090000000  0.4986920000000 1.0
C      1  0.5000000000000  0.5012090000000  0.4986920000000 1.0
C      1  0.4482930000000  0.5012090000000  0.4986920000000 1.0
END
