TITL C-114846-6509-5 -98.6961754383282 125000 -1315.5690235978 0 0 191 (C3) n - 1
REM
REM in /rds/project/t2_vol4/rds-t2-cs072/BORA/CARBON/from-Arr/AIRSS/Generating-Clusters/GAP-ML-2020/Higher-Symm/SD-CG/HFTN-CG
REM
REM
REM
REM
REM
REM ./C.cell (b20cbc046b6831c77cfcea5457e17084)
REM AIRSS Version 0.9.1 bugfix July 2018 build 013d7b7c2542+ Fri, 06 Jul 2018 19:26:36 +0100
REM compiler GCC version 9.3.0
REM options -cpp -mtune=generic -march=x86-64 -g -O0
REM seed -1897976736 -1450625282 -1917239932 -1271663697 1056814575 1257100946 1458580468 -250235673 179634343 -971114261 -1982197499 1124220961 1055420148 708800627 -867965554 -131462051 -1158423014 -1235579968 747120237 -1299573158 1728802298 1856124787 -1504375714 1428386405 681565389 553804725 754866612 230043177 634583417 -652555773 949292271 -1951939178 -31884657
REM
CELL 1.54180   50.00000   50.00000   50.00000   90.00000   90.00000   90.00000
LATT -1
SFAC C  
C      1  0.4892420000000  0.4903980000000  0.4739310000000 1.0
C      1  0.5281950000000  0.4903970000000  0.5032620000000 1.0
C      1  0.4833170000000  0.4903980000000  0.5223310000000 1.0
C      1  0.5654630000000  0.4298210000000  0.4366320000000 1.0
C      1  0.5223840000000  0.4298200000000  0.5879210000000 1.0
C      1  0.4129040000000  0.4298230000000  0.4749690000000 1.0
C      1  0.5735540000000  0.4812440000000  0.5292330000000 1.0
C      1  0.4381460000000  0.4812460000000  0.5486270000000 1.0
C      1  0.4890540000000  0.4812470000000  0.4216640000000 1.0
C      1  0.6070520000000  0.5478660000000  0.4859220000000 1.0
C      1  0.4589080000000  0.5478670000000  0.5992930000000 1.0
C      1  0.4347970000000  0.5478690000000  0.4143110000000 1.0
C      1  0.4954080000000  0.5261990000000  0.5525350000000 1.0
C      1  0.4570400000000  0.5262000000000  0.4693000000000 1.0
C      1  0.5483070000000  0.5261990000000  0.4776910000000 1.0
C      1  0.5453340000000  0.5748380000000  0.4872350000000 1.0
C      1  0.4886310000000  0.5748380000000  0.5451880000000 1.0
C      1  0.4667930000000  0.5748390000000  0.4671050000000 1.0
C      1  0.4204840000000  0.5484400000000  0.5522950000000 1.0
C      1  0.4947110000000  0.5484410000000  0.4045340000000 1.0
C      1  0.5855620000000  0.5484380000000  0.5426970000000 1.0
C      1  0.5299190000000  0.4614920000000  0.4415060000000 1.0
C      1  0.5359360000000  0.4614900000000  0.5547020000000 1.0
C      1  0.4348980000000  0.4614920000000  0.5033150000000 1.0
C      1  0.4157840000000  0.4400130000000  0.4502650000000 1.0
C      1  0.5854180000000  0.4400100000000  0.4514790000000 1.0
C      1  0.4995490000000  0.4400100000000  0.5977790000000 1.0
C      1  0.5822000000000  0.4448790000000  0.5559270000000 1.0
C      1  0.4107040000000  0.4448820000000  0.5427680000000 1.0
C      1  0.5078480000000  0.4448820000000  0.4008280000000 1.0
C      1  0.4572540000000  0.5499490000000  0.4845390000000 1.0
C      1  0.5350040000000  0.5499480000000  0.4702560000000 1.0
C      1  0.5084980000000  0.5499480000000  0.5447310000000 1.0
C      1  0.5952520000000  0.5205010000000  0.4486980000000 1.0
C      1  0.4970430000000  0.5205010000000  0.6076860000000 1.0
C      1  0.4084600000000  0.5205040000000  0.4431410000000 1.0
C      1  0.4427560000000  0.4919820000000  0.4989920000000 1.0
C      1  0.5297350000000  0.4919810000000  0.4504740000000 1.0
C      1  0.5282630000000  0.4919800000000  0.5500590000000 1.0
C      1  0.4159870000000  0.5006710000000  0.5385160000000 1.0
C      1  0.5088910000000  0.5006710000000  0.4075290000000 1.0
C      1  0.5758770000000  0.5006680000000  0.5534800000000 1.0
C      1  0.4875510000000  0.5205630000000  0.4729250000000 1.0
C      1  0.5299130000000  0.5205620000000  0.5023010000000 1.0
C      1  0.4832910000000  0.5205620000000  0.5242990000000 1.0
C      1  0.4361060000000  0.4030820000000  0.5091100000000 1.0
C      1  0.5242950000000  0.4030810000000  0.4396550000000 1.0
C      1  0.5403500000000  0.4030800000000  0.5507560000000 1.0
C      1  0.4452630000000  0.5794890000000  0.4464870000000 1.0
C      1  0.5739550000000  0.5794870000000  0.4788980000000 1.0
C      1  0.4815400000000  0.5794880000000  0.5741430000000 1.0
C      1  0.4862180000000  0.4074620000000  0.5102950000000 1.0
C      1  0.4982120000000  0.4074620000000  0.4824610000000 1.0
C      1  0.5163200000000  0.4074610000000  0.5067660000000 1.0
C      1  0.5503960000000  0.5573940000000  0.5821500000000 1.0
C      1  0.4039000000000  0.5573970000000  0.5021140000000 1.0
C      1  0.5464610000000  0.5573960000000  0.4152630000000 1.0
C      1  0.4635080000000  0.5073230000000  0.3944620000000 1.0
C      1  0.6098850000000  0.5073190000000  0.5207110000000 1.0
C      1  0.4273620000000  0.5073210000000  0.5843530000000 1.0
C      1  0.5604430000000  0.4907300000000  0.5049580000000 1.0
C      1  0.4657250000000  0.4907310000000  0.5494100000000 1.0
C      1  0.4745870000000  0.4907310000000  0.4451560000000 1.0
C      1  0.4896600000000  0.4377520000000  0.4480970000000 1.0
C      1  0.5503570000000  0.4377500000000  0.5165410000000 1.0
C      1  0.4607340000000  0.4377520000000  0.5348850000000 1.0
C      1  0.5468530000000  0.5281280000000  0.4199240000000 1.0
C      1  0.5461620000000  0.5281260000000  0.5801590000000 1.0
C      1  0.4077400000000  0.5281290000000  0.4994430000000 1.0
C      1  0.5974940000000  0.5199510000000  0.5434950000000 1.0
C      1  0.4138260000000  0.5199530000000  0.5622290000000 1.0
C      1  0.4894350000000  0.5199540000000  0.3938010000000 1.0
C      1  0.5574560000000  0.4080240000000  0.5283740000000 1.0
C      1  0.4469370000000  0.4080260000000  0.5351160000000 1.0
C      1  0.4963580000000  0.4080260000000  0.4360330000000 1.0
C      1  0.5549060000000  0.4395590000000  0.4861290000000 1.0
C      1  0.4847980000000  0.4395590000000  0.5540300000000 1.0
C      1  0.4610480000000  0.4395610000000  0.4593640000000 1.0
C      1  0.5282550000000  0.5763600000000  0.5877190000000 1.0
C      1  0.4101480000000  0.5763630000000  0.4801550000000 1.0
C      1  0.5623550000000  0.5763610000000  0.4316530000000 1.0
C      1  0.4625310000000  0.5624780000000  0.5313850000000 1.0
C      1  0.4917960000000  0.5624780000000  0.4514030000000 1.0
C      1  0.5464300000000  0.5624770000000  0.5167380000000 1.0
C      1  0.5692880000000  0.4865860000000  0.5814620000000 1.0
C      1  0.3950480000000  0.4865890000000  0.5188190000000 1.0
C      1  0.5364180000000  0.4865890000000  0.3992440000000 1.0
C      1  0.5505400000000  0.5030550000000  0.5956280000000 1.0
C      1  0.3921540000000  0.5030580000000  0.4954990000000 1.0
C      1  0.5580600000000  0.5030570000000  0.4083980000000 1.0
C      1  0.5056440000000  0.5950760000000  0.5293490000000 1.0
C      1  0.4720040000000  0.5950770000000  0.4897580000000 1.0
C      1  0.5231110000000  0.5950770000000  0.4804200000000 1.0
C      1  0.4295790000000  0.4347080000000  0.5779050000000 1.0
C      1  0.4679810000000  0.4347090000000  0.3996050000000 1.0
C      1  0.6031920000000  0.4347060000000  0.5220120000000 1.0
C      1  0.4263940000000  0.5044260000000  0.4275360000000 1.0
C      1  0.5997990000000  0.5044230000000  0.4720320000000 1.0
C      1  0.4745620000000  0.5044230000000  0.5999570000000 1.0
C      1  0.6064060000000  0.4556380000000  0.5420820000000 1.0
C      1  0.4105920000000  0.4556400000000  0.5706540000000 1.0
C      1  0.4837550000000  0.4556410000000  0.3867880000000 1.0
C      1  0.3950260000000  0.4576030000000  0.5197250000000 1.0
C      1  0.5356440000000  0.4576020000000  0.3987710000000 1.0
C      1  0.5700830000000  0.4576000000000  0.5810270000000 1.0
C      1  0.4943560000000  0.5363390000000  0.4334410000000 1.0
C      1  0.5607050000000  0.5363370000000  0.5279370000000 1.0
C      1  0.4456950000000  0.5363390000000  0.5381480000000 1.0
C      1  0.6024760000000  0.4771720000000  0.5212000000000 1.0
C      1  0.4306420000000  0.4771740000000  0.5776910000000 1.0
C      1  0.4676360000000  0.4771750000000  0.4006330000000 1.0
C      1  0.4251940000000  0.4192960000000  0.5537360000000 1.0
C      1  0.4911040000000  0.4192970000000  0.4078920000000 1.0
C      1  0.5844540000000  0.4192940000000  0.5378940000000 1.0
C      1  0.4526680000000  0.5707440000000  0.4199140000000 1.0
C      1  0.5932640000000  0.5707410000000  0.4985970000000 1.0
C      1  0.4548250000000  0.5707420000000  0.5810150000000 1.0
C      1  0.4187200000000  0.5700030000000  0.4531290000000 1.0
C      1  0.5814740000000  0.5700000000000  0.4525900000000 1.0
C      1  0.5005640000000  0.5700000000000  0.5938080000000 1.0
C      1  0.4487600000000  0.4541520000000  0.5870680000000 1.0
C      1  0.4504560000000  0.4541530000000  0.4116360000000 1.0
C      1  0.6015370000000  0.4541500000000  0.5008200000000 1.0
C      1  0.4335930000000  0.4087670000000  0.4828150000000 1.0
C      1  0.5483230000000  0.4087660000000  0.4506270000000 1.0
C      1  0.5188340000000  0.4087650000000  0.5660800000000 1.0
C      1  0.4745620000000  0.5474060000000  0.5088060000000 1.0
C      1  0.5053350000000  0.5474060000000  0.4731120000000 1.0
C      1  0.5208600000000  0.5474050000000  0.5176090000000 1.0
C      1  0.5281460000000  0.5975150000000  0.5700210000000 1.0
C      1  0.4255300000000  0.5975170000000  0.4889090000000 1.0
C      1  0.5470830000000  0.5975160000000  0.4405970000000 1.0
C      1  0.4143130000000  0.5645010000000  0.5272320000000 1.0
C      1  0.5195010000000  0.5645010000000  0.4117220000000 1.0
C      1  0.5669420000000  0.5644990000000  0.5605730000000 1.0
C      1  0.4740030000000  0.5203820000000  0.4462470000000 1.0
C      1  0.5597910000000  0.5203800000000  0.5039080000000 1.0
C      1  0.4669610000000  0.5203810000000  0.5493710000000 1.0
C      1  0.5109160000000  0.4516260000000  0.5386520000000 1.0
C      1  0.4613070000000  0.4516270000000  0.4896720000000 1.0
C      1  0.5285290000000  0.4516260000000  0.4712000000000 1.0
C      1  0.5074910000000  0.5017900000000  0.5685340000000 1.0
C      1  0.4371420000000  0.5017920000000  0.4717650000000 1.0
C      1  0.5561210000000  0.5017910000000  0.4592260000000 1.0
C      1  0.5580630000000  0.5813100000000  0.5374860000000 1.0
C      1  0.4387480000000  0.5813120000000  0.5310860000000 1.0
C      1  0.5039480000000  0.5813120000000  0.4309560000000 1.0
C      1  0.5032030000000  0.4565220000000  0.4291670000000 1.0
C      1  0.5599810000000  0.4565200000000  0.5377350000000 1.0
C      1  0.4375690000000  0.4565220000000  0.5326220000000 1.0
C      1  0.5878590000000  0.5730790000000  0.5257850000000 1.0
C      1  0.4339820000000  0.5730810000000  0.5627400000000 1.0
C      1  0.4789170000000  0.5730820000000  0.4110020000000 1.0
C      1  0.4499090000000  0.5198380000000  0.5980640000000 1.0
C      1  0.4403600000000  0.5198400000000  0.4071330000000 1.0
C      1  0.6104860000000  0.5198360000000  0.4943280000000 1.0
C      1  0.5175390000000  0.4809550000000  0.4769070000000 1.0
C      1  0.5114700000000  0.4809540000000  0.5262800000000 1.0
C      1  0.4717450000000  0.4809550000000  0.4963370000000 1.0
C      1  0.5491100000000  0.4487030000000  0.4227770000000 1.0
C      1  0.5425610000000  0.4487010000000  0.5806860000000 1.0
C      1  0.4090820000000  0.4487040000000  0.4960600000000 1.0
C      1  0.5053960000000  0.4343040000000  0.4719140000000 1.0
C      1  0.5218630000000  0.4343030000000  0.5182610000000 1.0
C      1  0.4734920000000  0.4343040000000  0.5093480000000 1.0
C      1  0.4471980000000  0.5983990000000  0.5051210000000 1.0
C      1  0.5222090000000  0.5983990000000  0.4512570000000 1.0
C      1  0.5313510000000  0.5983980000000  0.5431500000000 1.0
C      1  0.4395460000000  0.4538510000000  0.4405450000000 1.0
C      1  0.5819550000000  0.4538490000000  0.4769170000000 1.0
C      1  0.4792520000000  0.4538500000000  0.5820610000000 1.0
C      1  0.5500730000000  0.5164460000000  0.5514410000000 1.0
C      1  0.4306550000000  0.5164480000000  0.5171890000000 1.0
C      1  0.5200270000000  0.5164480000000  0.4308960000000 1.0
C      1  0.4429170000000  0.4853610000000  0.4461290000000 1.0
C      1  0.5754350000000  0.4853590000000  0.4770450000000 1.0
C      1  0.4824020000000  0.4853600000000  0.5763510000000 1.0
C      1  0.5540240000000  0.4099470000000  0.4790290000000 1.0
C      1  0.4913860000000  0.4099480000000  0.5568160000000 1.0
C      1  0.4553400000000  0.4099490000000  0.4636770000000 1.0
C      1  0.4800460000000  0.3969110000000  0.4603670000000 1.0
C      1  0.5445370000000  0.3969100000000  0.5020800000000 1.0
C      1  0.4761670000000  0.3969110000000  0.5370750000000 1.0
C      1  0.5221430000000  0.5118580000000  0.5931610000000 1.0
C      1  0.4084890000000  0.5118610000000  0.4721410000000 1.0
C      1  0.5701230000000  0.5118590000000  0.4342230000000 1.0
C      1  0.5996350000000  0.5479260000000  0.4576080000000 1.0
C      1  0.4871370000000  0.5479270000000  0.6070270000000 1.0
C      1  0.4139850000000  0.5479290000000  0.4348910000000 1.0
C      1  0.5002520000000  0.5587120000000  0.4998420000000 1.0
C      1  0.5002530000000  0.5916340000000  0.4998430000000 1.0
END
