TITL C-110351-4962-5 -2081.34333414779 125000 -409.304006095563 0 0 61 (C1) n - 1
REM
REM in /rds/project/t2_vol4/rds-t2-cs072/BORA/CARBON/from-Arr/AIRSS/Generating-Clusters/GAP-ML-2020/Higher-Symm/SD-CG/HFTN-CG
REM
REM
REM
REM
REM
REM ./C.cell (b20cbc046b6831c77cfcea5457e17084)
REM AIRSS Version 0.9.1 bugfix July 2018 build 013d7b7c2542+ Fri, 06 Jul 2018 19:26:36 +0100
REM compiler GCC version 9.3.0
REM options -cpp -mtune=generic -march=x86-64 -g -O0
REM seed 1506916970 229261700 -303354553 745429312 -581680337 723698971 -1074275860 540936816 -414059709 668510985 568771087 -1192853536 -1472888113 239546696 612212378 -1364910826 -2088429290 -1953002911 -1543397015 -1887821143 960967291 -371305554 -1262560575 -781851373 -1418932190 1298054092 1626168217 1463748002 -1130920806 -1370288443 -959500028 -298129512 488301748
REM
CELL 1.54180   50.00000   50.00000   50.00000   90.00000   90.00000   90.00000
LATT -1
SFAC C  
C      1  0.4718070000000  0.4532930000000  0.4860890000000 1.0
C      1  0.4743980000000  0.5485360000000  0.4912100000000 1.0
C      1  0.5566670000000  0.4965620000000  0.4889780000000 1.0
C      1  0.5314630000000  0.4536160000000  0.4915340000000 1.0
C      1  0.5244400000000  0.5450400000000  0.4846960000000 1.0
C      1  0.4460660000000  0.4998120000000  0.4866720000000 1.0
C      1  0.4881770000000  0.4289060000000  0.4926340000000 1.0
C      1  0.4460420000000  0.5494820000000  0.4973890000000 1.0
C      1  0.5705010000000  0.5221840000000  0.4879110000000 1.0
C      1  0.5173850000000  0.4280030000000  0.4939590000000 1.0
C      1  0.5541350000000  0.5457780000000  0.4851190000000 1.0
C      1  0.4321600000000  0.5248090000000  0.4940330000000 1.0
C      1  0.5335400000000  0.4632720000000  0.4641460000000 1.0
C      1  0.4542770000000  0.4912980000000  0.4602570000000 1.0
C      1  0.5086180000000  0.5395520000000  0.4608250000000 1.0
C      1  0.4696110000000  0.4677480000000  0.4607910000000 1.0
C      1  0.5471750000000  0.4879680000000  0.4632330000000 1.0
C      1  0.4815600000000  0.5462960000000  0.4636680000000 1.0
C      1  0.5406460000000  0.4914040000000  0.5606640000000 1.0
C      1  0.4573350000000  0.4560250000000  0.5434940000000 1.0
C      1  0.4868630000000  0.5464640000000  0.5577580000000 1.0
C      1  0.4473500000000  0.4815370000000  0.5510500000000 1.0
C      1  0.5235340000000  0.4731860000000  0.5649880000000 1.0
C      1  0.5131910000000  0.5464330000000  0.5573330000000 1.0
C      1  0.4865800000000  0.5230640000000  0.5091510000000 1.0
C      1  0.5305200000000  0.4997470000000  0.5091320000000 1.0
C      1  0.4860040000000  0.4719240000000  0.5061750000000 1.0
C      1  0.5157420000000  0.5241080000000  0.5076350000000 1.0
C      1  0.4716130000000  0.4973470000000  0.5072570000000 1.0
C      1  0.5155050000000  0.4744640000000  0.5096120000000 1.0
C      1  0.5790020000000  0.5287530000000  0.5147850000000 1.0
C      1  0.4901500000000  0.4256160000000  0.5214850000000 1.0
C      1  0.4439110000000  0.5493500000000  0.5263130000000 1.0
C      1  0.4275100000000  0.5240240000000  0.5227330000000 1.0
C      1  0.5197200000000  0.4213200000000  0.5212080000000 1.0
C      1  0.5631220000000  0.5533770000000  0.5116600000000 1.0
C      1  0.4921330000000  0.4725510000000  0.4436340000000 1.0
C      1  0.4622560000000  0.5366930000000  0.4461840000000 1.0
C      1  0.5391640000000  0.5072460000000  0.4463380000000 1.0
C      1  0.5141590000000  0.4571990000000  0.4459380000000 1.0
C      1  0.5141900000000  0.5172780000000  0.4434640000000 1.0
C      1  0.4662610000000  0.5101970000000  0.4422530000000 1.0
C      1  0.5682920000000  0.4797190000000  0.5112390000000 1.0
C      1  0.4455220000000  0.4553330000000  0.5022730000000 1.0
C      1  0.4884540000000  0.5649450000000  0.5110330000000 1.0
C      1  0.4327830000000  0.4802550000000  0.5034020000000 1.0
C      1  0.5528950000000  0.4565160000000  0.5138570000000 1.0
C      1  0.5158920000000  0.5658390000000  0.5061190000000 1.0
C      1  0.5294320000000  0.5354610000000  0.5370240000000 1.0
C      1  0.5139680000000  0.4614490000000  0.5403820000000 1.0
C      1  0.4605250000000  0.5020260000000  0.5366140000000 1.0
C      1  0.4752760000000  0.5273480000000  0.5377220000000 1.0
C      1  0.4846240000000  0.4524280000000  0.5330650000000 1.0
C      1  0.5450680000000  0.5081110000000  0.5381210000000 1.0
C      1  0.5722920000000  0.5048790000000  0.5286410000000 1.0
C      1  0.4414940000000  0.4415090000000  0.5252770000000 1.0
C      1  0.4707350000000  0.5579680000000  0.5351300000000 1.0
C      1  0.4307460000000  0.4960450000000  0.5298090000000 1.0
C      1  0.5355260000000  0.4417620000000  0.5334350000000 1.0
C      1  0.5389740000000  0.5595110000000  0.5243650000000 1.0
C      1  0.4921480000000  0.5004220000000  0.4349670000000 1.0
END
