TITL C-111529-5010-1 0.0935792740395315 125000 -112.374914971456 0 0 18 (C1) n - 1
REM
REM in /rds/project/t2_vol4/rds-t2-cs072/BORA/CARBON/from-Arr/AIRSS/Generating-Clusters/GAP-ML-2020/Higher-Symm/SD-CG/HFTN-CG
REM
REM
REM
REM
REM
REM ./C.cell (b20cbc046b6831c77cfcea5457e17084)
REM AIRSS Version 0.9.1 bugfix July 2018 build 013d7b7c2542+ Fri, 06 Jul 2018 19:26:36 +0100
REM compiler GCC version 9.3.0
REM options -cpp -mtune=generic -march=x86-64 -g -O0
REM seed 691129197 -596535370 -2144011801 -1692793109 1118246221 1448814455 -1211289369 1335435869 1223778549 1890705205 -721763077 965576827 1745687419 -1439407899 -60168834 1719233173 260960923 -1448992341 -1822223426 257877699 1121120102 -1935843726 -1804649218 -794762932 907973454 654198882 688369389 -1973357858 743858598 754695880 -459654839 -1862687888 1867528337
REM
CELL 1.54180   50.00000   50.00000   50.00000   90.00000   90.00000   90.00000
LATT -1
SFAC C  
C      1  0.5027680000000  0.4621980000000  0.5193840000000 1.0
C      1  0.5422610000000  0.4891590000000  0.5017810000000 1.0
C      1  0.5188040000000  0.5386710000000  0.5023920000000 1.0
C      1  0.4689870000000  0.5375120000000  0.5064490000000 1.0
C      1  0.4604410000000  0.4832350000000  0.5175560000000 1.0
C      1  0.5118780000000  0.4563060000000  0.4813600000000 1.0
C      1  0.5387160000000  0.5052920000000  0.4787870000000 1.0
C      1  0.5138700000000  0.5401710000000  0.4746320000000 1.0
C      1  0.4589950000000  0.5240450000000  0.4857840000000 1.0
C      1  0.4625780000000  0.4703880000000  0.4926830000000 1.0
C      1  0.5272160000000  0.4662450000000  0.5042570000000 1.0
C      1  0.4941350000000  0.5311080000000  0.5115180000000 1.0
C      1  0.4658400000000  0.4983730000000  0.4908140000000 1.0
C      1  0.4883160000000  0.4576380000000  0.4945390000000 1.0
C      1  0.5375930000000  0.5161570000000  0.5040810000000 1.0
C      1  0.4867430000000  0.4836700000000  0.5275450000000 1.0
C      1  0.5132430000000  0.5138780000000  0.4695140000000 1.0
C      1  0.4936860000000  0.5039040000000  0.4985740000000 1.0
END
