TITL C-116597-6008-3 -0.115691364415545 125000 -476.318110558249 0 0 73 (C1) n - 1
REM
REM in /rds/project/t2_vol4/rds-t2-cs072/BORA/CARBON/from-Arr/AIRSS/Generating-Clusters/GAP-ML-2020/Higher-Symm/SD-CG/HFTN-CG
REM
REM
REM
REM
REM
REM ./C.cell (b20cbc046b6831c77cfcea5457e17084)
REM AIRSS Version 0.9.1 bugfix July 2018 build 013d7b7c2542+ Fri, 06 Jul 2018 19:26:36 +0100
REM compiler GCC version 9.3.0
REM options -cpp -mtune=generic -march=x86-64 -g -O0
REM seed -747921470 1144977815 -1970107301 -1157283972 1233890332 2058623902 -315877863 1080031014 -1054591573 -1921131524 1098548913 -2126986493 574715521 1669813685 495745847 -923959 -201626479 -37030517 -329753159 -1438847119 566779702 -1273964897 695713989 -761675857 252658236 1711089391 -1923020180 -1908479482 1850176893 -624150272 -1761566935 -1632691721 504465491
REM
CELL 1.54180   50.00000   50.00000   50.00000   90.00000   90.00000   90.00000
LATT -1
SFAC C  
C      1  0.5311320000000  0.5229250000000  0.4985580000000 1.0
C      1  0.5235650000000  0.4761450000000  0.4816870000000 1.0
C      1  0.5015490000000  0.4632280000000  0.4918800000000 1.0
C      1  0.4765050000000  0.4801570000000  0.4894540000000 1.0
C      1  0.4755500000000  0.5116490000000  0.4908420000000 1.0
C      1  0.5026140000000  0.5297850000000  0.4918550000000 1.0
C      1  0.5414920000000  0.5359610000000  0.5228380000000 1.0
C      1  0.5665100000000  0.4825150000000  0.5057100000000 1.0
C      1  0.5078840000000  0.4483150000000  0.5172840000000 1.0
C      1  0.4582010000000  0.4679220000000  0.5102940000000 1.0
C      1  0.4519710000000  0.5197020000000  0.5104330000000 1.0
C      1  0.4932500000000  0.5515270000000  0.5114490000000 1.0
C      1  0.4684250000000  0.4327240000000  0.5385100000000 1.0
C      1  0.4246130000000  0.4916920000000  0.5345010000000 1.0
C      1  0.4553420000000  0.5614220000000  0.5341490000000 1.0
C      1  0.5288650000000  0.5836720000000  0.5342540000000 1.0
C      1  0.5847100000000  0.5125910000000  0.5406760000000 1.0
C      1  0.5571860000000  0.4380730000000  0.5305300000000 1.0
C      1  0.4446670000000  0.5675320000000  0.4942950000000 1.0
C      1  0.5309640000000  0.5763880000000  0.4944280000000 1.0
C      1  0.5838190000000  0.5246410000000  0.5003920000000 1.0
C      1  0.5512800000000  0.4364340000000  0.4898210000000 1.0
C      1  0.4736450000000  0.4190760000000  0.4986050000000 1.0
C      1  0.4123140000000  0.4860480000000  0.4955930000000 1.0
C      1  0.4724620000000  0.4822570000000  0.5632230000000 1.0
C      1  0.4667700000000  0.5106320000000  0.5629250000000 1.0
C      1  0.4886650000000  0.5282330000000  0.5662240000000 1.0
C      1  0.5142190000000  0.5166380000000  0.5697060000000 1.0
C      1  0.5148270000000  0.4917240000000  0.5813220000000 1.0
C      1  0.4998070000000  0.4743420000000  0.5662100000000 1.0
C      1  0.5700600000000  0.5323560000000  0.5261050000000 1.0
C      1  0.5676900000000  0.4544180000000  0.5095690000000 1.0
C      1  0.4903890000000  0.4252980000000  0.5227810000000 1.0
C      1  0.4293160000000  0.4713230000000  0.5152460000000 1.0
C      1  0.4404310000000  0.5465810000000  0.5150710000000 1.0
C      1  0.5086670000000  0.5761300000000  0.5146280000000 1.0
C      1  0.4931250000000  0.5311550000000  0.5356850000000 1.0
C      1  0.5208900000000  0.5196600000000  0.5397460000000 1.0
C      1  0.5231200000000  0.4931260000000  0.5278130000000 1.0
C      1  0.5041670000000  0.4726050000000  0.5358520000000 1.0
C      1  0.4749120000000  0.4816030000000  0.5328610000000 1.0
C      1  0.4704860000000  0.5112500000000  0.5325950000000 1.0
C      1  0.5485240000000  0.5208900000000  0.4433490000000 1.0
C      1  0.5438050000000  0.4661600000000  0.4367570000000 1.0
C      1  0.4907210000000  0.4439780000000  0.4397120000000 1.0
C      1  0.4467460000000  0.4736690000000  0.4490140000000 1.0
C      1  0.4537750000000  0.5306580000000  0.4468690000000 1.0
C      1  0.5022200000000  0.5554280000000  0.4480720000000 1.0
C      1  0.5020350000000  0.5293390000000  0.4596430000000 1.0
C      1  0.5235940000000  0.5115910000000  0.4469210000000 1.0
C      1  0.5216990000000  0.4812970000000  0.4512390000000 1.0
C      1  0.4943840000000  0.4700250000000  0.4437360000000 1.0
C      1  0.4717200000000  0.4837000000000  0.4578800000000 1.0
C      1  0.4736300000000  0.5154210000000  0.4600290000000 1.0
C      1  0.5862830000000  0.5300470000000  0.4749480000000 1.0
C      1  0.5587600000000  0.4304840000000  0.4650010000000 1.0
C      1  0.4790350000000  0.4110670000000  0.4738490000000 1.0
C      1  0.4041140000000  0.4775330000000  0.4717020000000 1.0
C      1  0.4340680000000  0.5692970000000  0.4696260000000 1.0
C      1  0.5296160000000  0.5880070000000  0.4704320000000 1.0
C      1  0.4380420000000  0.5493780000000  0.4522110000000 1.0
C      1  0.5120410000000  0.5780600000000  0.4528660000000 1.0
C      1  0.5708170000000  0.5268320000000  0.4541350000000 1.0
C      1  0.5581660000000  0.4464700000000  0.4434400000000 1.0
C      1  0.4848850000000  0.4214100000000  0.4505100000000 1.0
C      1  0.4229020000000  0.4691430000000  0.4542750000000 1.0
C      1  0.5447920000000  0.5653880000000  0.5196040000000 1.0
C      1  0.5875220000000  0.4991480000000  0.5149340000000 1.0
C      1  0.5335200000000  0.4339320000000  0.5137730000000 1.0
C      1  0.4563610000000  0.4389180000000  0.5130290000000 1.0
C      1  0.4240810000000  0.5089530000000  0.5116400000000 1.0
C      1  0.4700840000000  0.5702870000000  0.5111060000000 1.0
C      1  0.5378790000000  0.4933340000000  0.5018240000000 1.0
END
