TITL C-110354-4463-9 -12.7416959089754 125000 -388.42840379049 0 0 59 (C1) n - 1
REM
REM in /rds/project/t2_vol4/rds-t2-cs072/BORA/CARBON/from-Arr/AIRSS/Generating-Clusters/GAP-ML-2020/Higher-Symm/SD-CG/HFTN-CG
REM
REM
REM
REM
REM
REM ./C.cell (b20cbc046b6831c77cfcea5457e17084)
REM AIRSS Version 0.9.1 bugfix July 2018 build 013d7b7c2542+ Fri, 06 Jul 2018 19:26:36 +0100
REM compiler GCC version 9.3.0
REM options -cpp -mtune=generic -march=x86-64 -g -O0
REM seed 1043749331 1695926643 1391190017 -862611266 -2095932590 40266575 104950429 -1368184284 216346876 916544748 291345642 -349149699 1504799034 908277937 781007316 -494418248 -1231030728 -151253708 385845569 38864000 -1279209898 -269132704 -629828429 1194534575 1906604739 -587285191 1734208928 838520254 1001069628 397505578 1250803301 120136676 1716612103
REM
CELL 1.54180   50.00000   50.00000   50.00000   90.00000   90.00000   90.00000
LATT -1
SFAC C  
C      1  0.4904450000000  0.4375830000000  0.4695750000000 1.0
C      1  0.4778010000000  0.4412470000000  0.4997320000000 1.0
C      1  0.5040160000000  0.4352260000000  0.5489290000000 1.0
C      1  0.5272270000000  0.4408160000000  0.5299280000000 1.0
C      1  0.5200790000000  0.4412340000000  0.4785910000000 1.0
C      1  0.4813680000000  0.4572550000000  0.4498900000000 1.0
C      1  0.4521180000000  0.4565750000000  0.5023480000000 1.0
C      1  0.4946230000000  0.4593080000000  0.5623580000000 1.0
C      1  0.5498610000000  0.4600600000000  0.5366460000000 1.0
C      1  0.5394260000000  0.4577070000000  0.4619400000000 1.0
C      1  0.4969140000000  0.5388400000000  0.5594700000000 1.0
C      1  0.5589720000000  0.5355360000000  0.5189700000000 1.0
C      1  0.5400730000000  0.5384080000000  0.4460280000000 1.0
C      1  0.4645710000000  0.5341420000000  0.4440240000000 1.0
C      1  0.4396160000000  0.5307410000000  0.5132540000000 1.0
C      1  0.5148690000000  0.5407980000000  0.5131420000000 1.0
C      1  0.5184260000000  0.5404860000000  0.4834210000000 1.0
C      1  0.4946910000000  0.5558060000000  0.4733620000000 1.0
C      1  0.4744830000000  0.5418950000000  0.4923650000000 1.0
C      1  0.4883900000000  0.5540210000000  0.5159170000000 1.0
C      1  0.4432420000000  0.4813450000000  0.4921530000000 1.0
C      1  0.4774720000000  0.4821020000000  0.5580550000000 1.0
C      1  0.5482880000000  0.4872540000000  0.5439030000000 1.0
C      1  0.5561650000000  0.4788590000000  0.4692620000000 1.0
C      1  0.4913920000000  0.4822560000000  0.4416720000000 1.0
C      1  0.4552960000000  0.5239280000000  0.5348880000000 1.0
C      1  0.5234030000000  0.5319530000000  0.5563280000000 1.0
C      1  0.5609840000000  0.5240760000000  0.4940310000000 1.0
C      1  0.5150200000000  0.5283010000000  0.4378970000000 1.0
C      1  0.4467920000000  0.5253140000000  0.4635650000000 1.0
C      1  0.5044200000000  0.4853090000000  0.5626650000000 1.0
C      1  0.5620240000000  0.4800190000000  0.5210940000000 1.0
C      1  0.5368450000000  0.4824240000000  0.4495960000000 1.0
C      1  0.4667690000000  0.4804980000000  0.4534110000000 1.0
C      1  0.4444100000000  0.4773060000000  0.5193840000000 1.0
C      1  0.5132130000000  0.5002880000000  0.4480530000000 1.0
C      1  0.4573450000000  0.4991160000000  0.4739350000000 1.0
C      1  0.4629560000000  0.4946860000000  0.5352000000000 1.0
C      1  0.5238240000000  0.5029360000000  0.5491480000000 1.0
C      1  0.5555560000000  0.4942200000000  0.4948470000000 1.0
C      1  0.4861510000000  0.4992310000000  0.5142330000000 1.0
C      1  0.5126500000000  0.5112460000000  0.5214990000000 1.0
C      1  0.5249460000000  0.4973290000000  0.4974870000000 1.0
C      1  0.5094460000000  0.5120410000000  0.4768460000000 1.0
C      1  0.4809620000000  0.5127870000000  0.4888120000000 1.0
C      1  0.5378810000000  0.5446230000000  0.5331840000000 1.0
C      1  0.5457570000000  0.5374760000000  0.4723730000000 1.0
C      1  0.4900990000000  0.5429070000000  0.4458290000000 1.0
C      1  0.4453330000000  0.5415350000000  0.4889430000000 1.0
C      1  0.4768820000000  0.5427670000000  0.5415010000000 1.0
C      1  0.4795380000000  0.4129630000000  0.5078490000000 1.0
C      1  0.4971420000000  0.4115820000000  0.5318380000000 1.0
C      1  0.5247910000000  0.4126780000000  0.5183630000000 1.0
C      1  0.5211660000000  0.4127510000000  0.4890140000000 1.0
C      1  0.4928690000000  0.4090590000000  0.4814020000000 1.0
C      1  0.4921570000000  0.5786720000000  0.4945050000000 1.0
C      1  0.5081480000000  0.4523170000000  0.5056940000000 1.0
C      1  0.5032440000000  0.4785940000000  0.5011710000000 1.0
C      1  0.5007700000000  0.6025710000000  0.4961310000000 1.0
END
