TITL C-116606-6073-8 0.0456259670852863 125000 -114.142429587425 0 0 19 (C3) n - 1
REM
REM in /rds/project/t2_vol4/rds-t2-cs072/BORA/CARBON/from-Arr/AIRSS/Generating-Clusters/GAP-ML-2020/Higher-Symm/SD-CG/HFTN-CG
REM
REM
REM
REM
REM
REM ./C.cell (b20cbc046b6831c77cfcea5457e17084)
REM AIRSS Version 0.9.1 bugfix July 2018 build 013d7b7c2542+ Fri, 06 Jul 2018 19:26:36 +0100
REM compiler GCC version 9.3.0
REM options -cpp -mtune=generic -march=x86-64 -g -O0
REM seed 442512329 284281265 -29884926 1743847858 789051171 -294303290 2079869722 1901373670 916267445 -230187404 -2100899146 -1343752798 -822716668 -1791385955 -1720588625 -1673616206 -537763694 1267423006 797195263 1299805993 -535983933 623064207 1328965366 2057449458 1611079838 -370710464 240459262 714272106 -1662604469 324931717 -167494492 -171624143 162236029
REM
CELL 1.54180   50.00000   50.00000   50.00000   90.00000   90.00000   90.00000
LATT -1
SFAC C  
C      1  0.5418870000000  0.5126950000000  0.5093330000000 1.0
C      1  0.5430280000000  0.4985880000000  0.4846340000000 1.0
C      1  0.5412090000000  0.4842370000000  0.5091510000000 1.0
C      1  0.4639560000000  0.5226520000000  0.5131210000000 1.0
C      1  0.4661600000000  0.5037390000000  0.4687760000000 1.0
C      1  0.4631500000000  0.4747580000000  0.5072480000000 1.0
C      1  0.5105940000000  0.5141870000000  0.5086570000000 1.0
C      1  0.5118790000000  0.5000130000000  0.4815240000000 1.0
C      1  0.5099340000000  0.4835850000000  0.5073130000000 1.0
C      1  0.4902380000000  0.5257540000000  0.5231700000000 1.0
C      1  0.4934370000000  0.5085420000000  0.4629260000000 1.0
C      1  0.4896860000000  0.4649170000000  0.5078560000000 1.0
C      1  0.5014430000000  0.4418520000000  0.4971690000000 1.0
C      1  0.5003770000000  0.5270190000000  0.5492480000000 1.0
C      1  0.5064150000000  0.5294990000000  0.4496270000000 1.0
C      1  0.5284100000000  0.5414350000000  0.4505260000000 1.0
C      1  0.5235880000000  0.4347340000000  0.4878950000000 1.0
C      1  0.5212470000000  0.5206290000000  0.5615240000000 1.0
C      1  0.4646840000000  0.5003770000000  0.4963970000000 1.0
END
