TITL C-114832-6497-10 0.0172371039869963 125000 -55.8752960825969 0 0 9 (Cs) n - 1
REM
REM in /rds/project/t2_vol4/rds-t2-cs072/BORA/CARBON/from-Arr/AIRSS/Generating-Clusters/GAP-ML-2020/Higher-Symm/SD-CG/HFTN-CG
REM
REM
REM
REM
REM
REM ./C.cell (b20cbc046b6831c77cfcea5457e17084)
REM AIRSS Version 0.9.1 bugfix July 2018 build 013d7b7c2542+ Fri, 06 Jul 2018 19:26:36 +0100
REM compiler GCC version 9.3.0
REM options -cpp -mtune=generic -march=x86-64 -g -O0
REM seed -2018003133 1229443263 1412258004 -935505818 1139763702 245802708 -868202269 451060601 -1992144523 -1055790918 -1523640610 -1522524053 -1223993224 1754612170 395261142 -1456495714 -855843341 -1484762010 -1297776273 1015565688 1897362968 -1972895091 -1188572263 356699009 -921338494 1712554064 1076944146 1175404303 -816493819 -1458343401 2084891171 1396924622 -581902222
REM
CELL 1.54180   50.00000   50.00000   50.00000   90.00000   90.00000   90.00000
LATT -1
SFAC C  
C      1  0.4655730000000  0.4816120000000  0.5000000000000 1.0
C      1  0.4829930000000  0.4610190000000  0.5000000000000 1.0
C      1  0.5078580000000  0.4682260000000  0.5000000000000 1.0
C      1  0.5320240000000  0.4785410000000  0.5000000000000 1.0
C      1  0.5330590000000  0.5049270000000  0.5000000000000 1.0
C      1  0.5294260000000  0.5310450000000  0.5000000000000 1.0
C      1  0.5032560000000  0.5355510000000  0.5000000000000 1.0
C      1  0.4772620000000  0.5319560000000  0.5000000000000 1.0
C      1  0.4685490000000  0.5071220000000  0.5000000000000 1.0
END
