TITL C-114859-6534-9 9.39650840329698 125000 -217.073452578615 0 0 34 (Cs) n - 1
REM
REM in /rds/project/t2_vol4/rds-t2-cs072/BORA/CARBON/from-Arr/AIRSS/Generating-Clusters/GAP-ML-2020/Higher-Symm/SD-CG/HFTN-CG
REM
REM
REM
REM
REM
REM ./C.cell (b20cbc046b6831c77cfcea5457e17084)
REM AIRSS Version 0.9.1 bugfix July 2018 build 013d7b7c2542+ Fri, 06 Jul 2018 19:26:36 +0100
REM compiler GCC version 9.3.0
REM options -cpp -mtune=generic -march=x86-64 -g -O0
REM seed -868551757 1066719314 -1419188011 308377109 -1055031058 -299996298 1355277140 -1382030189 832370380 -1284472633 -1572325752 504585298 -1880757047 -1978310918 -1454721343 1931695918 1254896961 -212629111 1141647347 -735946373 1542950737 1475755926 -760548691 1244118084 -1316048503 1593121086 1275045547 -365312376 -949613716 1847242660 1456516430 -956962070 1205545180
REM
CELL 1.54180   50.00000   50.00000   50.00000   90.00000   90.00000   90.00000
LATT -1
SFAC C  
C      1  0.5494400000000  0.5499310000000  0.4961710000000 1.0
C      1  0.5489240000000  0.5101370000000  0.4540020000000 1.0
C      1  0.5502270000000  0.4591830000000  0.4772950000000 1.0
C      1  0.5489460000000  0.4635840000000  0.5331480000000 1.0
C      1  0.5494540000000  0.5197770000000  0.5474370000000 1.0
C      1  0.4802010000000  0.4587810000000  0.5059270000000 1.0
C      1  0.4804680000000  0.4919560000000  0.5412070000000 1.0
C      1  0.4802610000000  0.5351960000000  0.5220240000000 1.0
C      1  0.4804500000000  0.5309510000000  0.4749110000000 1.0
C      1  0.4801900000000  0.4839960000000  0.4630590000000 1.0
C      1  0.4401440000000  0.5107740000000  0.5246240000000 1.0
C      1  0.4401380000000  0.5255920000000  0.4994320000000 1.0
C      1  0.4400290000000  0.5064020000000  0.4776850000000 1.0
C      1  0.4398860000000  0.4793910000000  0.4892110000000 1.0
C      1  0.4400400000000  0.4824420000000  0.5184200000000 1.0
C      1  0.4656760000000  0.5163300000000  0.5379280000000 1.0
C      1  0.4656650000000  0.5399250000000  0.4978130000000 1.0
C      1  0.4658420000000  0.5087140000000  0.4642050000000 1.0
C      1  0.4664510000000  0.4686760000000  0.4829010000000 1.0
C      1  0.4658590000000  0.4717900000000  0.5269810000000 1.0
C      1  0.5080020000000  0.4873920000000  0.4692550000000 1.0
C      1  0.5080120000000  0.4658540000000  0.5058740000000 1.0
C      1  0.5075500000000  0.4910700000000  0.5440290000000 1.0
C      1  0.5070080000000  0.5373640000000  0.5232920000000 1.0
C      1  0.5075300000000  0.5329930000000  0.4727540000000 1.0
C      1  0.5235900000000  0.5386010000000  0.4975700000000 1.0
C      1  0.5228610000000  0.5106960000000  0.4589810000000 1.0
C      1  0.5245270000000  0.4634700000000  0.4798240000000 1.0
C      1  0.5228800000000  0.4682010000000  0.5312280000000 1.0
C      1  0.5236010000000  0.5154880000000  0.5368650000000 1.0
C      1  0.4765830000000  0.5010960000000  0.5019680000000 1.0
C      1  0.5572360000000  0.4984100000000  0.5003660000000 1.0
C      1  0.5060120000000  0.4946900000000  0.4981920000000 1.0
C      1  0.5313800000000  0.5076870000000  0.5058300000000 1.0
END
