TITL C-116612-6511-1 -0.27041304626268 125000 -825.861872144508 0 0 117 (C1) n - 1
REM
REM in /rds/project/t2_vol4/rds-t2-cs072/BORA/CARBON/from-Arr/AIRSS/Generating-Clusters/GAP-ML-2020/Higher-Symm/SD-CG/HFTN-CG
REM
REM
REM
REM
REM
REM ./C.cell (b20cbc046b6831c77cfcea5457e17084)
REM AIRSS Version 0.9.1 bugfix July 2018 build 013d7b7c2542+ Fri, 06 Jul 2018 19:26:36 +0100
REM compiler GCC version 9.3.0
REM options -cpp -mtune=generic -march=x86-64 -g -O0
REM seed 1951333708 1927131112 1015280259 420347343 1174492862 -1389921861 574161182 1730439166 -1482342370 -1902131860 -417390015 -402635091 -1905881727 -1618083433 -1952861477 -914850441 -279795005 2030483726 -1601164582 -1646441141 -255423155 2051443883 -233760761 1340807984 -808661177 -1086731534 -230310988 1089647890 995561941 494699588 1969306272 -901498990 -1279332212
REM
CELL 1.54180   50.00000   50.00000   50.00000   90.00000   90.00000   90.00000
LATT -1
SFAC C  
C      1  0.5635820000000  0.5537420000000  0.5090550000000 1.0
C      1  0.5260040000000  0.5545230000000  0.4418130000000 1.0
C      1  0.4532070000000  0.5540480000000  0.4544850000000 1.0
C      1  0.4431570000000  0.5537310000000  0.5296170000000 1.0
C      1  0.5135080000000  0.5549510000000  0.5629860000000 1.0
C      1  0.5630290000000  0.4427690000000  0.5067110000000 1.0
C      1  0.5280750000000  0.4437910000000  0.4416590000000 1.0
C      1  0.4538980000000  0.4431510000000  0.4550730000000 1.0
C      1  0.4439440000000  0.4427910000000  0.5321940000000 1.0
C      1  0.5105350000000  0.4435360000000  0.5633910000000 1.0
C      1  0.4814140000000  0.5949240000000  0.4601110000000 1.0
C      1  0.4579310000000  0.5944690000000  0.5044090000000 1.0
C      1  0.4922950000000  0.5952610000000  0.5405000000000 1.0
C      1  0.5385750000000  0.5947950000000  0.5221290000000 1.0
C      1  0.5297080000000  0.5949990000000  0.4729290000000 1.0
C      1  0.4825670000000  0.4026370000000  0.4614970000000 1.0
C      1  0.4583980000000  0.4023010000000  0.5051160000000 1.0
C      1  0.4903780000000  0.4026070000000  0.5432890000000 1.0
C      1  0.5344410000000  0.4023580000000  0.5197000000000 1.0
C      1  0.5319770000000  0.4025650000000  0.4697740000000 1.0
C      1  0.4325070000000  0.5257350000000  0.5294770000000 1.0
C      1  0.5079320000000  0.5268740000000  0.5710330000000 1.0
C      1  0.5718430000000  0.5255350000000  0.5156930000000 1.0
C      1  0.5351540000000  0.5265860000000  0.4369410000000 1.0
C      1  0.4509200000000  0.5262880000000  0.4441400000000 1.0
C      1  0.4348720000000  0.4709550000000  0.5294880000000 1.0
C      1  0.5066690000000  0.4717640000000  0.5731320000000 1.0
C      1  0.5706060000000  0.4705550000000  0.5140800000000 1.0
C      1  0.5368290000000  0.4717740000000  0.4365800000000 1.0
C      1  0.4503560000000  0.4707500000000  0.4440200000000 1.0
C      1  0.4948380000000  0.4750250000000  0.4513770000000 1.0
C      1  0.4666730000000  0.4700680000000  0.4891500000000 1.0
C      1  0.4864560000000  0.4728930000000  0.5250930000000 1.0
C      1  0.5308460000000  0.4740720000000  0.5359920000000 1.0
C      1  0.5204970000000  0.4742960000000  0.4906010000000 1.0
C      1  0.4970630000000  0.5229850000000  0.4767760000000 1.0
C      1  0.4520550000000  0.5226630000000  0.4887620000000 1.0
C      1  0.4801490000000  0.5280640000000  0.5266990000000 1.0
C      1  0.5202750000000  0.5247030000000  0.5200880000000 1.0
C      1  0.5437250000000  0.5228910000000  0.4813380000000 1.0
C      1  0.5507570000000  0.5692800000000  0.5294770000000 1.0
C      1  0.5385220000000  0.5684180000000  0.4636000000000 1.0
C      1  0.4762450000000  0.5693410000000  0.4466510000000 1.0
C      1  0.4445170000000  0.5684260000000  0.5054260000000 1.0
C      1  0.4907570000000  0.5687050000000  0.5528040000000 1.0
C      1  0.5460100000000  0.4289360000000  0.5253040000000 1.0
C      1  0.5428470000000  0.4283480000000  0.4607890000000 1.0
C      1  0.4773240000000  0.4286160000000  0.4489900000000 1.0
C      1  0.4463050000000  0.4289930000000  0.5073650000000 1.0
C      1  0.4872580000000  0.4280410000000  0.5572320000000 1.0
C      1  0.5342810000000  0.4462200000000  0.5459740000000 1.0
C      1  0.5622850000000  0.4429060000000  0.4772050000000 1.0
C      1  0.4987730000000  0.4461890000000  0.4397540000000 1.0
C      1  0.4458880000000  0.4480770000000  0.4838120000000 1.0
C      1  0.4616910000000  0.4426600000000  0.5558790000000 1.0
C      1  0.5414550000000  0.5547080000000  0.5533730000000 1.0
C      1  0.5545000000000  0.5509870000000  0.4810900000000 1.0
C      1  0.4978720000000  0.5547510000000  0.4331770000000 1.0
C      1  0.4428140000000  0.5511430000000  0.4820310000000 1.0
C      1  0.4682300000000  0.5494530000000  0.5461010000000 1.0
C      1  0.5735580000000  0.4680570000000  0.4678530000000 1.0
C      1  0.4926690000000  0.4715070000000  0.4224650000000 1.0
C      1  0.4251470000000  0.4696260000000  0.4824760000000 1.0
C      1  0.4584740000000  0.4677300000000  0.5699520000000 1.0
C      1  0.5502770000000  0.4715540000000  0.5574140000000 1.0
C      1  0.5701580000000  0.5259160000000  0.4694340000000 1.0
C      1  0.4923990000000  0.5296700000000  0.4193770000000 1.0
C      1  0.4240050000000  0.5252300000000  0.4822540000000 1.0
C      1  0.4603960000000  0.5288680000000  0.5665690000000 1.0
C      1  0.5534610000000  0.5291530000000  0.5608580000000 1.0
C      1  0.4269340000000  0.5120430000000  0.4568080000000 1.0
C      1  0.4403080000000  0.5127620000000  0.5555450000000 1.0
C      1  0.5343260000000  0.5133080000000  0.5750850000000 1.0
C      1  0.5836480000000  0.5121400000000  0.4909180000000 1.0
C      1  0.5161320000000  0.5135510000000  0.4183110000000 1.0
C      1  0.4280170000000  0.4839440000000  0.4581870000000 1.0
C      1  0.4401930000000  0.4845510000000  0.5561370000000 1.0
C      1  0.5337490000000  0.4852940000000  0.5768090000000 1.0
C      1  0.5820990000000  0.4839540000000  0.4900650000000 1.0
C      1  0.5173040000000  0.4854270000000  0.4174290000000 1.0
C      1  0.4703800000000  0.5136260000000  0.4678300000000 1.0
C      1  0.4573300000000  0.5136620000000  0.5157540000000 1.0
C      1  0.5028910000000  0.5140590000000  0.5420060000000 1.0
C      1  0.5434430000000  0.5127520000000  0.5087230000000 1.0
C      1  0.5224740000000  0.5139560000000  0.4641640000000 1.0
C      1  0.4704820000000  0.4839060000000  0.4640170000000 1.0
C      1  0.4602550000000  0.4837630000000  0.5156680000000 1.0
C      1  0.5045650000000  0.4845720000000  0.5438490000000 1.0
C      1  0.5409150000000  0.4829960000000  0.5106070000000 1.0
C      1  0.5203170000000  0.4840080000000  0.4627490000000 1.0
C      1  0.5155490000000  0.3927930000000  0.5374770000000 1.0
C      1  0.5376900000000  0.3917370000000  0.4944140000000 1.0
C      1  0.5082480000000  0.3929240000000  0.4595600000000 1.0
C      1  0.4645160000000  0.3919720000000  0.4799170000000 1.0
C      1  0.4699220000000  0.3915080000000  0.5281070000000 1.0
C      1  0.5177530000000  0.6061130000000  0.5366480000000 1.0
C      1  0.5409200000000  0.6044450000000  0.4963580000000 1.0
C      1  0.5066330000000  0.6057700000000  0.4622080000000 1.0
C      1  0.4640590000000  0.6043400000000  0.4794020000000 1.0
C      1  0.4698980000000  0.6051880000000  0.5271710000000 1.0
C      1  0.5760380000000  0.5179200000000  0.5450350000000 1.0
C      1  0.5645870000000  0.5185240000000  0.4415770000000 1.0
C      1  0.4650780000000  0.5184750000000  0.4186280000000 1.0
C      1  0.4112520000000  0.5174420000000  0.5080750000000 1.0
C      1  0.4811360000000  0.5195180000000  0.5838940000000 1.0
C      1  0.5751490000000  0.4788120000000  0.5435710000000 1.0
C      1  0.5655030000000  0.4794990000000  0.4417380000000 1.0
C      1  0.4642780000000  0.4790390000000  0.4178560000000 1.0
C      1  0.4144320000000  0.4784150000000  0.5076080000000 1.0
C      1  0.4802330000000  0.4789000000000  0.5864970000000 1.0
C      1  0.5795310000000  0.4997840000000  0.4275390000000 1.0
C      1  0.4770130000000  0.5005700000000  0.6040720000000 1.0
C      1  0.3929460000000  0.4968220000000  0.5098090000000 1.0
C      1  0.4562930000000  0.4987290000000  0.4000560000000 1.0
C      1  0.5934360000000  0.4970920000000  0.5537800000000 1.0
C      1  0.4996430000000  0.5354730000000  0.5027410000000 1.0
C      1  0.4963630000000  0.4620840000000  0.5004900000000 1.0
END
