TITL C-114838-6406-5 0.178358810961537 125000 -95.036622288337 0 0 16 (C3) n - 1
REM
REM in /rds/project/t2_vol4/rds-t2-cs072/BORA/CARBON/from-Arr/AIRSS/Generating-Clusters/GAP-ML-2020/Higher-Symm/SD-CG/HFTN-CG
REM
REM
REM
REM
REM
REM ./C.cell (b20cbc046b6831c77cfcea5457e17084)
REM AIRSS Version 0.9.1 bugfix July 2018 build 013d7b7c2542+ Fri, 06 Jul 2018 19:26:36 +0100
REM compiler GCC version 9.3.0
REM options -cpp -mtune=generic -march=x86-64 -g -O0
REM seed -151698569 1622250403 1731548682 1590461869 970190583 -1702902045 1068172966 1519331030 -59017830 1204173386 1046877419 456685511 1055961639 -1422739193 -2109559416 -1371500220 -1562595494 -1591189010 -1663883571 553510397 1338145383 1691499973 -1530487411 1171874779 -864102738 1517661559 -1629976790 -356058660 986578959 -917860473 497328046 -1979149752 -557057882
REM
CELL 1.54180   50.00000   50.00000   50.00000   90.00000   90.00000   90.00000
LATT -1
SFAC C  
C      1  0.5209010000000  0.5008580000000  0.5417550000000 1.0
C      1  0.4558610000000  0.5008600000000  0.4948730000000 1.0
C      1  0.5289820000000  0.5008550000000  0.4619880000000 1.0
C      1  0.4726670000000  0.4518450000000  0.4905520000000 1.0
C      1  0.5243190000000  0.4518420000000  0.4787070000000 1.0
C      1  0.5087510000000  0.4518440000000  0.5293610000000 1.0
C      1  0.5124710000000  0.4764400000000  0.5354510000000 1.0
C      1  0.4655350000000  0.4764410000000  0.4907270000000 1.0
C      1  0.5277350000000  0.4764370000000  0.4724410000000 1.0
C      1  0.4709700000000  0.5249250000000  0.5372070000000 1.0
C      1  0.4847660000000  0.5249220000000  0.4539030000000 1.0
C      1  0.5500110000000  0.5249210000000  0.5075030000000 1.0
C      1  0.5264620000000  0.5162600000000  0.5182690000000 1.0
C      1  0.4734200000000  0.5162620000000  0.5114310000000 1.0
C      1  0.5058640000000  0.5162590000000  0.4689140000000 1.0
C      1  0.5019150000000  0.5177080000000  0.4995380000000 1.0
END
