TITL C-114832-6497-11 -0.664988319337093 125000 -786.127736830596 0 0 112 (C1) n - 1
REM
REM in /rds/project/t2_vol4/rds-t2-cs072/BORA/CARBON/from-Arr/AIRSS/Generating-Clusters/GAP-ML-2020/Higher-Symm/SD-CG/HFTN-CG
REM
REM
REM
REM
REM
REM ./C.cell (b20cbc046b6831c77cfcea5457e17084)
REM AIRSS Version 0.9.1 bugfix July 2018 build 013d7b7c2542+ Fri, 06 Jul 2018 19:26:36 +0100
REM compiler GCC version 9.3.0
REM options -cpp -mtune=generic -march=x86-64 -g -O0
REM seed -408914139 1326478749 1350294379 -338187131 497047664 1613557031 1193792463 -1354499608 963113640 -68433460 -549323315 -430215119 1445061766 -1994011705 1054557144 -2074490061 1426853743 1234905124 -2137770435 178027356 988297454 617099383 -967486823 -70548448 1020657158 -15214557 2140145871 742418788 -1957156964 1696675957 96044280 -1320133450 1893900793
REM
CELL 1.54180   50.00000   50.00000   50.00000   90.00000   90.00000   90.00000
LATT -1
SFAC C  
C      1  0.5382720000000  0.5656930000000  0.4866130000000 1.0
C      1  0.4643110000000  0.5414620000000  0.4529030000000 1.0
C      1  0.5568950000000  0.5022130000000  0.4188530000000 1.0
C      1  0.4454640000000  0.4565840000000  0.4348750000000 1.0
C      1  0.5553790000000  0.4326780000000  0.4797060000000 1.0
C      1  0.4510270000000  0.4333830000000  0.5227030000000 1.0
C      1  0.5368570000000  0.4574410000000  0.5493100000000 1.0
C      1  0.4544550000000  0.4996320000000  0.5727890000000 1.0
C      1  0.5358360000000  0.5304270000000  0.5540800000000 1.0
C      1  0.4587890000000  0.5616470000000  0.5267050000000 1.0
C      1  0.5566740000000  0.4562980000000  0.4347590000000 1.0
C      1  0.4484470000000  0.4290680000000  0.4750160000000 1.0
C      1  0.5589530000000  0.4246680000000  0.5245060000000 1.0
C      1  0.4482050000000  0.4541840000000  0.5642320000000 1.0
C      1  0.5518280000000  0.4864070000000  0.5819820000000 1.0
C      1  0.4427970000000  0.5481610000000  0.5726000000000 1.0
C      1  0.5515000000000  0.5737290000000  0.5337850000000 1.0
C      1  0.4453020000000  0.5773190000000  0.4817060000000 1.0
C      1  0.5517370000000  0.5481950000000  0.4373650000000 1.0
C      1  0.4470970000000  0.5030310000000  0.4221000000000 1.0
C      1  0.5737750000000  0.4976060000000  0.5369310000000 1.0
C      1  0.4214280000000  0.5289730000000  0.5299490000000 1.0
C      1  0.5737410000000  0.5373460000000  0.5050110000000 1.0
C      1  0.4301950000000  0.5293040000000  0.4872520000000 1.0
C      1  0.5820220000000  0.5174410000000  0.4566440000000 1.0
C      1  0.4181460000000  0.4886830000000  0.4570150000000 1.0
C      1  0.5854130000000  0.4655230000000  0.4720300000000 1.0
C      1  0.4172470000000  0.4560800000000  0.5009410000000 1.0
C      1  0.5766180000000  0.4706630000000  0.5223010000000 1.0
C      1  0.4143880000000  0.4846570000000  0.5499090000000 1.0
C      1  0.4762850000000  0.4566970000000  0.5667280000000 1.0
C      1  0.5294300000000  0.4913820000000  0.5945200000000 1.0
C      1  0.4694020000000  0.5574860000000  0.5743070000000 1.0
C      1  0.5256540000000  0.5860890000000  0.5276420000000 1.0
C      1  0.4722070000000  0.5849500000000  0.4716500000000 1.0
C      1  0.5249620000000  0.5474870000000  0.4273470000000 1.0
C      1  0.4723230000000  0.4981900000000  0.4099070000000 1.0
C      1  0.5291700000000  0.4538330000000  0.4279650000000 1.0
C      1  0.4767050000000  0.4270730000000  0.4727610000000 1.0
C      1  0.5304380000000  0.4163290000000  0.5260250000000 1.0
C      1  0.4762800000000  0.4840660000000  0.4830650000000 1.0
C      1  0.5261920000000  0.4774160000000  0.4941640000000 1.0
C      1  0.4800300000000  0.4800790000000  0.5118510000000 1.0
C      1  0.5114650000000  0.4883760000000  0.5177520000000 1.0
C      1  0.4651230000000  0.5056210000000  0.5199440000000 1.0
C      1  0.5115010000000  0.5190740000000  0.5106990000000 1.0
C      1  0.4837240000000  0.5255570000000  0.5088180000000 1.0
C      1  0.5210830000000  0.5208350000000  0.4831080000000 1.0
C      1  0.4929260000000  0.4977170000000  0.4657910000000 1.0
C      1  0.5213550000000  0.4949810000000  0.4717590000000 1.0
C      1  0.5188010000000  0.4335850000000  0.5464940000000 1.0
C      1  0.4805400000000  0.4836650000000  0.5760140000000 1.0
C      1  0.5103420000000  0.5243300000000  0.5684500000000 1.0
C      1  0.4814590000000  0.5656550000000  0.5483380000000 1.0
C      1  0.5174480000000  0.5833810000000  0.4995210000000 1.0
C      1  0.4807120000000  0.5663970000000  0.4500260000000 1.0
C      1  0.5155800000000  0.5242380000000  0.4128280000000 1.0
C      1  0.4864890000000  0.4734320000000  0.4133780000000 1.0
C      1  0.5145500000000  0.4377300000000  0.4440810000000 1.0
C      1  0.4908040000000  0.4284560000000  0.4976510000000 1.0
C      1  0.4914130000000  0.4411290000000  0.5474830000000 1.0
C      1  0.5079540000000  0.4954250000000  0.5735460000000 1.0
C      1  0.4851400000000  0.5357130000000  0.5631510000000 1.0
C      1  0.5085210000000  0.5670280000000  0.5388260000000 1.0
C      1  0.4895640000000  0.5783930000000  0.4932840000000 1.0
C      1  0.5082220000000  0.5593920000000  0.4470360000000 1.0
C      1  0.4885410000000  0.5196750000000  0.4174230000000 1.0
C      1  0.5153390000000  0.4747570000000  0.4136430000000 1.0
C      1  0.4877790000000  0.4363620000000  0.4473850000000 1.0
C      1  0.5184060000000  0.4265440000000  0.5021220000000 1.0
C      1  0.4130330000000  0.5131800000000  0.5530710000000 1.0
C      1  0.5808660000000  0.5435570000000  0.5493270000000 1.0
C      1  0.4168380000000  0.5485540000000  0.5075010000000 1.0
C      1  0.5764180000000  0.5376670000000  0.4766030000000 1.0
C      1  0.4241060000000  0.5164590000000  0.4611030000000 1.0
C      1  0.5846070000000  0.4886870000000  0.4551710000000 1.0
C      1  0.4173460000000  0.4647860000000  0.4732240000000 1.0
C      1  0.5876810000000  0.4571240000000  0.4991360000000 1.0
C      1  0.4165990000000  0.4638160000000  0.5295200000000 1.0
C      1  0.5826270000000  0.4721730000000  0.5501850000000 1.0
C      1  0.4359830000000  0.4336540000000  0.4998000000000 1.0
C      1  0.5514960000000  0.4536370000000  0.5237100000000 1.0
C      1  0.4354210000000  0.4781420000000  0.5685240000000 1.0
C      1  0.5481020000000  0.5027340000000  0.5519270000000 1.0
C      1  0.4449930000000  0.5410060000000  0.5428070000000 1.0
C      1  0.5500080000000  0.5538510000000  0.5115590000000 1.0
C      1  0.4535890000000  0.5472400000000  0.4803070000000 1.0
C      1  0.5667500000000  0.5250320000000  0.4327250000000 1.0
C      1  0.4327550000000  0.4817220000000  0.4326110000000 1.0
C      1  0.5676360000000  0.4460610000000  0.4584730000000 1.0
C      1  0.5747090000000  0.4280890000000  0.5010890000000 1.0
C      1  0.4349620000000  0.4448800000000  0.5419330000000 1.0
C      1  0.5613380000000  0.4638860000000  0.5678170000000 1.0
C      1  0.4315030000000  0.5226280000000  0.5780550000000 1.0
C      1  0.5572900000000  0.5548530000000  0.5559340000000 1.0
C      1  0.4338890000000  0.5731610000000  0.5077370000000 1.0
C      1  0.5574950000000  0.5565310000000  0.4645650000000 1.0
C      1  0.4422460000000  0.5250370000000  0.4403540000000 1.0
C      1  0.5697080000000  0.4806880000000  0.4311790000000 1.0
C      1  0.4339990000000  0.4458660000000  0.4581650000000 1.0
C      1  0.4645980000000  0.5170700000000  0.5485020000000 1.0
C      1  0.5252980000000  0.5397400000000  0.5279700000000 1.0
C      1  0.4742940000000  0.5515960000000  0.5030180000000 1.0
C      1  0.5207560000000  0.5482300000000  0.4718700000000 1.0
C      1  0.4834880000000  0.5198650000000  0.4472900000000 1.0
C      1  0.5298200000000  0.4997910000000  0.4107930000000 1.0
C      1  0.4729420000000  0.4528940000000  0.4283970000000 1.0
C      1  0.5355540000000  0.4505810000000  0.4964700000000 1.0
C      1  0.4784260000000  0.4452170000000  0.5201230000000 1.0
C      1  0.5238790000000  0.4844940000000  0.5462250000000 1.0
C      1  0.4368480000000  0.5114440000000  0.5102530000000 1.0
C      1  0.5834490000000  0.5240000000000  0.5284350000000 1.0
END
