TITL C-114858-6493-7 -0.00325262414285887 125000 -744.107134290261 0 0 106 (C2) n - 1
REM
REM in /rds/project/t2_vol4/rds-t2-cs072/BORA/CARBON/from-Arr/AIRSS/Generating-Clusters/GAP-ML-2020/Higher-Symm/SD-CG/HFTN-CG
REM
REM
REM
REM
REM
REM ./C.cell (b20cbc046b6831c77cfcea5457e17084)
REM AIRSS Version 0.9.1 bugfix July 2018 build 013d7b7c2542+ Fri, 06 Jul 2018 19:26:36 +0100
REM compiler GCC version 9.3.0
REM options -cpp -mtune=generic -march=x86-64 -g -O0
REM seed 674914018 -888257508 -57646229 -1701613614 -55421635 -1444516199 -1070515539 -1380532405 1807907662 -1583064432 107100079 1907723393 1236241184 343414668 -194917621 1716164619 -1836994160 1991204465 601954076 -16347540 964695826 985083819 -1339345108 -1080630304 -1872939450 -803723118 2068352226 -792302337 -1359573713 -728367998 -872214647 1013224180 -555695779
REM
CELL 1.54180   50.00000   50.00000   50.00000   90.00000   90.00000   90.00000
LATT -1
SFAC C  
C      1  0.4390550000000  0.4770410000000  0.5117980000000 1.0
C      1  0.5608830000000  0.4768240000000  0.4883090000000 1.0
C      1  0.5313060000000  0.5745220000000  0.4577460000000 1.0
C      1  0.4688930000000  0.5748020000000  0.5419060000000 1.0
C      1  0.5169330000000  0.4168370000000  0.4902980000000 1.0
C      1  0.4828450000000  0.4169290000000  0.5100880000000 1.0
C      1  0.5272630000000  0.5407290000000  0.4226200000000 1.0
C      1  0.4728460000000  0.5411620000000  0.5771890000000 1.0
C      1  0.4454780000000  0.5730230000000  0.4985620000000 1.0
C      1  0.5547170000000  0.5728840000000  0.5010980000000 1.0
C      1  0.4651130000000  0.4555830000000  0.5877840000000 1.0
C      1  0.5347680000000  0.4550820000000  0.4124240000000 1.0
C      1  0.5273130000000  0.4840290000000  0.5784560000000 1.0
C      1  0.4726440000000  0.4837370000000  0.4216190000000 1.0
C      1  0.5298750000000  0.5802490000000  0.5114310000000 1.0
C      1  0.4703390000000  0.5802740000000  0.4881960000000 1.0
C      1  0.4878040000000  0.4214550000000  0.4522920000000 1.0
C      1  0.5119870000000  0.4216450000000  0.5480730000000 1.0
C      1  0.5155210000000  0.5188930000000  0.4084320000000 1.0
C      1  0.4845300000000  0.5193600000000  0.5914790000000 1.0
C      1  0.4345110000000  0.4714550000000  0.5635320000000 1.0
C      1  0.5654120000000  0.4709850000000  0.4366020000000 1.0
C      1  0.5380130000000  0.4267970000000  0.4494940000000 1.0
C      1  0.4617930000000  0.4271340000000  0.5508460000000 1.0
C      1  0.4298840000000  0.4875520000000  0.5413940000000 1.0
C      1  0.5700820000000  0.4871720000000  0.4586650000000 1.0
C      1  0.5680570000000  0.5307310000000  0.5405130000000 1.0
C      1  0.4320250000000  0.5307230000000  0.4593440000000 1.0
C      1  0.3992990000000  0.4941440000000  0.4803560000000 1.0
C      1  0.6006850000000  0.4939670000000  0.5196720000000 1.0
C      1  0.4878940000000  0.4246840000000  0.5625950000000 1.0
C      1  0.5119050000000  0.4243610000000  0.4377560000000 1.0
C      1  0.5166300000000  0.5530380000000  0.5549020000000 1.0
C      1  0.4835110000000  0.5528260000000  0.4448520000000 1.0
C      1  0.5761580000000  0.4805560000000  0.5162520000000 1.0
C      1  0.4237900000000  0.4806830000000  0.4838380000000 1.0
C      1  0.5147540000000  0.5285340000000  0.4639690000000 1.0
C      1  0.4853220000000  0.5287400000000  0.5358970000000 1.0
C      1  0.4458040000000  0.5660000000000  0.5259270000000 1.0
C      1  0.5543720000000  0.5657340000000  0.4737660000000 1.0
C      1  0.4498340000000  0.4802420000000  0.5882250000000 1.0
C      1  0.5501120000000  0.4796980000000  0.4118690000000 1.0
C      1  0.4628730000000  0.4972340000000  0.5117060000000 1.0
C      1  0.5371200000000  0.4970810000000  0.4883080000000 1.0
C      1  0.5414030000000  0.5215160000000  0.4735930000000 1.0
C      1  0.4586550000000  0.5217490000000  0.5263060000000 1.0
C      1  0.5093760000000  0.5035240000000  0.4493760000000 1.0
C      1  0.4906330000000  0.5037850000000  0.5506070000000 1.0
C      1  0.4714670000000  0.4513430000000  0.4843940000000 1.0
C      1  0.5284040000000  0.4513410000000  0.5158330000000 1.0
C      1  0.5181830000000  0.4566180000000  0.5799350000000 1.0
C      1  0.4817010000000  0.4562950000000  0.4202670000000 1.0
C      1  0.4931080000000  0.5287530000000  0.4862210000000 1.0
C      1  0.5069690000000  0.5287980000000  0.5136450000000 1.0
C      1  0.4494670000000  0.4902700000000  0.4374490000000 1.0
C      1  0.5505070000000  0.4904260000000  0.5625960000000 1.0
C      1  0.4913120000000  0.4451450000000  0.5827870000000 1.0
C      1  0.5085410000000  0.4447370000000  0.4174690000000 1.0
C      1  0.4866600000000  0.5963840000000  0.5045270000000 1.0
C      1  0.5135970000000  0.5963260000000  0.4950240000000 1.0
C      1  0.4745080000000  0.5540900000000  0.4736160000000 1.0
C      1  0.5256370000000  0.5541440000000  0.5261320000000 1.0
C      1  0.4237340000000  0.5364040000000  0.4990000000000 1.0
C      1  0.5763620000000  0.5362050000000  0.5008310000000 1.0
C      1  0.5631870000000  0.5161430000000  0.4525690000000 1.0
C      1  0.4368560000000  0.5165320000000  0.5473550000000 1.0
C      1  0.5515810000000  0.5187900000000  0.5598480000000 1.0
C      1  0.4484680000000  0.5186490000000  0.4400650000000 1.0
C      1  0.5210090000000  0.5979400000000  0.4682340000000 1.0
C      1  0.4792520000000  0.5981430000000  0.5313090000000 1.0
C      1  0.5658390000000  0.5388740000000  0.4739150000000 1.0
C      1  0.4342650000000  0.5391700000000  0.5259030000000 1.0
C      1  0.5139990000000  0.5528720000000  0.4450890000000 1.0
C      1  0.4861430000000  0.5531650000000  0.5546650000000 1.0
C      1  0.4424270000000  0.5495320000000  0.4790400000000 1.0
C      1  0.5577050000000  0.5494750000000  0.5207290000000 1.0
C      1  0.5068880000000  0.4763910000000  0.5142600000000 1.0
C      1  0.4930490000000  0.4763440000000  0.4858500000000 1.0
C      1  0.5147340000000  0.4823310000000  0.4675040000000 1.0
C      1  0.4852190000000  0.4825220000000  0.5325780000000 1.0
C      1  0.4604830000000  0.4285840000000  0.5227540000000 1.0
C      1  0.5393260000000  0.4283730000000  0.4775790000000 1.0
C      1  0.5615130000000  0.4735190000000  0.5412650000000 1.0
C      1  0.4384160000000  0.4734910000000  0.4588580000000 1.0
C      1  0.4579370000000  0.5061220000000  0.5914660000000 1.0
C      1  0.5420790000000  0.5055850000000  0.4085060000000 1.0
C      1  0.4881290000000  0.4230020000000  0.4815230000000 1.0
C      1  0.5116660000000  0.4230570000000  0.5188350000000 1.0
C      1  0.4914350000000  0.5079130000000  0.4233470000000 1.0
C      1  0.5085860000000  0.5082470000000  0.5766150000000 1.0
C      1  0.4477750000000  0.5253340000000  0.5727320000000 1.0
C      1  0.5522920000000  0.5248560000000  0.4271510000000 1.0
C      1  0.4519520000000  0.4507840000000  0.5078180000000 1.0
C      1  0.5479170000000  0.4506200000000  0.4924110000000 1.0
C      1  0.5217550000000  0.5019810000000  0.5121790000000 1.0
C      1  0.4782510000000  0.5019820000000  0.4878120000000 1.0
C      1  0.5456220000000  0.4511700000000  0.5397740000000 1.0
C      1  0.4542480000000  0.4511070000000  0.4604530000000 1.0
C      1  0.5270080000000  0.5302550000000  0.5675940000000 1.0
C      1  0.4730730000000  0.5300120000000  0.4322660000000 1.0
C      1  0.5523810000000  0.4452260000000  0.4342230000000 1.0
C      1  0.4474740000000  0.4456720000000  0.5660310000000 1.0
C      1  0.5305010000000  0.4399770000000  0.5602500000000 1.0
C      1  0.4693390000000  0.4397790000000  0.4400300000000 1.0
C      1  0.5847460000000  0.5166820000000  0.5203780000000 1.0
C      1  0.4152990000000  0.5168130000000  0.4795440000000 1.0
END
