TITL C-111507-4570-1 53.8295420122848 125000 -62.1639878692206 0 0 10 (C1) n - 1
REM
REM in /rds/project/t2_vol4/rds-t2-cs072/BORA/CARBON/from-Arr/AIRSS/Generating-Clusters/GAP-ML-2020/Higher-Symm/SD-CG/HFTN-CG
REM
REM
REM
REM
REM
REM ./C.cell (b20cbc046b6831c77cfcea5457e17084)
REM AIRSS Version 0.9.1 bugfix July 2018 build 013d7b7c2542+ Fri, 06 Jul 2018 19:26:36 +0100
REM compiler GCC version 9.3.0
REM options -cpp -mtune=generic -march=x86-64 -g -O0
REM seed 2057425378 -1260613767 1714301853 472521846 1747383363 -1012856135 -718157765 349730773 -1573019177 -859344634 139923299 -375082912 353580030 -1864557496 426445847 -192908050 -2093447934 2056542219 858217347 -1897776881 -482296954 1916001061 2003433964 -1008370723 -739847079 1642687309 -236260341 -60662751 -1520619965 1916241352 688892001 -1286576573 -1881783167
REM
CELL 1.54180   50.00000   50.00000   50.00000   90.00000   90.00000   90.00000
LATT -1
SFAC C  
C      1  0.5008850000000  0.4756170000000  0.4849400000000 1.0
C      1  0.5158160000000  0.4982390000000  0.4731950000000 1.0
C      1  0.4686810000000  0.5023910000000  0.5071370000000 1.0
C      1  0.4991600000000  0.5395320000000  0.4984690000000 1.0
C      1  0.4894710000000  0.4967260000000  0.5260870000000 1.0
C      1  0.5302820000000  0.5001640000000  0.4988480000000 1.0
C      1  0.4855780000000  0.5225920000000  0.5141150000000 1.0
C      1  0.5110270000000  0.4815770000000  0.5111940000000 1.0
C      1  0.5160700000000  0.5219200000000  0.4879640000000 1.0
C      1  0.4752000000000  0.4790830000000  0.4937550000000 1.0
END
