TITL C-114847-6413-5 -0.00738180364184959 125000 -146.551278528358 0 0 23 (C1) n - 1
REM
REM in /rds/project/t2_vol4/rds-t2-cs072/BORA/CARBON/from-Arr/AIRSS/Generating-Clusters/GAP-ML-2020/Higher-Symm/SD-CG/HFTN-CG
REM
REM
REM
REM
REM
REM ./C.cell (b20cbc046b6831c77cfcea5457e17084)
REM AIRSS Version 0.9.1 bugfix July 2018 build 013d7b7c2542+ Fri, 06 Jul 2018 19:26:36 +0100
REM compiler GCC version 9.3.0
REM options -cpp -mtune=generic -march=x86-64 -g -O0
REM seed -1794547454 -1752652824 -1635933024 -1530459597 -821762424 -1736912088 -1276884888 1349450422 968683789 -1920678326 1418816851 96246720 1131354710 -517152081 1978555241 -344875929 -590674828 -47592268 -1373743801 1065283372 -91852718 -1765895536 2092453849 -1778082945 -848813971 1449209042 898946237 -2051697524 1737060581 880232992 -1493013016 1726013933 -1516141492
REM
CELL 1.54180   50.00000   50.00000   50.00000   90.00000   90.00000   90.00000
LATT -1
SFAC C  
C      1  0.4872760000000  0.4524970000000  0.4969860000000 1.0
C      1  0.4860470000000  0.5471900000000  0.5039810000000 1.0
C      1  0.5289330000000  0.5255540000000  0.5300650000000 1.0
C      1  0.5306530000000  0.4737690000000  0.4722000000000 1.0
C      1  0.4765950000000  0.5166140000000  0.4714560000000 1.0
C      1  0.4741900000000  0.4823940000000  0.5284640000000 1.0
C      1  0.4727390000000  0.5279540000000  0.5169890000000 1.0
C      1  0.4748220000000  0.4714470000000  0.4827490000000 1.0
C      1  0.4616750000000  0.4861170000000  0.5032350000000 1.0
C      1  0.4617840000000  0.5128810000000  0.4954540000000 1.0
C      1  0.5154290000000  0.4513430000000  0.5370480000000 1.0
C      1  0.5169320000000  0.5478720000000  0.4646350000000 1.0
C      1  0.4818090000000  0.5094350000000  0.5381270000000 1.0
C      1  0.4858500000000  0.4901380000000  0.4628100000000 1.0
C      1  0.4918950000000  0.4599670000000  0.5243210000000 1.0
C      1  0.4931330000000  0.5393660000000  0.4768560000000 1.0
C      1  0.5304980000000  0.5307910000000  0.4787450000000 1.0
C      1  0.5302600000000  0.4675140000000  0.5231060000000 1.0
C      1  0.5330370000000  0.5193810000000  0.5030150000000 1.0
C      1  0.5319870000000  0.4803700000000  0.4993210000000 1.0
C      1  0.5093270000000  0.5096480000000  0.5381930000000 1.0
C      1  0.5126830000000  0.4866870000000  0.4589190000000 1.0
C      1  0.5105580000000  0.4998730000000  0.5026640000000 1.0
END
