TITL C-110362-5482-4 6.21146837267087 125000 -334.882043944143 0 0 48 (C1) n - 1
REM
REM in /rds/project/t2_vol4/rds-t2-cs072/BORA/CARBON/from-Arr/AIRSS/Generating-Clusters/GAP-ML-2020/Higher-Symm/SD-CG/HFTN-CG
REM
REM
REM
REM
REM
REM ./C.cell (b20cbc046b6831c77cfcea5457e17084)
REM AIRSS Version 0.9.1 bugfix July 2018 build 013d7b7c2542+ Fri, 06 Jul 2018 19:26:36 +0100
REM compiler GCC version 9.3.0
REM options -cpp -mtune=generic -march=x86-64 -g -O0
REM seed -136496081 -8824375 1224102152 1302287860 -1482942964 281927467 -582829901 1849402510 -928838583 879883492 -916333853 -859507418 1502835255 -1867136910 -1099480762 630323131 -947411845 -1624769565 -52974278 1740727295 -651422917 1922945508 -1741184272 1421053778 1344880896 -1518452777 899177592 -1310730833 -1832015043 1561970317 703043499 452391792 1176272050
REM
CELL 1.54180   50.00000   50.00000   50.00000   90.00000   90.00000   90.00000
LATT -1
SFAC C  
C      1  0.5210900000000  0.4950790000000  0.4789540000000 1.0
C      1  0.4912080000000  0.5012020000000  0.4817020000000 1.0
C      1  0.4863180000000  0.5151090000000  0.5036160000000 1.0
C      1  0.4962690000000  0.4946520000000  0.5173100000000 1.0
C      1  0.5224430000000  0.4849970000000  0.5068880000000 1.0
C      1  0.5038160000000  0.4564780000000  0.4634150000000 1.0
C      1  0.5007530000000  0.5234150000000  0.4424950000000 1.0
C      1  0.5008790000000  0.5613590000000  0.5022000000000 1.0
C      1  0.5014500000000  0.5179210000000  0.5587590000000 1.0
C      1  0.5055460000000  0.4532250000000  0.5358390000000 1.0
C      1  0.4753990000000  0.4860660000000  0.4421830000000 1.0
C      1  0.4724140000000  0.5496020000000  0.4680790000000 1.0
C      1  0.4741130000000  0.5475630000000  0.5365160000000 1.0
C      1  0.4746730000000  0.4808540000000  0.5571310000000 1.0
C      1  0.4787810000000  0.4454890000000  0.4985640000000 1.0
C      1  0.4607680000000  0.4588160000000  0.4804740000000 1.0
C      1  0.4568610000000  0.5065710000000  0.4509790000000 1.0
C      1  0.4557380000000  0.5496420000000  0.4910440000000 1.0
C      1  0.4574140000000  0.5250510000000  0.5424770000000 1.0
C      1  0.4595260000000  0.4685930000000  0.5363500000000 1.0
C      1  0.5433460000000  0.4965750000000  0.5472730000000 1.0
C      1  0.5528340000000  0.4558340000000  0.5062630000000 1.0
C      1  0.5496890000000  0.4718370000000  0.4558200000000 1.0
C      1  0.5334190000000  0.5224550000000  0.4791640000000 1.0
C      1  0.5382530000000  0.5292250000000  0.5070680000000 1.0
C      1  0.4727080000000  0.5303940000000  0.4480530000000 1.0
C      1  0.4729780000000  0.5598160000000  0.5117870000000 1.0
C      1  0.4740920000000  0.5083640000000  0.5583270000000 1.0
C      1  0.4786280000000  0.4498940000000  0.5257400000000 1.0
C      1  0.4768640000000  0.4630960000000  0.4573970000000 1.0
C      1  0.4438000000000  0.4792420000000  0.4902320000000 1.0
C      1  0.4422280000000  0.5041220000000  0.4756320000000 1.0
C      1  0.4406080000000  0.5255860000000  0.4953680000000 1.0
C      1  0.4414080000000  0.5133800000000  0.5219490000000 1.0
C      1  0.4432490000000  0.4844930000000  0.5187020000000 1.0
C      1  0.5056390000000  0.4459680000000  0.4892030000000 1.0
C      1  0.5025350000000  0.4958870000000  0.4374300000000 1.0
C      1  0.4999390000000  0.5555920000000  0.4750060000000 1.0
C      1  0.5020460000000  0.5407270000000  0.5424300000000 1.0
C      1  0.5025380000000  0.4720640000000  0.5565320000000 1.0
C      1  0.5193040000000  0.4953100000000  0.5590570000000 1.0
C      1  0.5238220000000  0.4556880000000  0.5116920000000 1.0
C      1  0.5218650000000  0.4784990000000  0.4539140000000 1.0
C      1  0.5174530000000  0.5378720000000  0.4614720000000 1.0
C      1  0.5194210000000  0.5468930000000  0.5196210000000 1.0
C      1  0.5583090000000  0.4678590000000  0.4809440000000 1.0
C      1  0.5458970000000  0.5016180000000  0.5193810000000 1.0
C      1  0.5642980000000  0.4826030000000  0.5045950000000 1.0
END
