TITL C-116602-5965-7 -0.0416225065977473 125000 -851.994629692306 0 0 118 (C1) n - 1
REM
REM in /rds/project/t2_vol4/rds-t2-cs072/BORA/CARBON/from-Arr/AIRSS/Generating-Clusters/GAP-ML-2020/Higher-Symm/SD-CG/HFTN-CG
REM
REM
REM
REM
REM
REM ./C.cell (b20cbc046b6831c77cfcea5457e17084)
REM AIRSS Version 0.9.1 bugfix July 2018 build 013d7b7c2542+ Fri, 06 Jul 2018 19:26:36 +0100
REM compiler GCC version 9.3.0
REM options -cpp -mtune=generic -march=x86-64 -g -O0
REM seed 859640402 -2049252246 -793116338 1134225658 -2069020263 189234070 -1987840191 -1993057066 -1523217578 -182508744 -304610538 542407887 -988239504 2075690012 343515171 -320151545 -78200445 -133842046 -489743560 -1976498344 -1495525534 -823322636 -1673620590 -928510113 1967019968 1973690090 -1980578223 -816393025 379418418 502281493 1811003401 399180491 -54436997
REM
CELL 1.54180   50.00000   50.00000   50.00000   90.00000   90.00000   90.00000
LATT -1
SFAC C  
C      1  0.5549050000000  0.4945420000000  0.5765800000000 1.0
C      1  0.4553930000000  0.4976430000000  0.4356670000000 1.0
C      1  0.5552610000000  0.5032560000000  0.4230270000000 1.0
C      1  0.4555360000000  0.5024380000000  0.5636520000000 1.0
C      1  0.4650400000000  0.4733570000000  0.4195120000000 1.0
C      1  0.5371030000000  0.4733650000000  0.5862060000000 1.0
C      1  0.4656470000000  0.5261070000000  0.5802730000000 1.0
C      1  0.5379540000000  0.5249760000000  0.4133290000000 1.0
C      1  0.5055460000000  0.4861290000000  0.5415170000000 1.0
C      1  0.4915530000000  0.4769940000000  0.4650190000000 1.0
C      1  0.5070850000000  0.5128850000000  0.4578730000000 1.0
C      1  0.4917590000000  0.5241220000000  0.5341130000000 1.0
C      1  0.5106270000000  0.5868810000000  0.4652010000000 1.0
C      1  0.4930100000000  0.5878190000000  0.5323710000000 1.0
C      1  0.5092840000000  0.4114840000000  0.5354850000000 1.0
C      1  0.4907250000000  0.4098180000000  0.4684380000000 1.0
C      1  0.4359510000000  0.5283100000000  0.4866970000000 1.0
C      1  0.5590720000000  0.5310560000000  0.5059360000000 1.0
C      1  0.4350840000000  0.4721270000000  0.5135690000000 1.0
C      1  0.5581090000000  0.4660330000000  0.4941410000000 1.0
C      1  0.5074250000000  0.5457790000000  0.5866650000000 1.0
C      1  0.4944350000000  0.5447800000000  0.4100190000000 1.0
C      1  0.5065440000000  0.4526750000000  0.4130720000000 1.0
C      1  0.4934110000000  0.4543650000000  0.5899290000000 1.0
C      1  0.5109130000000  0.4358080000000  0.5781930000000 1.0
C      1  0.4887910000000  0.4351180000000  0.4265860000000 1.0
C      1  0.5122540000000  0.5629590000000  0.4219490000000 1.0
C      1  0.4901150000000  0.5638200000000  0.5734170000000 1.0
C      1  0.4686290000000  0.5468890000000  0.4239860000000 1.0
C      1  0.5341570000000  0.5462830000000  0.5746080000000 1.0
C      1  0.4676520000000  0.4527640000000  0.5758550000000 1.0
C      1  0.5329960000000  0.4517530000000  0.4256480000000 1.0
C      1  0.5536380000000  0.4731120000000  0.4280730000000 1.0
C      1  0.4479950000000  0.4735140000000  0.5707090000000 1.0
C      1  0.5541990000000  0.5245450000000  0.5717740000000 1.0
C      1  0.4482640000000  0.5266350000000  0.4287880000000 1.0
C      1  0.5104550000000  0.4684110000000  0.5086550000000 1.0
C      1  0.4835820000000  0.4690960000000  0.5001860000000 1.0
C      1  0.5121270000000  0.5288510000000  0.4901710000000 1.0
C      1  0.4855180000000  0.5294640000000  0.4981720000000 1.0
C      1  0.4320040000000  0.5125110000000  0.5492270000000 1.0
C      1  0.5722890000000  0.5134720000000  0.4434450000000 1.0
C      1  0.4322250000000  0.4878030000000  0.4509140000000 1.0
C      1  0.5717870000000  0.4838690000000  0.5562910000000 1.0
C      1  0.4643200000000  0.5115000000000  0.4887540000000 1.0
C      1  0.5321560000000  0.5131680000000  0.5064810000000 1.0
C      1  0.4639930000000  0.4885660000000  0.5106590000000 1.0
C      1  0.5318000000000  0.4842760000000  0.4935950000000 1.0
C      1  0.4706380000000  0.4308460000000  0.5566780000000 1.0
C      1  0.5300250000000  0.4303760000000  0.4461540000000 1.0
C      1  0.4720010000000  0.5685380000000  0.4433470000000 1.0
C      1  0.5322060000000  0.5680600000000  0.5546450000000 1.0
C      1  0.4272450000000  0.4658520000000  0.5531610000000 1.0
C      1  0.5704620000000  0.4678340000000  0.4509610000000 1.0
C      1  0.4278930000000  0.5343390000000  0.4467990000000 1.0
C      1  0.5712000000000  0.5294780000000  0.5488930000000 1.0
C      1  0.5629770000000  0.4499800000000  0.4715820000000 1.0
C      1  0.4354050000000  0.4488810000000  0.5322690000000 1.0
C      1  0.5640320000000  0.5474540000000  0.5282960000000 1.0
C      1  0.4363770000000  0.5512350000000  0.4677050000000 1.0
C      1  0.5146480000000  0.4615680000000  0.5346380000000 1.0
C      1  0.4789480000000  0.4560340000000  0.4761180000000 1.0
C      1  0.5170080000000  0.5372720000000  0.4647670000000 1.0
C      1  0.4850240000000  0.5459040000000  0.5198510000000 1.0
C      1  0.5826330000000  0.5047150000000  0.5393570000000 1.0
C      1  0.4189710000000  0.5096800000000  0.4649800000000 1.0
C      1  0.5826410000000  0.4922530000000  0.4603160000000 1.0
C      1  0.4185030000000  0.4909870000000  0.5350420000000 1.0
C      1  0.4637960000000  0.4473370000000  0.4322870000000 1.0
C      1  0.5364630000000  0.4470070000000  0.5731880000000 1.0
C      1  0.4642440000000  0.5525360000000  0.5682120000000 1.0
C      1  0.5376850000000  0.5512630000000  0.4266270000000 1.0
C      1  0.4043200000000  0.5062250000000  0.5135970000000 1.0
C      1  0.5896740000000  0.5033200000000  0.4859760000000 1.0
C      1  0.4043690000000  0.4949530000000  0.4863530000000 1.0
C      1  0.5894110000000  0.4932400000000  0.5137600000000 1.0
C      1  0.5686050000000  0.5367840000000  0.4590780000000 1.0
C      1  0.4311920000000  0.5382950000000  0.5369040000000 1.0
C      1  0.5675650000000  0.4605580000000  0.5408720000000 1.0
C      1  0.4313620000000  0.4625740000000  0.4642680000000 1.0
C      1  0.5465690000000  0.5696020000000  0.5291910000000 1.0
C      1  0.4563460000000  0.5711910000000  0.4677220000000 1.0
C      1  0.5449340000000  0.4282920000000  0.4710940000000 1.0
C      1  0.4548160000000  0.4281650000000  0.5325830000000 1.0
C      1  0.4693900000000  0.5718270000000  0.5221480000000 1.0
C      1  0.5356840000000  0.5774660000000  0.4749910000000 1.0
C      1  0.4651740000000  0.4196600000000  0.4787950000000 1.0
C      1  0.5344650000000  0.4205720000000  0.5255870000000 1.0
C      1  0.4902110000000  0.5238980000000  0.5956840000000 1.0
C      1  0.5109780000000  0.5218360000000  0.4009790000000 1.0
C      1  0.4897810000000  0.4751170000000  0.4040310000000 1.0
C      1  0.5103310000000  0.4770010000000  0.5987140000000 1.0
C      1  0.4189800000000  0.5305680000000  0.5119250000000 1.0
C      1  0.5779550000000  0.5288180000000  0.4846080000000 1.0
C      1  0.4181650000000  0.4702180000000  0.4884760000000 1.0
C      1  0.5771060000000  0.4680210000000  0.5153000000000 1.0
C      1  0.5333560000000  0.4162390000000  0.4957250000000 1.0
C      1  0.4663650000000  0.4158130000000  0.5088190000000 1.0
C      1  0.5350020000000  0.5820540000000  0.5046980000000 1.0
C      1  0.4682430000000  0.5818600000000  0.4917530000000 1.0
C      1  0.4920230000000  0.4053190000000  0.5139460000000 1.0
C      1  0.5077380000000  0.4053000000000  0.4904710000000 1.0
C      1  0.4935190000000  0.5929700000000  0.4869840000000 1.0
C      1  0.5094850000000  0.5930560000000  0.5102250000000 1.0
C      1  0.4988840000000  0.5778550000000  0.4416560000000 1.0
C      1  0.5054410000000  0.5788630000000  0.5555730000000 1.0
C      1  0.4973460000000  0.4209670000000  0.5586880000000 1.0
C      1  0.5030610000000  0.4201210000000  0.4453450000000 1.0
C      1  0.5448130000000  0.5532550000000  0.4560980000000 1.0
C      1  0.4506780000000  0.5584090000000  0.5430200000000 1.0
C      1  0.5438560000000  0.4443630000000  0.5440930000000 1.0
C      1  0.4543550000000  0.4443430000000  0.4612830000000 1.0
C      1  0.5175400000000  0.5111350000000  0.5326910000000 1.0
C      1  0.4773060000000  0.5026860000000  0.4608810000000 1.0
C      1  0.5180010000000  0.4873790000000  0.4671970000000 1.0
C      1  0.4768180000000  0.4980570000000  0.5379890000000 1.0
C      1  0.4996500000000  0.5007270000000  0.6066280000000 1.0
C      1  0.4997930000000  0.4981950000000  0.3932950000000 1.0
END
