TITL C-110360-4485-6 -97.1395086789276 125000 -332.049207053113 0 0 48 (Td) n - 1
REM
REM in /rds/project/t2_vol4/rds-t2-cs072/BORA/CARBON/from-Arr/AIRSS/Generating-Clusters/GAP-ML-2020/Higher-Symm/SD-CG/HFTN-CG
REM
REM
REM
REM
REM
REM ./C.cell (b20cbc046b6831c77cfcea5457e17084)
REM AIRSS Version 0.9.1 bugfix July 2018 build 013d7b7c2542+ Fri, 06 Jul 2018 19:26:36 +0100
REM compiler GCC version 9.3.0
REM options -cpp -mtune=generic -march=x86-64 -g -O0
REM seed -47862149 1703657247 -6650782 2140046887 1349539853 1023169222 -1350532737 2139206696 -1714066075 1092231803 70333857 -1330184530 39383589 1009929761 1890906771 -222804664 -1957737417 -582741914 168596839 198238105 2083287049 -1160721243 251097636 -1293550349 -203893842 -842350017 -1905228027 1044900831 580617681 -211892521 219818246 1199008472 -1442321727
REM
CELL 1.54180   50.00000   50.00000   50.00000   90.00000   90.00000   90.00000
LATT -1
SFAC C  
C      1  0.5340520000000  0.4455950000000  0.4862900000000 1.0
C      1  0.4862900000000  0.5340520000000  0.4455950000000 1.0
C      1  0.4455950000000  0.4862900000000  0.5340520000000 1.0
C      1  0.4659480000000  0.5544050000000  0.4862900000000 1.0
C      1  0.4659480000000  0.4455950000000  0.5137100000000 1.0
C      1  0.5340520000000  0.5544050000000  0.5137100000000 1.0
C      1  0.5137100000000  0.4659480000000  0.4455950000000 1.0
C      1  0.5137100000000  0.5340520000000  0.5544050000000 1.0
C      1  0.4862900000000  0.4659480000000  0.5544050000000 1.0
C      1  0.5544050000000  0.5137100000000  0.5340520000000 1.0
C      1  0.5544050000000  0.4862900000000  0.4659480000000 1.0
C      1  0.4455950000000  0.5137100000000  0.4659480000000 1.0
C      1  0.4455950000000  0.5340520000000  0.4862900000000 1.0
C      1  0.5340520000000  0.4862900000000  0.4455950000000 1.0
C      1  0.4862900000000  0.4455950000000  0.5340520000000 1.0
C      1  0.5544050000000  0.4659480000000  0.4862900000000 1.0
C      1  0.4455950000000  0.4659480000000  0.5137100000000 1.0
C      1  0.5544050000000  0.5340520000000  0.5137100000000 1.0
C      1  0.4659480000000  0.5137100000000  0.4455950000000 1.0
C      1  0.5340520000000  0.5137100000000  0.5544050000000 1.0
C      1  0.4659480000000  0.4862900000000  0.5544050000000 1.0
C      1  0.5137100000000  0.5544050000000  0.5340520000000 1.0
C      1  0.4862900000000  0.5544050000000  0.4659480000000 1.0
C      1  0.5137100000000  0.4455950000000  0.4659480000000 1.0
C      1  0.5102780000000  0.4723350000000  0.5682730000000 1.0
C      1  0.5682730000000  0.5102780000000  0.4723350000000 1.0
C      1  0.4723350000000  0.5682730000000  0.5102780000000 1.0
C      1  0.4897220000000  0.5276650000000  0.5682730000000 1.0
C      1  0.4897220000000  0.4723350000000  0.4317270000000 1.0
C      1  0.5102780000000  0.5276650000000  0.4317270000000 1.0
C      1  0.4317270000000  0.4897220000000  0.4723350000000 1.0
C      1  0.4317270000000  0.5102780000000  0.5276650000000 1.0
C      1  0.5682730000000  0.4897220000000  0.5276650000000 1.0
C      1  0.5276650000000  0.4317270000000  0.5102780000000 1.0
C      1  0.5276650000000  0.5682730000000  0.4897220000000 1.0
C      1  0.4723350000000  0.4317270000000  0.4897220000000 1.0
C      1  0.4723350000000  0.5102780000000  0.5682730000000 1.0
C      1  0.5102780000000  0.5682730000000  0.4723350000000 1.0
C      1  0.5682730000000  0.4723350000000  0.5102780000000 1.0
C      1  0.5276650000000  0.4897220000000  0.5682730000000 1.0
C      1  0.4723350000000  0.4897220000000  0.4317270000000 1.0
C      1  0.5276650000000  0.5102780000000  0.4317270000000 1.0
C      1  0.4897220000000  0.4317270000000  0.4723350000000 1.0
C      1  0.5102780000000  0.4317270000000  0.5276650000000 1.0
C      1  0.4897220000000  0.5682730000000  0.5276650000000 1.0
C      1  0.4317270000000  0.5276650000000  0.5102780000000 1.0
C      1  0.5682730000000  0.5276650000000  0.4897220000000 1.0
C      1  0.4317270000000  0.4723350000000  0.4897220000000 1.0
END
