TITL C-111524-4059-7 -0.185035844621974 125000 -827.500700406126 0 0 120 (C1) n - 1
REM
REM in /rds/project/t2_vol4/rds-t2-cs072/BORA/CARBON/from-Arr/AIRSS/Generating-Clusters/GAP-ML-2020/Higher-Symm/SD-CG/HFTN-CG
REM
REM
REM
REM
REM
REM ./C.cell (b20cbc046b6831c77cfcea5457e17084)
REM AIRSS Version 0.9.1 bugfix July 2018 build 013d7b7c2542+ Fri, 06 Jul 2018 19:26:36 +0100
REM compiler GCC version 9.3.0
REM options -cpp -mtune=generic -march=x86-64 -g -O0
REM seed -1336456121 569608632 570327234 216028828 -680071491 -1113557483 224553138 930996320 214628459 -178030553 -516389350 -1327556902 56637503 915261603 -979932258 1740365958 -714693594 414952609 1930486644 -1647741868 181498580 -1873887515 -1274951331 6627761 1409010007 -2085471721 2000459289 511350242 1021542137 2058643475 -646304689 -1207468218 2018536160
REM
CELL 1.54180   50.00000   50.00000   50.00000   90.00000   90.00000   90.00000
LATT -1
SFAC C  
C      1  0.5037970000000  0.5519240000000  0.4983420000000 1.0
C      1  0.5040160000000  0.5134060000000  0.4474180000000 1.0
C      1  0.5023400000000  0.4549120000000  0.4724300000000 1.0
C      1  0.5026100000000  0.4597570000000  0.5320600000000 1.0
C      1  0.5022080000000  0.5182350000000  0.5467080000000 1.0
C      1  0.4908540000000  0.5682140000000  0.5419270000000 1.0
C      1  0.4959800000000  0.5616860000000  0.4497500000000 1.0
C      1  0.4937010000000  0.4692820000000  0.4262950000000 1.0
C      1  0.4926060000000  0.4194550000000  0.5067860000000 1.0
C      1  0.4927120000000  0.4812690000000  0.5769930000000 1.0
C      1  0.5942430000000  0.5239700000000  0.5011760000000 1.0
C      1  0.5941460000000  0.5086050000000  0.4770750000000 1.0
C      1  0.5940980000000  0.4809530000000  0.4841070000000 1.0
C      1  0.5940330000000  0.4792010000000  0.5125960000000 1.0
C      1  0.5940910000000  0.5057270000000  0.5231660000000 1.0
C      1  0.4576500000000  0.6024820000000  0.5099690000000 1.0
C      1  0.4669770000000  0.5430470000000  0.4072080000000 1.0
C      1  0.4683900000000  0.4278220000000  0.4341030000000 1.0
C      1  0.4656890000000  0.4115000000000  0.5515680000000 1.0
C      1  0.4655680000000  0.5216520000000  0.5997730000000 1.0
C      1  0.4359790000000  0.4441450000000  0.5469790000000 1.0
C      1  0.4358030000000  0.5267690000000  0.5674350000000 1.0
C      1  0.4354680000000  0.5683180000000  0.4900020000000 1.0
C      1  0.4368990000000  0.5223150000000  0.4344350000000 1.0
C      1  0.4360660000000  0.4385460000000  0.4616280000000 1.0
C      1  0.4983940000000  0.5089840000000  0.3971290000000 1.0
C      1  0.4997560000000  0.4018890000000  0.4569070000000 1.0
C      1  0.4997310000000  0.4285000000000  0.5790540000000 1.0
C      1  0.4996770000000  0.5531590000000  0.5916840000000 1.0
C      1  0.4981160000000  0.6040860000000  0.4816210000000 1.0
C      1  0.5247640000000  0.5084220000000  0.4028220000000 1.0
C      1  0.5229320000000  0.4116830000000  0.4659770000000 1.0
C      1  0.5227500000000  0.4403640000000  0.5723750000000 1.0
C      1  0.5222170000000  0.5505600000000  0.5774800000000 1.0
C      1  0.5230370000000  0.5942630000000  0.4800570000000 1.0
C      1  0.5453370000000  0.5334370000000  0.5725820000000 1.0
C      1  0.5454670000000  0.5800890000000  0.4921210000000 1.0
C      1  0.5463910000000  0.5167680000000  0.4200930000000 1.0
C      1  0.5456580000000  0.4292680000000  0.4604410000000 1.0
C      1  0.5456960000000  0.4405910000000  0.5544200000000 1.0
C      1  0.5107670000000  0.4315450000000  0.5240530000000 1.0
C      1  0.5104570000000  0.5018360000000  0.5710280000000 1.0
C      1  0.5116660000000  0.5672670000000  0.5229730000000 1.0
C      1  0.5120160000000  0.5415290000000  0.4388820000000 1.0
C      1  0.5098570000000  0.4535550000000  0.4425490000000 1.0
C      1  0.5737910000000  0.5111650000000  0.5441060000000 1.0
C      1  0.5739620000000  0.5456180000000  0.5026950000000 1.0
C      1  0.5738680000000  0.5166530000000  0.4568470000000 1.0
C      1  0.5737180000000  0.4641310000000  0.4703460000000 1.0
C      1  0.5737180000000  0.4610770000000  0.5243300000000 1.0
C      1  0.4680530000000  0.5326710000000  0.4728340000000 1.0
C      1  0.4659070000000  0.4846730000000  0.4615240000000 1.0
C      1  0.4640980000000  0.4566420000000  0.5029470000000 1.0
C      1  0.4638820000000  0.4889880000000  0.5411040000000 1.0
C      1  0.4639970000000  0.5352660000000  0.5219300000000 1.0
C      1  0.5081920000000  0.4278870000000  0.4848210000000 1.0
C      1  0.5078910000000  0.4627880000000  0.5621220000000 1.0
C      1  0.5073150000000  0.5479580000000  0.5527430000000 1.0
C      1  0.5086710000000  0.5699020000000  0.4740070000000 1.0
C      1  0.5072190000000  0.4945470000000  0.4227840000000 1.0
C      1  0.4535770000000  0.4192080000000  0.4757630000000 1.0
C      1  0.4535390000000  0.4518250000000  0.5694290000000 1.0
C      1  0.4533700000000  0.5503160000000  0.5664830000000 1.0
C      1  0.4545150000000  0.5786510000000  0.4712320000000 1.0
C      1  0.4514580000000  0.5008650000000  0.4201910000000 1.0
C      1  0.4104800000000  0.5234740000000  0.4989530000000 1.0
C      1  0.4120600000000  0.5044150000000  0.4772630000000 1.0
C      1  0.4129750000000  0.4773840000000  0.4874730000000 1.0
C      1  0.4125780000000  0.4805190000000  0.5175720000000 1.0
C      1  0.4114290000000  0.5099160000000  0.5246010000000 1.0
C      1  0.4504750000000  0.5059120000000  0.5841140000000 1.0
C      1  0.4458680000000  0.5787580000000  0.5175130000000 1.0
C      1  0.4524030000000  0.5471320000000  0.4297640000000 1.0
C      1  0.4503840000000  0.4474370000000  0.4366910000000 1.0
C      1  0.4502730000000  0.4217280000000  0.5320180000000 1.0
C      1  0.5509190000000  0.4796980000000  0.4843520000000 1.0
C      1  0.5510430000000  0.4794520000000  0.5135550000000 1.0
C      1  0.5510480000000  0.5070220000000  0.5228360000000 1.0
C      1  0.5511150000000  0.5245140000000  0.4994140000000 1.0
C      1  0.5512790000000  0.5075730000000  0.4756120000000 1.0
C      1  0.4728100000000  0.5467050000000  0.5888210000000 1.0
C      1  0.4707770000000  0.5994810000000  0.4849550000000 1.0
C      1  0.4714680000000  0.5160700000000  0.4026100000000 1.0
C      1  0.4732330000000  0.4104680000000  0.4557040000000 1.0
C      1  0.4728270000000  0.4293560000000  0.5723590000000 1.0
C      1  0.5638370000000  0.4629940000000  0.5526770000000 1.0
C      1  0.5642500000000  0.5386100000000  0.5514880000000 1.0
C      1  0.5636480000000  0.5610420000000  0.4792490000000 1.0
C      1  0.5635590000000  0.4986470000000  0.4351350000000 1.0
C      1  0.5638490000000  0.4378840000000  0.4811350000000 1.0
C      1  0.4179740000000  0.5205650000000  0.5487530000000 1.0
C      1  0.4210160000000  0.5450530000000  0.4821970000000 1.0
C      1  0.4223260000000  0.5244550000000  0.4586770000000 1.0
C      1  0.4190620000000  0.4549370000000  0.4736020000000 1.0
C      1  0.4190470000000  0.4607350000000  0.5347940000000 1.0
C      1  0.5190540000000  0.5062510000000  0.4731710000000 1.0
C      1  0.5191410000000  0.4776370000000  0.4848100000000 1.0
C      1  0.5194630000000  0.4795630000000  0.5152350000000 1.0
C      1  0.5194990000000  0.5089060000000  0.5229000000000 1.0
C      1  0.5198200000000  0.5256980000000  0.4974130000000 1.0
C      1  0.5626650000000  0.5563120000000  0.5288510000000 1.0
C      1  0.5620790000000  0.5449350000000  0.4548770000000 1.0
C      1  0.5612580000000  0.4705070000000  0.4431880000000 1.0
C      1  0.5619460000000  0.4369760000000  0.5101610000000 1.0
C      1  0.5617140000000  0.4902790000000  0.5623560000000 1.0
C      1  0.4748750000000  0.5143470000000  0.5374610000000 1.0
C      1  0.4771210000000  0.5409340000000  0.4979360000000 1.0
C      1  0.4786930000000  0.5102810000000  0.4603660000000 1.0
C      1  0.4756030000000  0.4644260000000  0.4782990000000 1.0
C      1  0.4751040000000  0.4676950000000  0.5261210000000 1.0
C      1  0.4620540000000  0.4750420000000  0.4328960000000 1.0
C      1  0.4624590000000  0.4256820000000  0.5045330000000 1.0
C      1  0.4625280000000  0.4810190000000  0.5714150000000 1.0
C      1  0.4612750000000  0.5613500000000  0.5388560000000 1.0
C      1  0.4663350000000  0.5591940000000  0.4526400000000 1.0
C      1  0.5412140000000  0.5410200000000  0.4352160000000 1.0
C      1  0.5398340000000  0.4504890000000  0.4418510000000 1.0
C      1  0.5403080000000  0.4293720000000  0.5283910000000 1.0
C      1  0.5398330000000  0.5052190000000  0.5748960000000 1.0
C      1  0.5407620000000  0.5731080000000  0.5198600000000 1.0
END
