TITL C-110353-337-4 -0.0192541550596378 125000 -73.1440643995828 0 0 11 (Cs) n - 1
REM
REM in /rds/project/t2_vol4/rds-t2-cs072/BORA/CARBON/from-Arr/AIRSS/Generating-Clusters/GAP-ML-2020/Higher-Symm/SD-CG/HFTN-CG
REM
REM
REM
REM
REM
REM ./C.cell (b20cbc046b6831c77cfcea5457e17084)
REM AIRSS Version 0.9.1 bugfix July 2018 build 013d7b7c2542+ Fri, 06 Jul 2018 19:26:36 +0100
REM compiler GCC version 9.3.0
REM options -cpp -mtune=generic -march=x86-64 -g -O0
REM seed -1404733979 1068465470 1235861800 -789439855 1143071387 -775153793 -957574408 -625395390 -67310253 1849986670 2068577307 -937787863 1392462551 -964488468 996892282 109340190 1542845730 -780665917 -1253609909 -1371493718 -1603218898 1040659085 2130607322 -957861627 -1479302084 -1923019971 177014767 -1196845713 -1006913989 523533962 -8491630 -415405486 -93766409
REM
CELL 1.54180   50.00000   50.00000   50.00000   90.00000   90.00000   90.00000
LATT -1
SFAC C  
C      1  0.5012870000000  0.5462730000000  0.5000000000000 1.0
C      1  0.4760660000000  0.5396230000000  0.5000000000000 1.0
C      1  0.4584430000000  0.5203930000000  0.5000000000000 1.0
C      1  0.4540150000000  0.4946890000000  0.5000000000000 1.0
C      1  0.4641860000000  0.4706710000000  0.5000000000000 1.0
C      1  0.4857280000000  0.4559640000000  0.5000000000000 1.0
C      1  0.5118020000000  0.4552390000000  0.5000000000000 1.0
C      1  0.5341280000000  0.4687250000000  0.5000000000000 1.0
C      1  0.5456190000000  0.4921410000000  0.5000000000000 1.0
C      1  0.5426260000000  0.5180520000000  0.5000000000000 1.0
C      1  0.5261000000000  0.5382310000000  0.5000000000000 1.0
END
