TITL C-114845-6486-6 0.103206926938013 125000 -842.712223737727 0 0 121 (C1) n - 1
REM
REM in /rds/project/t2_vol4/rds-t2-cs072/BORA/CARBON/from-Arr/AIRSS/Generating-Clusters/GAP-ML-2020/Higher-Symm/SD-CG/HFTN-CG
REM
REM
REM
REM
REM
REM ./C.cell (b20cbc046b6831c77cfcea5457e17084)
REM AIRSS Version 0.9.1 bugfix July 2018 build 013d7b7c2542+ Fri, 06 Jul 2018 19:26:36 +0100
REM compiler GCC version 9.3.0
REM options -cpp -mtune=generic -march=x86-64 -g -O0
REM seed 1821118482 -1219433930 17845087 -1945014194 1210622193 -417912854 -1326186353 1192469826 -48537221 -1122925057 1554663605 157764673 1258341622 -1573634950 -645450853 80215570 1966724919 -1492027522 391515779 97345321 -1273319536 1292773663 -602007351 -1716815704 -418638324 -921711147 -770550480 607054694 544704409 491160748 -596260723 940863324 6362496
REM
CELL 1.54180   50.00000   50.00000   50.00000   90.00000   90.00000   90.00000
LATT -1
SFAC C  
C      1  0.5281690000000  0.4605470000000  0.4989620000000 1.0
C      1  0.5443480000000  0.4851820000000  0.5018440000000 1.0
C      1  0.5387730000000  0.5328480000000  0.5049020000000 1.0
C      1  0.4974670000000  0.5568210000000  0.5012350000000 1.0
C      1  0.4511270000000  0.5310030000000  0.5005550000000 1.0
C      1  0.4399850000000  0.4850260000000  0.5053290000000 1.0
C      1  0.4772860000000  0.4682590000000  0.4863180000000 1.0
C      1  0.5784630000000  0.5175930000000  0.5513110000000 1.0
C      1  0.5346960000000  0.5665540000000  0.5456180000000 1.0
C      1  0.4691960000000  0.5694290000000  0.5402330000000 1.0
C      1  0.4251940000000  0.5199090000000  0.5457750000000 1.0
C      1  0.4407450000000  0.4534250000000  0.5419660000000 1.0
C      1  0.5034070000000  0.4200000000000  0.5497720000000 1.0
C      1  0.5672320000000  0.4512640000000  0.5518990000000 1.0
C      1  0.5777370000000  0.4376950000000  0.5289680000000 1.0
C      1  0.5884400000000  0.5221080000000  0.5226680000000 1.0
C      1  0.5422560000000  0.5632360000000  0.5172160000000 1.0
C      1  0.4733580000000  0.5761710000000  0.5111520000000 1.0
C      1  0.4210280000000  0.5275340000000  0.5173840000000 1.0
C      1  0.4289120000000  0.4544660000000  0.5148920000000 1.0
C      1  0.4998550000000  0.4043390000000  0.5258720000000 1.0
C      1  0.5836560000000  0.4515340000000  0.4840190000000 1.0
C      1  0.5756520000000  0.5210520000000  0.4704470000000 1.0
C      1  0.5377790000000  0.5848840000000  0.4777480000000 1.0
C      1  0.4489160000000  0.5712720000000  0.4691980000000 1.0
C      1  0.4095320000000  0.5120490000000  0.4734140000000 1.0
C      1  0.4453710000000  0.4347220000000  0.4722400000000 1.0
C      1  0.5188640000000  0.4099150000000  0.4820570000000 1.0
C      1  0.4745530000000  0.5787460000000  0.4589580000000 1.0
C      1  0.4337740000000  0.5095620000000  0.4539530000000 1.0
C      1  0.4343690000000  0.4624720000000  0.4634590000000 1.0
C      1  0.4836260000000  0.4422840000000  0.4461930000000 1.0
C      1  0.5366320000000  0.4491020000000  0.4525580000000 1.0
C      1  0.5617830000000  0.4956380000000  0.4582550000000 1.0
C      1  0.5197140000000  0.5713150000000  0.4441890000000 1.0
C      1  0.4922160000000  0.5374360000000  0.4271370000000 1.0
C      1  0.4665210000000  0.5230010000000  0.4253500000000 1.0
C      1  0.4643180000000  0.4934890000000  0.4244270000000 1.0
C      1  0.4859920000000  0.4756800000000  0.4141630000000 1.0
C      1  0.5148620000000  0.4793000000000  0.4150130000000 1.0
C      1  0.5306040000000  0.5043970000000  0.4175330000000 1.0
C      1  0.5211490000000  0.5306150000000  0.4241100000000 1.0
C      1  0.5112700000000  0.4680430000000  0.5203210000000 1.0
C      1  0.5291900000000  0.4921540000000  0.5247530000000 1.0
C      1  0.5178320000000  0.5175260000000  0.5170810000000 1.0
C      1  0.4967250000000  0.5378170000000  0.5239580000000 1.0
C      1  0.4716720000000  0.5200880000000  0.5182190000000 1.0
C      1  0.4611730000000  0.4918130000000  0.5245410000000 1.0
C      1  0.4857350000000  0.4776850000000  0.5112740000000 1.0
C      1  0.4719000000000  0.5181600000000  0.5697260000000 1.0
C      1  0.4705510000000  0.4879860000000  0.5687520000000 1.0
C      1  0.4922780000000  0.4666080000000  0.5692710000000 1.0
C      1  0.5226180000000  0.4706960000000  0.5723120000000 1.0
C      1  0.5368830000000  0.4969340000000  0.5733850000000 1.0
C      1  0.5250840000000  0.5244920000000  0.5725210000000 1.0
C      1  0.4970270000000  0.5331250000000  0.5698540000000 1.0
C      1  0.4937450000000  0.4637710000000  0.4644190000000 1.0
C      1  0.5208750000000  0.4678990000000  0.4699810000000 1.0
C      1  0.5354330000000  0.4967500000000  0.4749400000000 1.0
C      1  0.5265830000000  0.5262980000000  0.4797250000000 1.0
C      1  0.5002100000000  0.5399780000000  0.4758430000000 1.0
C      1  0.4554850000000  0.5115530000000  0.4769180000000 1.0
C      1  0.4522780000000  0.4808550000000  0.4806350000000 1.0
C      1  0.4934930000000  0.5573350000000  0.5506780000000 1.0
C      1  0.4466360000000  0.5329460000000  0.5591600000000 1.0
C      1  0.4461450000000  0.4797790000000  0.5523220000000 1.0
C      1  0.4844470000000  0.4396060000000  0.5584110000000 1.0
C      1  0.5405570000000  0.4484080000000  0.5629760000000 1.0
C      1  0.5654450000000  0.4966150000000  0.5644740000000 1.0
C      1  0.5427690000000  0.5460200000000  0.5630110000000 1.0
C      1  0.4794890000000  0.4065120000000  0.5073620000000 1.0
C      1  0.5645320000000  0.4199380000000  0.5123750000000 1.0
C      1  0.6018840000000  0.5005440000000  0.5098220000000 1.0
C      1  0.5692550000000  0.5612220000000  0.5044580000000 1.0
C      1  0.4873250000000  0.6002440000000  0.5016890000000 1.0
C      1  0.4099290000000  0.5507370000000  0.5038150000000 1.0
C      1  0.4029940000000  0.4625360000000  0.5063120000000 1.0
C      1  0.5516420000000  0.4896590000000  0.4309290000000 1.0
C      1  0.5387380000000  0.5505330000000  0.4380920000000 1.0
C      1  0.4937220000000  0.5577460000000  0.4484950000000 1.0
C      1  0.4418810000000  0.5325640000000  0.4388120000000 1.0
C      1  0.4425530000000  0.4843270000000  0.4412020000000 1.0
C      1  0.4824770000000  0.4491350000000  0.4208110000000 1.0
C      1  0.5367920000000  0.4639720000000  0.4283480000000 1.0
C      1  0.5240550000000  0.5789800000000  0.5027240000000 1.0
C      1  0.4499180000000  0.5657540000000  0.4980170000000 1.0
C      1  0.4144940000000  0.5039700000000  0.5036290000000 1.0
C      1  0.4404820000000  0.4323050000000  0.5001890000000 1.0
C      1  0.5230230000000  0.4026260000000  0.5098850000000 1.0
C      1  0.5922820000000  0.4543690000000  0.5116790000000 1.0
C      1  0.5685000000000  0.5286490000000  0.4992820000000 1.0
C      1  0.5312920000000  0.4243370000000  0.5511930000000 1.0
C      1  0.5800780000000  0.4762230000000  0.5513070000000 1.0
C      1  0.5694760000000  0.5440520000000  0.5525880000000 1.0
C      1  0.5103670000000  0.5804700000000  0.5447440000000 1.0
C      1  0.4443440000000  0.5586250000000  0.5441720000000 1.0
C      1  0.4194980000000  0.4925090000000  0.5470430000000 1.0
C      1  0.4602280000000  0.4338140000000  0.5435640000000 1.0
C      1  0.5840290000000  0.5515860000000  0.5276130000000 1.0
C      1  0.5089550000000  0.5963120000000  0.5202550000000 1.0
C      1  0.4287510000000  0.5654000000000  0.5186310000000 1.0
C      1  0.4025740000000  0.4860290000000  0.5233960000000 1.0
C      1  0.4580710000000  0.4199050000000  0.5181360000000 1.0
C      1  0.5429320000000  0.4114470000000  0.5271610000000 1.0
C      1  0.5965080000000  0.4778140000000  0.5262280000000 1.0
C      1  0.5617200000000  0.5689390000000  0.4762560000000 1.0
C      1  0.4914790000000  0.5967920000000  0.4728600000000 1.0
C      1  0.4113740000000  0.5426420000000  0.4756060000000 1.0
C      1  0.4061150000000  0.4671060000000  0.4764680000000 1.0
C      1  0.4892340000000  0.4100660000000  0.4803840000000 1.0
C      1  0.5648990000000  0.4287180000000  0.4844250000000 1.0
C      1  0.5965460000000  0.4990630000000  0.4813410000000 1.0
C      1  0.5839410000000  0.4768180000000  0.4697860000000 1.0
C      1  0.5624500000000  0.5480550000000  0.4566430000000 1.0
C      1  0.5183580000000  0.5941620000000  0.4602890000000 1.0
C      1  0.4312430000000  0.5529370000000  0.4569090000000 1.0
C      1  0.3928680000000  0.4894200000000  0.4675390000000 1.0
C      1  0.4702150000000  0.4233940000000  0.4629330000000 1.0
C      1  0.5411570000000  0.4245570000000  0.4683640000000 1.0
C      1  0.4929220000000  0.5050680000000  0.5018820000000 1.0
C      1  0.4845170000000  0.5155220000000  0.4762260000000 1.0
END
