TITL C-110370-4552-4 0.0842925107856066 125000 -405.358193401647 0 0 60 (C2h) n - 1
REM
REM in /rds/project/t2_vol4/rds-t2-cs072/BORA/CARBON/from-Arr/AIRSS/Generating-Clusters/GAP-ML-2020/Higher-Symm/SD-CG/HFTN-CG
REM
REM
REM
REM
REM
REM ./C.cell (b20cbc046b6831c77cfcea5457e17084)
REM AIRSS Version 0.9.1 bugfix July 2018 build 013d7b7c2542+ Fri, 06 Jul 2018 19:26:36 +0100
REM compiler GCC version 9.3.0
REM options -cpp -mtune=generic -march=x86-64 -g -O0
REM seed 1683900654 1034387244 -181962846 1858513159 2009281883 312958927 891264131 806469303 1201961044 777279640 -2103976666 1140394742 -586061497 -68027370 -831774037 -2074744570 767884608 -1789864126 -1962892389 -1740707331 -1975701379 390969301 -1368504860 -948759343 796205074 100321258 1870710121 2066772369 95650076 1572173997 -1406416137 -1927281757 -545548931
REM
CELL 1.54180   50.00000   50.00000   50.00000   90.00000   90.00000   90.00000
LATT -1
SFAC C  
C      1  0.5092640000000  0.4893620000000  0.5569150000000 1.0
C      1  0.4907290000000  0.5106380000000  0.5569140000000 1.0
C      1  0.5092710000000  0.4893620000000  0.4430860000000 1.0
C      1  0.4907360000000  0.5106380000000  0.4430850000000 1.0
C      1  0.4426560000000  0.4690960000000  0.5145710000000 1.0
C      1  0.5573420000000  0.5309040000000  0.5145780000000 1.0
C      1  0.4426580000000  0.4690960000000  0.4854220000000 1.0
C      1  0.5573440000000  0.5309040000000  0.4854290000000 1.0
C      1  0.5200600000000  0.4946060000000  0.5150360000000 1.0
C      1  0.4799380000000  0.5053940000000  0.5150340000000 1.0
C      1  0.5200620000000  0.4946060000000  0.4849660000000 1.0
C      1  0.4799400000000  0.5053940000000  0.4849640000000 1.0
C      1  0.5027120000000  0.4297800000000  0.4847800000000 1.0
C      1  0.4972900000000  0.5702200000000  0.4847810000000 1.0
C      1  0.5027100000000  0.4297800000000  0.5152190000000 1.0
C      1  0.4972880000000  0.5702200000000  0.5152200000000 1.0
C      1  0.4737930000000  0.4313540000000  0.4856950000000 1.0
C      1  0.5262090000000  0.5686460000000  0.4856990000000 1.0
C      1  0.4737910000000  0.4313540000000  0.5143010000000 1.0
C      1  0.5262070000000  0.5686460000000  0.5143050000000 1.0
C      1  0.4375160000000  0.5404970000000  0.4851580000000 1.0
C      1  0.5624860000000  0.4595030000000  0.4851650000000 1.0
C      1  0.4375140000000  0.5404970000000  0.5148350000000 1.0
C      1  0.5624840000000  0.4595030000000  0.5148420000000 1.0
C      1  0.4715650000000  0.4576520000000  0.4480070000000 1.0
C      1  0.5284410000000  0.5423480000000  0.4480110000000 1.0
C      1  0.4715590000000  0.4576520000000  0.5519890000000 1.0
C      1  0.5284350000000  0.5423480000000  0.5519930000000 1.0
C      1  0.4982270000000  0.4633740000000  0.5508030000000 1.0
C      1  0.5017670000000  0.5366260000000  0.5508040000000 1.0
C      1  0.4982330000000  0.4633740000000  0.4491960000000 1.0
C      1  0.5017730000000  0.5366260000000  0.4491970000000 1.0
C      1  0.5751080000000  0.4863730000000  0.5143290000000 1.0
C      1  0.4248910000000  0.5136270000000  0.5143200000000 1.0
C      1  0.5751090000000  0.4863730000000  0.4856800000000 1.0
C      1  0.4248920000000  0.5136270000000  0.4856710000000 1.0
C      1  0.4649530000000  0.5112680000000  0.5397840000000 1.0
C      1  0.5350420000000  0.4887320000000  0.5397880000000 1.0
C      1  0.4649580000000  0.5112680000000  0.4602120000000 1.0
C      1  0.5350470000000  0.4887320000000  0.4602160000000 1.0
C      1  0.5418610000000  0.5506810000000  0.4708550000000 1.0
C      1  0.4581420000000  0.4493190000000  0.4708500000000 1.0
C      1  0.5418580000000  0.5506810000000  0.5291500000000 1.0
C      1  0.4581390000000  0.4493190000000  0.5291450000000 1.0
C      1  0.5407420000000  0.4599630000000  0.5335970000000 1.0
C      1  0.4592540000000  0.5400360000000  0.5335930000000 1.0
C      1  0.5407460000000  0.4599640000000  0.4664070000000 1.0
C      1  0.4592580000000  0.5400370000000  0.4664030000000 1.0
C      1  0.4941390000000  0.4788460000000  0.4849380000000 1.0
C      1  0.5058630000000  0.5211540000000  0.4849390000000 1.0
C      1  0.4941370000000  0.4788460000000  0.5150610000000 1.0
C      1  0.5058610000000  0.5211540000000  0.5150620000000 1.0
C      1  0.4413190000000  0.4951560000000  0.5275240000000 1.0
C      1  0.5586780000000  0.5048430000000  0.5275310000000 1.0
C      1  0.4413220000000  0.4951570000000  0.4724690000000 1.0
C      1  0.5586810000000  0.5048440000000  0.4724760000000 1.0
C      1  0.4835410000000  0.5550250000000  0.5357190000000 1.0
C      1  0.5164540000000  0.4449750000000  0.5357200000000 1.0
C      1  0.4835460000000  0.5550250000000  0.4642800000000 1.0
C      1  0.5164590000000  0.4449750000000  0.4642810000000 1.0
END
