TITL C-110358-4396-4 0.0457140247712898 125000 -711.50760648852 0 0 98 (C2) n - 1
REM
REM in /rds/project/t2_vol4/rds-t2-cs072/BORA/CARBON/from-Arr/AIRSS/Generating-Clusters/GAP-ML-2020/Higher-Symm/SD-CG/HFTN-CG
REM
REM
REM
REM
REM
REM ./C.cell (b20cbc046b6831c77cfcea5457e17084)
REM AIRSS Version 0.9.1 bugfix July 2018 build 013d7b7c2542+ Fri, 06 Jul 2018 19:26:36 +0100
REM compiler GCC version 9.3.0
REM options -cpp -mtune=generic -march=x86-64 -g -O0
REM seed 1994620409 -454453737 -307769889 -655754764 939244633 1589621494 -309677148 -1109766037 81996748 -682178517 -83739856 1175880850 1155399865 -1243638862 2066508404 -1509265806 590288207 -298502486 818584844 828601368 -1740823950 1453223190 1676615974 662916745 -275860702 -848378694 264330041 1077779672 1450042755 2066143979 108176126 1180922879 -325466122
REM
CELL 1.54180   50.00000   50.00000   50.00000   90.00000   90.00000   90.00000
LATT -1
SFAC C  
C      1  0.5138740000000  0.5075650000000  0.5304250000000 1.0
C      1  0.4874240000000  0.5079800000000  0.4679650000000 1.0
C      1  0.4861330000000  0.4913330000000  0.5304330000000 1.0
C      1  0.5125680000000  0.4908840000000  0.4679670000000 1.0
C      1  0.5267540000000  0.5007010000000  0.5034230000000 1.0
C      1  0.4856610000000  0.5224540000000  0.4919790000000 1.0
C      1  0.5143370000000  0.4764220000000  0.4919880000000 1.0
C      1  0.4732470000000  0.4981810000000  0.5034300000000 1.0
C      1  0.4291270000000  0.5289550000000  0.4445430000000 1.0
C      1  0.5707600000000  0.5294910000000  0.5552830000000 1.0
C      1  0.5708590000000  0.4698960000000  0.4445420000000 1.0
C      1  0.4292540000000  0.4694200000000  0.5553160000000 1.0
C      1  0.4534500000000  0.5291470000000  0.4293540000000 1.0
C      1  0.5462980000000  0.5296170000000  0.5701920000000 1.0
C      1  0.4537190000000  0.4693010000000  0.5702190000000 1.0
C      1  0.5465330000000  0.4696950000000  0.4293590000000 1.0
C      1  0.4998690000000  0.4131880000000  0.4792660000000 1.0
C      1  0.5008470000000  0.4130520000000  0.5206430000000 1.0
C      1  0.5001260000000  0.5856820000000  0.4792190000000 1.0
C      1  0.4991580000000  0.5858400000000  0.5205960000000 1.0
C      1  0.4797430000000  0.4131410000000  0.5004560000000 1.0
C      1  0.5210290000000  0.4133150000000  0.4994830000000 1.0
C      1  0.4789710000000  0.5855650000000  0.4994420000000 1.0
C      1  0.5202570000000  0.5857400000000  0.5004040000000 1.0
C      1  0.4171570000000  0.4853860000000  0.4950140000000 1.0
C      1  0.5830930000000  0.4859900000000  0.5052070000000 1.0
C      1  0.5828420000000  0.5134920000000  0.4949860000000 1.0
C      1  0.4169090000000  0.5128940000000  0.5052200000000 1.0
C      1  0.4940620000000  0.4856490000000  0.4178300000000 1.0
C      1  0.5060090000000  0.4857540000000  0.5820010000000 1.0
C      1  0.4940120000000  0.5131710000000  0.5819950000000 1.0
C      1  0.5059180000000  0.5131870000000  0.4178210000000 1.0
C      1  0.4695460000000  0.5690040000000  0.4473860000000 1.0
C      1  0.5297830000000  0.5693990000000  0.5523430000000 1.0
C      1  0.5304410000000  0.4298480000000  0.4474160000000 1.0
C      1  0.4702300000000  0.4295100000000  0.5523880000000 1.0
C      1  0.4494410000000  0.5675200000000  0.4674710000000 1.0
C      1  0.5498350000000  0.5678420000000  0.5323030000000 1.0
C      1  0.4501730000000  0.4310560000000  0.5323520000000 1.0
C      1  0.5505510000000  0.4313430000000  0.4674960000000 1.0
C      1  0.5302080000000  0.4485520000000  0.4256680000000 1.0
C      1  0.4702200000000  0.4483700000000  0.5738690000000 1.0
C      1  0.4697730000000  0.5502880000000  0.4256480000000 1.0
C      1  0.5297980000000  0.5505510000000  0.5738340000000 1.0
C      1  0.4307200000000  0.4516630000000  0.5337400000000 1.0
C      1  0.5698500000000  0.4521420000000  0.4661850000000 1.0
C      1  0.4301420000000  0.5467200000000  0.4661760000000 1.0
C      1  0.5692880000000  0.5472360000000  0.5336970000000 1.0
C      1  0.5453060000000  0.5742630000000  0.5048770000000 1.0
C      1  0.4541530000000  0.5736550000000  0.4950120000000 1.0
C      1  0.4546950000000  0.4246200000000  0.5049280000000 1.0
C      1  0.5458460000000  0.4252230000000  0.4950410000000 1.0
C      1  0.5024960000000  0.5746000000000  0.5458840000000 1.0
C      1  0.4968000000000  0.5743760000000  0.4539380000000 1.0
C      1  0.5031890000000  0.4244800000000  0.4539780000000 1.0
C      1  0.4975150000000  0.4243050000000  0.5459250000000 1.0
C      1  0.5140490000000  0.4427850000000  0.5612060000000 1.0
C      1  0.4864730000000  0.4426780000000  0.4386730000000 1.0
C      1  0.4859660000000  0.5561280000000  0.5611790000000 1.0
C      1  0.5135120000000  0.5561700000000  0.4386390000000 1.0
C      1  0.5613390000000  0.4438400000000  0.5109570000000 1.0
C      1  0.4391120000000  0.4432630000000  0.4890690000000 1.0
C      1  0.5608860000000  0.5556120000000  0.4890240000000 1.0
C      1  0.4386640000000  0.5550470000000  0.5109420000000 1.0
C      1  0.4966400000000  0.4588540000000  0.5781240000000 1.0
C      1  0.5036320000000  0.4587300000000  0.4213980000000 1.0
C      1  0.5033790000000  0.5400690000000  0.5781010000000 1.0
C      1  0.4963490000000  0.5401080000000  0.4213770000000 1.0
C      1  0.5764240000000  0.4606490000000  0.4929350000000 1.0
C      1  0.4238630000000  0.4599960000000  0.5071130000000 1.0
C      1  0.5761380000000  0.5388890000000  0.5070730000000 1.0
C      1  0.4235740000000  0.5382280000000  0.4929330000000 1.0
C      1  0.4424040000000  0.4572600000000  0.4641290000000 1.0
C      1  0.5582330000000  0.4575580000000  0.5360820000000 1.0
C      1  0.5575870000000  0.5416020000000  0.4640920000000 1.0
C      1  0.4417760000000  0.5413420000000  0.5360740000000 1.0
C      1  0.4626920000000  0.4576330000000  0.4436650000000 1.0
C      1  0.5377770000000  0.4579230000000  0.5563400000000 1.0
C      1  0.4622370000000  0.5409880000000  0.5563260000000 1.0
C      1  0.5372950000000  0.5412170000000  0.4436340000000 1.0
C      1  0.4255680000000  0.5174640000000  0.5323680000000 1.0
C      1  0.5736480000000  0.5177420000000  0.4680940000000 1.0
C      1  0.5744400000000  0.4814340000000  0.5323600000000 1.0
C      1  0.4263450000000  0.4811220000000  0.4681220000000 1.0
C      1  0.5312920000000  0.5161390000000  0.4307480000000 1.0
C      1  0.4684130000000  0.5159990000000  0.5693760000000 1.0
C      1  0.5316040000000  0.4829200000000  0.5693770000000 1.0
C      1  0.4686910000000  0.4827050000000  0.4307650000000 1.0
C      1  0.5371990000000  0.5057640000000  0.5539400000000 1.0
C      1  0.4631980000000  0.5055190000000  0.4464940000000 1.0
C      1  0.4628140000000  0.4931460000000  0.5539520000000 1.0
C      1  0.5367890000000  0.4933330000000  0.4464880000000 1.0
C      1  0.5672420000000  0.5024900000000  0.5472830000000 1.0
C      1  0.4332080000000  0.5021390000000  0.4529710000000 1.0
C      1  0.5667810000000  0.4967160000000  0.4529560000000 1.0
C      1  0.4327690000000  0.4964170000000  0.5473010000000 1.0
C      1  0.4882040000000  0.4736510000000  0.5073920000000 1.0
C      1  0.5117980000000  0.5252340000000  0.5073760000000 1.0
END
