TITL C-111526-3889-9 0.00629559125673203 125000 -53.6667083697702 0 0 9 (D3h) n - 1
REM
REM in /rds/project/t2_vol4/rds-t2-cs072/BORA/CARBON/from-Arr/AIRSS/Generating-Clusters/GAP-ML-2020/Higher-Symm/SD-CG/HFTN-CG
REM
REM
REM
REM
REM
REM ./C.cell (b20cbc046b6831c77cfcea5457e17084)
REM AIRSS Version 0.9.1 bugfix July 2018 build 013d7b7c2542+ Fri, 06 Jul 2018 19:26:36 +0100
REM compiler GCC version 9.3.0
REM options -cpp -mtune=generic -march=x86-64 -g -O0
REM seed 1896974839 -1532930167 -925431925 -981555351 -685305013 451758057 2084389458 2009444889 -1719677757 -26057333 1024704000 -999927635 -383594392 -1016723435 -592343265 -56046045 1491921558 2079968948 1282991523 940855440 717984373 1172196210 -1074557458 1443937654 -2017933098 -431181922 -429101553 -1862375515 450152596 -2101793902 -1824821182 403713140 854457455
REM
CELL 1.54180   50.00000   50.00000   50.00000   90.00000   90.00000   90.00000
LATT -1
SFAC C  
C      1  0.5220770000000  0.5145090000000  0.5083700000000 1.0
C      1  0.5220530000000  0.4854660000000  0.5083940000000 1.0
C      1  0.5220630000000  0.4999660000000  0.4832300000000 1.0
C      1  0.4745850000000  0.4855050000000  0.5083980000000 1.0
C      1  0.4746090000000  0.5145480000000  0.5083740000000 1.0
C      1  0.4745950000000  0.5000060000000  0.4832340000000 1.0
C      1  0.4983530000000  0.5258830000000  0.5149150000000 1.0
C      1  0.4983280000000  0.4999750000000  0.4701280000000 1.0
C      1  0.4983100000000  0.4741420000000  0.5149580000000 1.0
END
