TITL C-116601-6178-7 324.059089684877 125000 -1247.7100472276 0 0 174 (C3) n - 1
REM
REM in /rds/project/t2_vol4/rds-t2-cs072/BORA/CARBON/from-Arr/AIRSS/Generating-Clusters/GAP-ML-2020/Higher-Symm/SD-CG/HFTN-CG
REM
REM
REM
REM
REM
REM ./C.cell (b20cbc046b6831c77cfcea5457e17084)
REM AIRSS Version 0.9.1 bugfix July 2018 build 013d7b7c2542+ Fri, 06 Jul 2018 19:26:36 +0100
REM compiler GCC version 9.3.0
REM options -cpp -mtune=generic -march=x86-64 -g -O0
REM seed 1130706391 444440623 -2113203457 -767875197 1801469783 1538834219 -832974518 -1136329553 136366979 1777640031 1291154607 -1329965720 -481151663 -1302020704 -1716338750 1684039416 -1762750765 -2048272915 -1467411487 369618026 117084141 1167193660 -672688018 -601283590 -1576633888 557400765 -1183944159 -1378271069 1574720467 1619239187 -2074728058 -615133406 1707484483
REM
CELL 1.54180   50.00000   50.00000   50.00000   90.00000   90.00000   90.00000
LATT -1
SFAC C  
C      1  0.5637040000000  0.4185370000000  0.4975090000000 1.0
C      1  0.5386980000000  0.5959000000000  0.4975020000000 1.0
C      1  0.3975990000000  0.4855630000000  0.4974870000000 1.0
C      1  0.5643290000000  0.5166750000000  0.4833220000000 1.0
C      1  0.4533970000000  0.5473710000000  0.4833080000000 1.0
C      1  0.4822800000000  0.4359530000000  0.4833140000000 1.0
C      1  0.4523380000000  0.5631740000000  0.5383150000000 1.0
C      1  0.4691140000000  0.4271420000000  0.5383200000000 1.0
C      1  0.5785330000000  0.5096870000000  0.5383310000000 1.0
C      1  0.4357500000000  0.5317130000000  0.4216950000000 1.0
C      1  0.5046730000000  0.4284900000000  0.4217060000000 1.0
C      1  0.5596050000000  0.5397910000000  0.4217100000000 1.0
C      1  0.5171800000000  0.4558840000000  0.5054100000000 1.0
C      1  0.5296150000000  0.5369370000000  0.5054100000000 1.0
C      1  0.4532030000000  0.5071790000000  0.5054010000000 1.0
C      1  0.5897520000000  0.5258230000000  0.4629390000000 1.0
C      1  0.4327660000000  0.5648100000000  0.4629190000000 1.0
C      1  0.4774950000000  0.4093630000000  0.4629280000000 1.0
C      1  0.4362020000000  0.4411400000000  0.5708430000000 1.0
C      1  0.5828620000000  0.4741890000000  0.5708600000000 1.0
C      1  0.4809110000000  0.5846760000000  0.5708440000000 1.0
C      1  0.4752770000000  0.5510910000000  0.4057140000000 1.0
C      1  0.4681300000000  0.4530300000000  0.4057160000000 1.0
C      1  0.5566270000000  0.4958710000000  0.4057260000000 1.0
C      1  0.5085180000000  0.5268790000000  0.5946260000000 1.0
C      1  0.4724480000000  0.4939510000000  0.5946220000000 1.0
C      1  0.5189990000000  0.4791770000000  0.5946280000000 1.0
C      1  0.5726410000000  0.5727540000000  0.4742000000000 1.0
C      1  0.4006770000000  0.5265280000000  0.4741810000000 1.0
C      1  0.5266920000000  0.4007160000000  0.4741990000000 1.0
C      1  0.4917470000000  0.6121930000000  0.5008100000000 1.0
C      1  0.4069650000000  0.4367570000000  0.5008040000000 1.0
C      1  0.6012880000000  0.4510510000000  0.5008270000000 1.0
C      1  0.4486630000000  0.5323040000000  0.5444910000000 1.0
C      1  0.4976850000000  0.4393950000000  0.5444990000000 1.0
C      1  0.5536360000000  0.5283040000000  0.5445040000000 1.0
C      1  0.4340610000000  0.4332550000000  0.4342740000000 1.0
C      1  0.5907830000000  0.4762590000000  0.4342920000000 1.0
C      1  0.4751800000000  0.5904820000000  0.4342750000000 1.0
C      1  0.5195840000000  0.4166970000000  0.5407520000000 1.0
C      1  0.5623440000000  0.5586170000000  0.5407540000000 1.0
C      1  0.4180580000000  0.5246880000000  0.5407380000000 1.0
C      1  0.4269950000000  0.4220020000000  0.5158190000000 1.0
C      1  0.6040480000000  0.4757770000000  0.5158390000000 1.0
C      1  0.4689510000000  0.6022220000000  0.5158200000000 1.0
C      1  0.5000490000000  0.4674130000000  0.5280850000000 1.0
C      1  0.5281920000000  0.5163400000000  0.5280870000000 1.0
C      1  0.4717490000000  0.5162500000000  0.5280810000000 1.0
C      1  0.5071570000000  0.5781810000000  0.5799220000000 1.0
C      1  0.4287020000000  0.4671190000000  0.5799150000000 1.0
C      1  0.5641110000000  0.4547060000000  0.5799320000000 1.0
C      1  0.5003010000000  0.5289520000000  0.5360160000000 1.0
C      1  0.4747710000000  0.4857900000000  0.5360140000000 1.0
C      1  0.5249150000000  0.4852610000000  0.5360200000000 1.0
C      1  0.5820150000000  0.4395410000000  0.4584940000000 1.0
C      1  0.5113580000000  0.6012510000000  0.4584810000000 1.0
C      1  0.4066420000000  0.4592050000000  0.4584720000000 1.0
C      1  0.5423800000000  0.4649770000000  0.5181300000000 1.0
C      1  0.5091380000000  0.5542160000000  0.5181230000000 1.0
C      1  0.4484760000000  0.4808080000000  0.5181180000000 1.0
C      1  0.5548960000000  0.5095180000000  0.5961630000000 1.0
C      1  0.4642940000000  0.5427960000000  0.5961510000000 1.0
C      1  0.4807760000000  0.4476930000000  0.5961560000000 1.0
C      1  0.5459200000000  0.5556290000000  0.5837650000000 1.0
C      1  0.4288500000000  0.5119660000000  0.5837520000000 1.0
C      1  0.5251990000000  0.4324110000000  0.5837660000000 1.0
C      1  0.4977870000000  0.4340520000000  0.5769970000000 1.0
C      1  0.5582070000000  0.5310680000000  0.5770020000000 1.0
C      1  0.4439780000000  0.5348860000000  0.5769880000000 1.0
C      1  0.4470440000000  0.5920550000000  0.5008350000000 1.0
C      1  0.4467560000000  0.4081110000000  0.5008400000000 1.0
C      1  0.6062000000000  0.4998340000000  0.5008570000000 1.0
C      1  0.4536430000000  0.4778020000000  0.4050640000000 1.0
C      1  0.5424170000000  0.4709390000000  0.4050750000000 1.0
C      1  0.5039740000000  0.5512510000000  0.4050680000000 1.0
C      1  0.4963940000000  0.4492760000000  0.4034000000000 1.0
C      1  0.5457470000000  0.5222260000000  0.4034050000000 1.0
C      1  0.4578940000000  0.5284910000000  0.4033940000000 1.0
C      1  0.5484360000000  0.5723510000000  0.5610630000000 1.0
C      1  0.4131140000000  0.5057800000000  0.5610480000000 1.0
C      1  0.5384280000000  0.4218740000000  0.5610650000000 1.0
C      1  0.4903740000000  0.4728950000000  0.6031770000000 1.0
C      1  0.5282700000000  0.5052300000000  0.6031810000000 1.0
C      1  0.4813190000000  0.5218820000000  0.6031750000000 1.0
C      1  0.5325040000000  0.4269960000000  0.4620840000000 1.0
C      1  0.5469780000000  0.5646460000000  0.4620820000000 1.0
C      1  0.4205320000000  0.5083550000000  0.4620680000000 1.0
C      1  0.4765010000000  0.5849430000000  0.5397590000000 1.0
C      1  0.4381810000000  0.4371830000000  0.5397580000000 1.0
C      1  0.5853040000000  0.4778770000000  0.5397750000000 1.0
C      1  0.5381760000000  0.4556120000000  0.5933250000000 1.0
C      1  0.5193380000000  0.5552680000000  0.5933200000000 1.0
C      1  0.4424520000000  0.4891270000000  0.5933120000000 1.0
C      1  0.4279580000000  0.4189550000000  0.4586650000000 1.0
C      1  0.6062150000000  0.4781260000000  0.4586850000000 1.0
C      1  0.4658430000000  0.6029160000000  0.4586650000000 1.0
C      1  0.5804890000000  0.5247000000000  0.4346700000000 1.0
C      1  0.4383750000000  0.5573470000000  0.4346520000000 1.0
C      1  0.4811590000000  0.4179490000000  0.4346600000000 1.0
C      1  0.5189730000000  0.5696900000000  0.4210790000000 1.0
C      1  0.4301730000000  0.4815750000000  0.4210700000000 1.0
C      1  0.5508830000000  0.4487290000000  0.4210850000000 1.0
C      1  0.5542160000000  0.4668370000000  0.4916070000000 1.0
C      1  0.5016140000000  0.5635330000000  0.4915990000000 1.0
C      1  0.4441730000000  0.4696300000000  0.4915940000000 1.0
C      1  0.4891440000000  0.6121020000000  0.4727040000000 1.0
C      1  0.4083490000000  0.4345440000000  0.4726990000000 1.0
C      1  0.6025160000000  0.4533520000000  0.4727220000000 1.0
C      1  0.5403870000000  0.5351610000000  0.4779470000000 1.0
C      1  0.4493600000000  0.5173930000000  0.4779370000000 1.0
C      1  0.5102610000000  0.4474450000000  0.4779460000000 1.0
C      1  0.4835700000000  0.4937010000000  0.5640220000000 1.0
C      1  0.5136590000000  0.4889300000000  0.5640260000000 1.0
C      1  0.5027470000000  0.5173740000000  0.5640240000000 1.0
C      1  0.5274470000000  0.4928650000000  0.4651590000000 1.0
C      1  0.4924610000000  0.5273320000000  0.4651530000000 1.0
C      1  0.4801050000000  0.4798000000000  0.4651530000000 1.0
C      1  0.3933280000000  0.5137770000000  0.4989470000000 1.0
C      1  0.5414050000000  0.4007310000000  0.4989680000000 1.0
C      1  0.5652670000000  0.5854920000000  0.4989660000000 1.0
C      1  0.5785950000000  0.4972430000000  0.5853150000000 1.0
C      1  0.4630760000000  0.5694560000000  0.5852990000000 1.0
C      1  0.4582980000000  0.4333070000000  0.5853020000000 1.0
C      1  0.5108660000000  0.5130500000000  0.4295310000000 1.0
C      1  0.4832760000000  0.5028750000000  0.4295280000000 1.0
C      1  0.5058840000000  0.4840700000000  0.4295310000000 1.0
C      1  0.4661520000000  0.4600600000000  0.4785690000000 1.0
C      1  0.5515170000000  0.4906530000000  0.4785780000000 1.0
C      1  0.4823400000000  0.5492850000000  0.4785690000000 1.0
C      1  0.4684980000000  0.5022090000000  0.4043660000000 1.0
C      1  0.5138540000000  0.4716010000000  0.4043720000000 1.0
C      1  0.5176830000000  0.5261840000000  0.4043720000000 1.0
C      1  0.4089410000000  0.5536410000000  0.4775980000000 1.0
C      1  0.4990790000000  0.3943170000000  0.4776130000000 1.0
C      1  0.5919890000000  0.5520400000000  0.4776200000000 1.0
C      1  0.4252110000000  0.5076460000000  0.4326430000000 1.0
C      1  0.5307840000000  0.4313980000000  0.4326580000000 1.0
C      1  0.5440300000000  0.5609510000000  0.4326560000000 1.0
C      1  0.5160850000000  0.6039280000000  0.5130270000000 1.0
C      1  0.4019510000000  0.4619680000000  0.5130170000000 1.0
C      1  0.5819590000000  0.4341050000000  0.5130390000000 1.0
C      1  0.4240640000000  0.4654010000000  0.5332370000000 1.0
C      1  0.5679260000000  0.4515420000000  0.5332550000000 1.0
C      1  0.5079970000000  0.5830590000000  0.5332450000000 1.0
C      1  0.5876790000000  0.5196110000000  0.5113910000000 1.0
C      1  0.4391750000000  0.5661290000000  0.5113720000000 1.0
C      1  0.4731420000000  0.4142610000000  0.5113800000000 1.0
C      1  0.5925030000000  0.5479290000000  0.5055290000000 1.0
C      1  0.4122390000000  0.5561460000000  0.5055070000000 1.0
C      1  0.4952560000000  0.3959250000000  0.5055210000000 1.0
C      1  0.5073820000000  0.4733060000000  0.4592520000000 1.0
C      1  0.5194340000000  0.5197340000000  0.4592530000000 1.0
C      1  0.4731990000000  0.5069570000000  0.4592470000000 1.0
C      1  0.5761540000000  0.4517020000000  0.4337610000000 1.0
C      1  0.5037610000000  0.5900910000000  0.4337490000000 1.0
C      1  0.4201090000000  0.4582020000000  0.4337420000000 1.0
C      1  0.4423840000000  0.5636110000000  0.5669730000000 1.0
C      1  0.4737090000000  0.4183070000000  0.5669810000000 1.0
C      1  0.5838830000000  0.5180870000000  0.5669920000000 1.0
C      1  0.6075330000000  0.5025470000000  0.4725510000000 1.0
C      1  0.4440320000000  0.5918490000000  0.4725290000000 1.0
C      1  0.4484450000000  0.4056020000000  0.4725340000000 1.0
C      1  0.5235230000000  0.5851890000000  0.5583380000000 1.0
C      1  0.4144530000000  0.4777850000000  0.5583270000000 1.0
C      1  0.5620030000000  0.4370300000000  0.5583460000000 1.0
C      1  0.4158510000000  0.4813800000000  0.4751710000000 1.0
C      1  0.5582040000000  0.4364310000000  0.4751900000000 1.0
C      1  0.5259550000000  0.5821870000000  0.4751820000000 1.0
C      1  0.4611900000000  0.5696510000000  0.4222150000000 1.0
C      1  0.4590980000000  0.4315530000000  0.4222180000000 1.0
C      1  0.5797400000000  0.4987900000000  0.4222310000000 1.0
C      1  0.4028320000000  0.5325400000000  0.5187320000000 1.0
C      1  0.5204010000000  0.3995830000000  0.5187500000000 1.0
C      1  0.5767600000000  0.5678790000000  0.5187520000000 1.0
END
