TITL C-114860-6443-1 -0.0851745431594565 125000 -229.43101108907 0 0 35 (C1) n - 1
REM
REM in /rds/project/t2_vol4/rds-t2-cs072/BORA/CARBON/from-Arr/AIRSS/Generating-Clusters/GAP-ML-2020/Higher-Symm/SD-CG/HFTN-CG
REM
REM
REM
REM
REM
REM ./C.cell (b20cbc046b6831c77cfcea5457e17084)
REM AIRSS Version 0.9.1 bugfix July 2018 build 013d7b7c2542+ Fri, 06 Jul 2018 19:26:36 +0100
REM compiler GCC version 9.3.0
REM options -cpp -mtune=generic -march=x86-64 -g -O0
REM seed -174027968 -1546725317 -371952086 1261556804 175979299 -915221063 -560196653 341967947 2116906348 1433122171 1805467351 951154006 -1210331170 1253960065 1876969500 -1236088760 10723930 331326674 1442762839 -438132 1343780751 1585508849 46443317 -486913654 920930713 1245167059 -749809652 -1500626207 406737126 -1710104892 -410573729 -354234035 639978164
REM
CELL 1.54180   50.00000   50.00000   50.00000   90.00000   90.00000   90.00000
LATT -1
SFAC C  
C      1  0.4869030000000  0.4394550000000  0.5178900000000 1.0
C      1  0.5433000000000  0.5350500000000  0.4991710000000 1.0
C      1  0.5643560000000  0.4967940000000  0.4821380000000 1.0
C      1  0.4921830000000  0.4488870000000  0.4902200000000 1.0
C      1  0.4943190000000  0.5544640000000  0.5085840000000 1.0
C      1  0.5232000000000  0.4899560000000  0.4644250000000 1.0
C      1  0.5090240000000  0.5415500000000  0.5424540000000 1.0
C      1  0.5150150000000  0.4481590000000  0.5266300000000 1.0
C      1  0.4363880000000  0.5182440000000  0.4828970000000 1.0
C      1  0.4783460000000  0.4657320000000  0.4718240000000 1.0
C      1  0.4344640000000  0.4944740000000  0.4732070000000 1.0
C      1  0.4787390000000  0.4820820000000  0.5362810000000 1.0
C      1  0.5175190000000  0.5154940000000  0.5344950000000 1.0
C      1  0.4776190000000  0.5126370000000  0.5004140000000 1.0
C      1  0.5455540000000  0.5167170000000  0.5217400000000 1.0
C      1  0.5005790000000  0.5647280000000  0.5346010000000 1.0
C      1  0.5539080000000  0.5239880000000  0.4753050000000 1.0
C      1  0.5078120000000  0.5296920000000  0.4669620000000 1.0
C      1  0.4700010000000  0.5408770000000  0.5020400000000 1.0
C      1  0.4449460000000  0.5423170000000  0.4913600000000 1.0
C      1  0.4621010000000  0.4951650000000  0.5172640000000 1.0
C      1  0.4492400000000  0.4705830000000  0.5085470000000 1.0
C      1  0.5502260000000  0.4815460000000  0.4637260000000 1.0
C      1  0.5201400000000  0.4667010000000  0.5457580000000 1.0
C      1  0.5172200000000  0.4590300000000  0.5002110000000 1.0
C      1  0.5144630000000  0.5376080000000  0.4936410000000 1.0
C      1  0.5219120000000  0.4876380000000  0.4956710000000 1.0
C      1  0.5309160000000  0.5184440000000  0.4578410000000 1.0
C      1  0.5490830000000  0.4938610000000  0.5064530000000 1.0
C      1  0.4942430000000  0.4860400000000  0.4609370000000 1.0
C      1  0.5063250000000  0.5111430000000  0.5068480000000 1.0
C      1  0.4859810000000  0.5113150000000  0.4691480000000 1.0
C      1  0.4674970000000  0.4566650000000  0.5274230000000 1.0
C      1  0.4512340000000  0.4730360000000  0.4804080000000 1.0
C      1  0.5052410000000  0.4899300000000  0.5434870000000 1.0
END
