TITL C-114857-6539-2 8.16099291059824 125000 -113.731589710748 0 0 18 (C1) n - 1
REM
REM in /rds/project/t2_vol4/rds-t2-cs072/BORA/CARBON/from-Arr/AIRSS/Generating-Clusters/GAP-ML-2020/Higher-Symm/SD-CG/HFTN-CG
REM
REM
REM
REM
REM
REM ./C.cell (b20cbc046b6831c77cfcea5457e17084)
REM AIRSS Version 0.9.1 bugfix July 2018 build 013d7b7c2542+ Fri, 06 Jul 2018 19:26:36 +0100
REM compiler GCC version 9.3.0
REM options -cpp -mtune=generic -march=x86-64 -g -O0
REM seed 113837755 670785665 2138832741 1717809522 424572279 2034257615 882435324 -2138130235 -1558746635 876424542 1994381857 -1542189536 1662521491 200864875 -506453014 272343849 680542277 -2002387003 1588354519 1237426510 871331916 1891992984 -1201732108 1526473483 -582083332 1168897414 1626759318 218325157 1239677639 -1776311078 -428802366 1981795502 -877988943
REM
CELL 1.54180   50.00000   50.00000   50.00000   90.00000   90.00000   90.00000
LATT -1
SFAC C  
C      1  0.5244320000000  0.5270220000000  0.4665890000000 1.0
C      1  0.5060370000000  0.4794980000000  0.4628400000000 1.0
C      1  0.5154040000000  0.4605660000000  0.5133570000000 1.0
C      1  0.5128520000000  0.4769370000000  0.5372940000000 1.0
C      1  0.5092020000000  0.5274620000000  0.5370920000000 1.0
C      1  0.5118860000000  0.5426420000000  0.4853610000000 1.0
C      1  0.4804150000000  0.5240570000000  0.5353820000000 1.0
C      1  0.4841990000000  0.4732260000000  0.5373300000000 1.0
C      1  0.4859800000000  0.4538150000000  0.4879310000000 1.0
C      1  0.4796400000000  0.4682860000000  0.4648060000000 1.0
C      1  0.4794860000000  0.5197230000000  0.4621640000000 1.0
C      1  0.4800300000000  0.5405550000000  0.5113740000000 1.0
C      1  0.4869640000000  0.4537520000000  0.5159940000000 1.0
C      1  0.5147630000000  0.4616070000000  0.4849570000000 1.0
C      1  0.4829840000000  0.5375070000000  0.4831250000000 1.0
C      1  0.5053760000000  0.5077330000000  0.4593160000000 1.0
C      1  0.5089290000000  0.5450760000000  0.5139880000000 1.0
C      1  0.4961740000000  0.5005330000000  0.5411010000000 1.0
END
