TITL C-125338-9269-2 -37.5249168118607 125000 -152.327799085691 0 0 24 (Ci) n - 1
REM
REM in /rds/project/t2_vol4/rds-t2-cs072/BORA/CARBON/from-Arr/AIRSS/Generating-Clusters/GAP-ML-2020/Higher-Symm/SD-CG/HFTN-CG
REM
REM
REM
REM
REM
REM ./C.cell (b20cbc046b6831c77cfcea5457e17084)
REM AIRSS Version 0.9.1 bugfix July 2018 build 013d7b7c2542+ Fri, 06 Jul 2018 19:26:36 +0100
REM compiler GCC version 9.3.0
REM options -cpp -mtune=generic -march=x86-64 -g -O0
REM seed 1579030425 1133984162 -419314399 -1834457883 1364568033 29442180 -279358991 -21522675 -819985498 1816879389 -1276289129 -2100558115 -1941971897 -1343073064 -14311985 -942103415 339760343 -902252835 977928002 -887170895 -391203324 -1929189283 1755008858 1850931112 -613710522 -890486455 259244652 628782411 -703666277 2113507654 -379271988 -1561410306 -1920799154
REM
CELL 1.54180   50.00000   50.00000   50.00000   90.00000   90.00000   90.00000
LATT -1
SFAC C  
C      1  0.5112060000000  0.4945780000000  0.5052130000000 1.0
C      1  0.4887940000000  0.5054230000000  0.4947870000000 1.0
C      1  0.5559590000000  0.4932910000000  0.5179640000000 1.0
C      1  0.4440410000000  0.5067090000000  0.4820360000000 1.0
C      1  0.5149670000000  0.4696420000000  0.5205040000000 1.0
C      1  0.4850330000000  0.5303580000000  0.4794960000000 1.0
C      1  0.5334820000000  0.4480830000000  0.4719200000000 1.0
C      1  0.4665180000000  0.5519170000000  0.5280800000000 1.0
C      1  0.5366470000000  0.5288170000000  0.5304160000000 1.0
C      1  0.4633530000000  0.4711830000000  0.4695840000000 1.0
C      1  0.5577060000000  0.5099560000000  0.5403430000000 1.0
C      1  0.4422940000000  0.4900440000000  0.4596570000000 1.0
C      1  0.5086130000000  0.4498580000000  0.4636240000000 1.0
C      1  0.4913870000000  0.5501420000000  0.5363760000000 1.0
C      1  0.4653170000000  0.4892750000000  0.4920360000000 1.0
C      1  0.5346840000000  0.5107250000000  0.5079630000000 1.0
C      1  0.5517220000000  0.4532440000000  0.4896400000000 1.0
C      1  0.4482780000000  0.5467550000000  0.5103600000000 1.0
C      1  0.4838300000000  0.4553160000000  0.4609440000000 1.0
C      1  0.5161700000000  0.5446840000000  0.5390560000000 1.0
C      1  0.4987960000000  0.5437790000000  0.4613170000000 1.0
C      1  0.5012030000000  0.4562210000000  0.5386830000000 1.0
C      1  0.5466430000000  0.4664890000000  0.5129880000000 1.0
C      1  0.4533560000000  0.5335110000000  0.4870120000000 1.0
END
