TITL C-127727-1773-1 43.2388043912668 125000 -83.8083497084047 0 0 14 (C2) n - 1
REM
REM in /rds/project/t2_vol4/rds-t2-cs072/BORA/CARBON/from-Arr/AIRSS/Generating-Clusters/GAP-ML-2020/Higher-Symm/SD-CG/HFTN-CG
REM
REM
REM
REM
REM
REM ./C.cell (b20cbc046b6831c77cfcea5457e17084)
REM AIRSS Version 0.9.1 bugfix July 2018 build 013d7b7c2542+ Fri, 06 Jul 2018 19:26:36 +0100
REM compiler GCC version 9.3.0
REM options -cpp -mtune=generic -march=x86-64 -g -O0
REM seed 384842863 -700974595 -580203581 -1792147718 -134790428 1202892697 1455677633 -852446229 820839140 -1160811370 503527292 1527371276 2133236391 -1756225084 -838866876 -1682516187 1755074363 -2096785497 1696590288 898911385 -2135245468 1459842295 -1180796131 -131943682 -856870112 421528756 419662233 -1246364019 1623418174 639883257 1968929559 795409699 -1975742404
REM
CELL 1.54180   50.00000   50.00000   50.00000   90.00000   90.00000   90.00000
LATT -1
SFAC C  
C      1  0.5159850000000  0.5178470000000  0.4442280000000 1.0
C      1  0.4808020000000  0.4837670000000  0.5493950000000 1.0
C      1  0.4806850000000  0.4899660000000  0.4469840000000 1.0
C      1  0.5077770000000  0.4922510000000  0.4473380000000 1.0
C      1  0.4926660000000  0.5082030000000  0.5506130000000 1.0
C      1  0.5192910000000  0.5065000000000  0.5551300000000 1.0
C      1  0.4739040000000  0.4642820000000  0.5352900000000 1.0
C      1  0.5421150000000  0.5034510000000  0.5453070000000 1.0
C      1  0.5196410000000  0.4798380000000  0.4728130000000 1.0
C      1  0.4592800000000  0.4900380000000  0.4599460000000 1.0
C      1  0.5207900000000  0.5398470000000  0.4551660000000 1.0
C      1  0.4867500000000  0.5246960000000  0.5253790000000 1.0
C      1  0.5091280000000  0.4936030000000  0.4921940000000 1.0
C      1  0.4968700000000  0.5106610000000  0.5059820000000 1.0
END
