TITL C-126809-9469-5 632.700518126028 125000 -718.900613655789 0 0 103 (C1) n - 1
REM
REM in /rds/project/t2_vol4/rds-t2-cs072/BORA/CARBON/from-Arr/AIRSS/Generating-Clusters/GAP-ML-2020/Higher-Symm/SD-CG/HFTN-CG
REM
REM
REM
REM
REM
REM ./C.cell (b20cbc046b6831c77cfcea5457e17084)
REM AIRSS Version 0.9.1 bugfix July 2018 build 013d7b7c2542+ Fri, 06 Jul 2018 19:26:36 +0100
REM compiler GCC version 9.3.0
REM options -cpp -mtune=generic -march=x86-64 -g -O0
REM seed 1648579613 -1528667683 -628565388 1267423145 1280772624 -1441624709 -319798701 20309179 969617011 -2083733687 -266305136 1212783335 -447873051 -778622874 -272456947 787610824 1282973447 -728554689 741165765 2058682683 -1225118036 1180075270 -1226860124 -2074264791 -462992685 -561762650 -1809272160 1913699873 1723851404 -566850003 -660264228 -1153549246 -159321005
REM
CELL 1.54180   50.00000   50.00000   50.00000   90.00000   90.00000   90.00000
LATT -1
SFAC C  
C      1  0.4729180000000  0.4222780000000  0.5290450000000 1.0
C      1  0.5614150000000  0.4485010000000  0.4861000000000 1.0
C      1  0.4742680000000  0.5303720000000  0.4457300000000 1.0
C      1  0.5555920000000  0.5669200000000  0.5349720000000 1.0
C      1  0.5351650000000  0.4408000000000  0.4509530000000 1.0
C      1  0.4312190000000  0.5191140000000  0.4575590000000 1.0
C      1  0.4381880000000  0.4954920000000  0.5454270000000 1.0
C      1  0.3939960000000  0.5087840000000  0.4887590000000 1.0
C      1  0.5075190000000  0.5669360000000  0.5304110000000 1.0
C      1  0.5422440000000  0.5430720000000  0.5656670000000 1.0
C      1  0.4618150000000  0.5383450000000  0.5391440000000 1.0
C      1  0.5337150000000  0.4560560000000  0.4767200000000 1.0
C      1  0.4673150000000  0.4591980000000  0.5589120000000 1.0
C      1  0.4739730000000  0.4681710000000  0.4175950000000 1.0
C      1  0.4408400000000  0.4611080000000  0.4574780000000 1.0
C      1  0.4737510000000  0.5564350000000  0.5604680000000 1.0
C      1  0.4879700000000  0.5394550000000  0.4902690000000 1.0
C      1  0.4115090000000  0.5009340000000  0.4680110000000 1.0
C      1  0.5059440000000  0.4345620000000  0.5626280000000 1.0
C      1  0.5360560000000  0.4696680000000  0.5719490000000 1.0
C      1  0.4730030000000  0.4866260000000  0.4920880000000 1.0
C      1  0.4663870000000  0.5498840000000  0.4640590000000 1.0
C      1  0.4414820000000  0.4671910000000  0.5456250000000 1.0
C      1  0.5102280000000  0.4574990000000  0.5788770000000 1.0
C      1  0.4670550000000  0.5157590000000  0.5814200000000 1.0
C      1  0.4855240000000  0.4709390000000  0.5821560000000 1.0
C      1  0.5381240000000  0.4845050000000  0.5118130000000 1.0
C      1  0.5380950000000  0.5274000000000  0.4948560000000 1.0
C      1  0.5264770000000  0.4343540000000  0.5434350000000 1.0
C      1  0.5465100000000  0.5493530000000  0.4454800000000 1.0
C      1  0.5803170000000  0.5248490000000  0.5072500000000 1.0
C      1  0.4629440000000  0.4282240000000  0.4426550000000 1.0
C      1  0.4325590000000  0.4526520000000  0.5217700000000 1.0
C      1  0.4756320000000  0.5764540000000  0.4608150000000 1.0
C      1  0.5180140000000  0.5514300000000  0.4538670000000 1.0
C      1  0.5043870000000  0.5883500000000  0.4847690000000 1.0
C      1  0.4736030000000  0.4964850000000  0.4193810000000 1.0
C      1  0.5753710000000  0.4611270000000  0.5076100000000 1.0
C      1  0.5452870000000  0.4551020000000  0.5498160000000 1.0
C      1  0.5306340000000  0.5649030000000  0.5495520000000 1.0
C      1  0.5332380000000  0.5203110000000  0.5794440000000 1.0
C      1  0.4878100000000  0.4728120000000  0.5353680000000 1.0
C      1  0.4910500000000  0.5096090000000  0.4912990000000 1.0
C      1  0.5007910000000  0.5148810000000  0.5211190000000 1.0
C      1  0.5017960000000  0.4621140000000  0.4280070000000 1.0
C      1  0.5077440000000  0.5005320000000  0.4658950000000 1.0
C      1  0.5664280000000  0.4966340000000  0.5481050000000 1.0
C      1  0.4827060000000  0.4175480000000  0.4834060000000 1.0
C      1  0.5456620000000  0.4843370000000  0.4356530000000 1.0
C      1  0.5513920000000  0.5303580000000  0.4261730000000 1.0
C      1  0.4547710000000  0.4219450000000  0.4881200000000 1.0
C      1  0.4918330000000  0.4774680000000  0.4564370000000 1.0
C      1  0.4886630000000  0.4994320000000  0.5417860000000 1.0
C      1  0.4371110000000  0.5527730000000  0.4986510000000 1.0
C      1  0.5796060000000  0.5043490000000  0.4854290000000 1.0
C      1  0.4883150000000  0.4233380000000  0.4545710000000 1.0
C      1  0.4839050000000  0.5395830000000  0.5809320000000 1.0
C      1  0.4446760000000  0.4324260000000  0.4647440000000 1.0
C      1  0.4392130000000  0.5425400000000  0.4720520000000 1.0
C      1  0.5194940000000  0.4840600000000  0.4203380000000 1.0
C      1  0.5879960000000  0.4760020000000  0.4854130000000 1.0
C      1  0.5489840000000  0.5003000000000  0.4859650000000 1.0
C      1  0.5768760000000  0.5182120000000  0.4594130000000 1.0
C      1  0.5188260000000  0.4604580000000  0.5024290000000 1.0
C      1  0.5004710000000  0.5062120000000  0.4203570000000 1.0
C      1  0.4490770000000  0.4299870000000  0.5149900000000 1.0
C      1  0.4881400000000  0.5419870000000  0.5206390000000 1.0
C      1  0.4187290000000  0.4723940000000  0.4724210000000 1.0
C      1  0.5032710000000  0.5776150000000  0.4571270000000 1.0
C      1  0.5512180000000  0.5693860000000  0.5079820000000 1.0
C      1  0.5188960000000  0.4322770000000  0.5166460000000 1.0
C      1  0.4534320000000  0.5773800000000  0.5032360000000 1.0
C      1  0.5755930000000  0.5208790000000  0.5352030000000 1.0
C      1  0.4644540000000  0.4814590000000  0.4642910000000 1.0
C      1  0.5165880000000  0.5465130000000  0.4842320000000 1.0
C      1  0.5057870000000  0.5205110000000  0.5881110000000 1.0
C      1  0.5024670000000  0.5252670000000  0.4436860000000 1.0
C      1  0.5632440000000  0.5460540000000  0.4940340000000 1.0
C      1  0.4235890000000  0.5111350000000  0.5271990000000 1.0
C      1  0.5213010000000  0.5719290000000  0.5028250000000 1.0
C      1  0.4757490000000  0.5877950000000  0.4879870000000 1.0
C      1  0.5603090000000  0.4725930000000  0.5310550000000 1.0
C      1  0.4570300000000  0.5075600000000  0.4440060000000 1.0
C      1  0.4365060000000  0.5367640000000  0.5222520000000 1.0
C      1  0.5639960000000  0.5079790000000  0.4352450000000 1.0
C      1  0.4070770000000  0.4953140000000  0.5099380000000 1.0
C      1  0.4784730000000  0.4322400000000  0.5546460000000 1.0
C      1  0.4545500000000  0.4526370000000  0.4297830000000 1.0
C      1  0.4949220000000  0.4182730000000  0.5097930000000 1.0
C      1  0.5654270000000  0.5435890000000  0.5483880000000 1.0
C      1  0.5754320000000  0.4598740000000  0.4645160000000 1.0
C      1  0.5575200000000  0.4576330000000  0.4415550000000 1.0
C      1  0.5342940000000  0.4863990000000  0.4657240000000 1.0
C      1  0.4894020000000  0.4684240000000  0.5071620000000 1.0
C      1  0.4170510000000  0.4681940000000  0.5017180000000 1.0
C      1  0.5471290000000  0.4962430000000  0.5700040000000 1.0
C      1  0.5672250000000  0.5436560000000  0.4649620000000 1.0
C      1  0.4871570000000  0.4977190000000  0.5910360000000 1.0
C      1  0.4618970000000  0.5114570000000  0.5532520000000 1.0
C      1  0.5284980000000  0.5122810000000  0.5186210000000 1.0
C      1  0.4833730000000  0.5790260000000  0.5440850000000 1.0
C      1  0.5101830000000  0.4358280000000  0.4398220000000 1.0
C      1  0.4646140000000  0.5862240000000  0.5256290000000 1.0
END
