TITL C-123282-5707-1 98.8872612178433 125000 -1107.34572590853 0 0 157 (C1) n - 1
REM
REM in /rds/project/t2_vol4/rds-t2-cs072/BORA/CARBON/from-Arr/AIRSS/Generating-Clusters/GAP-ML-2020/Higher-Symm/SD-CG/HFTN-CG
REM
REM
REM
REM
REM
REM ./C.cell (b20cbc046b6831c77cfcea5457e17084)
REM AIRSS Version 0.9.1 bugfix July 2018 build 013d7b7c2542+ Fri, 06 Jul 2018 19:26:36 +0100
REM compiler GCC version 9.3.0
REM options -cpp -mtune=generic -march=x86-64 -g -O0
REM seed -881576264 -232221665 -1734706833 779344648 -1683427405 -2132099145 892359971 -1998299480 1144529194 -1140950018 -952288194 -89944643 1003896886 -2071846723 -873123226 214688038 -1752375179 2019759894 -1061534301 -147237921 1106479760 173467209 823615295 6209631 -2096723824 -1601955145 -670829768 -1737365529 -880029225 1510975697 1867793150 -1096592205 -2116752890
REM
CELL 1.54180   50.00000   50.00000   50.00000   90.00000   90.00000   90.00000
LATT -1
SFAC C  
C      1  0.4830370000000  0.4181260000000  0.4648020000000 1.0
C      1  0.5186560000000  0.5351430000000  0.4170240000000 1.0
C      1  0.4809920000000  0.5842990000000  0.5358300000000 1.0
C      1  0.5172550000000  0.4646120000000  0.5833190000000 1.0
C      1  0.4898740000000  0.4546450000000  0.5918330000000 1.0
C      1  0.5102350000000  0.4089580000000  0.4547400000000 1.0
C      1  0.4907410000000  0.5456030000000  0.4092230000000 1.0
C      1  0.5089800000000  0.5916360000000  0.5453500000000 1.0
C      1  0.5627880000000  0.4947020000000  0.5836180000000 1.0
C      1  0.4372160000000  0.4157570000000  0.4951270000000 1.0
C      1  0.5638330000000  0.5041740000000  0.4157780000000 1.0
C      1  0.4354540000000  0.5841860000000  0.5056190000000 1.0
C      1  0.5995440000000  0.4962540000000  0.4505150000000 1.0
C      1  0.4010270000000  0.5476390000000  0.4992410000000 1.0
C      1  0.5980200000000  0.5007970000000  0.5478680000000 1.0
C      1  0.4016240000000  0.4504250000000  0.5031080000000 1.0
C      1  0.5323150000000  0.5119240000000  0.4683470000000 1.0
C      1  0.4645310000000  0.5348560000000  0.5197900000000 1.0
C      1  0.5333890000000  0.4805670000000  0.5330040000000 1.0
C      1  0.4659380000000  0.4680960000000  0.4814620000000 1.0
C      1  0.5579240000000  0.4427560000000  0.5323520000000 1.0
C      1  0.4416870000000  0.4677900000000  0.4438860000000 1.0
C      1  0.5574950000000  0.5533630000000  0.4683780000000 1.0
C      1  0.4409030000000  0.5328620000000  0.5575290000000 1.0
C      1  0.4262500000000  0.4852800000000  0.4282630000000 1.0
C      1  0.5726530000000  0.5708230000000  0.4849380000000 1.0
C      1  0.4261420000000  0.5148530000000  0.5729430000000 1.0
C      1  0.5722170000000  0.4267530000000  0.5144010000000 1.0
C      1  0.5122260000000  0.4635080000000  0.4729350000000 1.0
C      1  0.4895530000000  0.5272820000000  0.4579410000000 1.0
C      1  0.5094790000000  0.5423840000000  0.5274730000000 1.0
C      1  0.4880110000000  0.4737430000000  0.5401190000000 1.0
C      1  0.5573710000000  0.5156690000000  0.5101740000000 1.0
C      1  0.4393690000000  0.4969280000000  0.5120750000000 1.0
C      1  0.5624490000000  0.4875790000000  0.4967150000000 1.0
C      1  0.4423440000000  0.5103570000000  0.4840000000000 1.0
C      1  0.4485830000000  0.4736530000000  0.5739000000000 1.0
C      1  0.5512040000000  0.4268900000000  0.4732680000000 1.0
C      1  0.4494040000000  0.5260080000000  0.4268110000000 1.0
C      1  0.5498190000000  0.5729050000000  0.5257300000000 1.0
C      1  0.5265150000000  0.5946300000000  0.5236460000000 1.0
C      1  0.4718060000000  0.4760500000000  0.5950770000000 1.0
C      1  0.5285750000000  0.4057810000000  0.4761260000000 1.0
C      1  0.4728190000000  0.5242340000000  0.4050150000000 1.0
C      1  0.4072090000000  0.4649060000000  0.4798430000000 1.0
C      1  0.5935230000000  0.5193280000000  0.4650810000000 1.0
C      1  0.4075810000000  0.5331300000000  0.5218210000000 1.0
C      1  0.5920670000000  0.4779510000000  0.5335220000000 1.0
C      1  0.4238610000000  0.5499050000000  0.5398750000000 1.0
C      1  0.5749180000000  0.4603280000000  0.5495670000000 1.0
C      1  0.4251290000000  0.4502580000000  0.4614060000000 1.0
C      1  0.5746730000000  0.5370100000000  0.4507380000000 1.0
C      1  0.5590940000000  0.5497510000000  0.5715490000000 1.0
C      1  0.4404840000000  0.4274410000000  0.5503690000000 1.0
C      1  0.5603680000000  0.4493540000000  0.4270410000000 1.0
C      1  0.4396810000000  0.5714830000000  0.4504100000000 1.0
C      1  0.5172290000000  0.5076340000000  0.4058440000000 1.0
C      1  0.4820050000000  0.5945760000000  0.5078630000000 1.0
C      1  0.5163610000000  0.4923050000000  0.5940700000000 1.0
C      1  0.4839080000000  0.4069790000000  0.4922970000000 1.0
C      1  0.5138100000000  0.4914320000000  0.4782710000000 1.0
C      1  0.4858940000000  0.5276950000000  0.4851570000000 1.0
C      1  0.5121710000000  0.5152440000000  0.5263320000000 1.0
C      1  0.4835610000000  0.4776710000000  0.5130190000000 1.0
C      1  0.4694810000000  0.5777590000000  0.5965140000000 1.0
C      1  0.5302930000000  0.4032970000000  0.5765980000000 1.0
C      1  0.4702970000000  0.4226580000000  0.4041270000000 1.0
C      1  0.5268450000000  0.5906300000000  0.4208450000000 1.0
C      1  0.5243690000000  0.4222120000000  0.4340400000000 1.0
C      1  0.4758070000000  0.5653010000000  0.4230780000000 1.0
C      1  0.5231440000000  0.5770150000000  0.5650700000000 1.0
C      1  0.4760120000000  0.4344780000000  0.5775410000000 1.0
C      1  0.4702920000000  0.5075210000000  0.4460350000000 1.0
C      1  0.5290240000000  0.5534560000000  0.5072390000000 1.0
C      1  0.4685970000000  0.4929810000000  0.5533660000000 1.0
C      1  0.5305930000000  0.4487330000000  0.4919470000000 1.0
C      1  0.5840500000000  0.4624600000000  0.4331560000000 1.0
C      1  0.4162920000000  0.5649080000000  0.4643040000000 1.0
C      1  0.5824460000000  0.5358110000000  0.5648880000000 1.0
C      1  0.4168420000000  0.4330850000000  0.5369870000000 1.0
C      1  0.4157140000000  0.4258710000000  0.5091070000000 1.0
C      1  0.5855240000000  0.4903120000000  0.4258790000000 1.0
C      1  0.4143560000000  0.5726070000000  0.4919410000000 1.0
C      1  0.5842760000000  0.5081610000000  0.5725010000000 1.0
C      1  0.4597850000000  0.5922630000000  0.4908170000000 1.0
C      1  0.5385030000000  0.5094740000000  0.5917560000000 1.0
C      1  0.4617910000000  0.4087520000000  0.5095670000000 1.0
C      1  0.5391520000000  0.4901250000000  0.4082170000000 1.0
C      1  0.4563580000000  0.4139380000000  0.4506040000000 1.0
C      1  0.5452540000000  0.5493680000000  0.4130340000000 1.0
C      1  0.4543750000000  0.5877100000000  0.5503810000000 1.0
C      1  0.5438230000000  0.4501460000000  0.5865930000000 1.0
C      1  0.4242100000000  0.5107270000000  0.4358770000000 1.0
C      1  0.5749980000000  0.5638960000000  0.5104340000000 1.0
C      1  0.4224110000000  0.4888830000000  0.5666270000000 1.0
C      1  0.5770490000000  0.4336190000000  0.4887140000000 1.0
C      1  0.5975870000000  0.5156570000000  0.4927350000000 1.0
C      1  0.4089100000000  0.5026420000000  0.5175600000000 1.0
C      1  0.5917360000000  0.4819730000000  0.5032120000000 1.0
C      1  0.4027880000000  0.4923830000000  0.4843380000000 1.0
C      1  0.5981090000000  0.4680130000000  0.4583920000000 1.0
C      1  0.4027690000000  0.5399040000000  0.4711920000000 1.0
C      1  0.5962040000000  0.5288170000000  0.5400380000000 1.0
C      1  0.4024120000000  0.4581900000000  0.5314550000000 1.0
C      1  0.4598710000000  0.5331350000000  0.4920990000000 1.0
C      1  0.5384790000000  0.5079210000000  0.5319130000000 1.0
C      1  0.4565350000000  0.4715010000000  0.5077580000000 1.0
C      1  0.5532640000000  0.4923760000000  0.4682520000000 1.0
C      1  0.4847610000000  0.5823550000000  0.4442600000000 1.0
C      1  0.5141150000000  0.5566980000000  0.5833530000000 1.0
C      1  0.4853980000000  0.4166230000000  0.5567980000000 1.0
C      1  0.5149650000000  0.4430730000000  0.4163770000000 1.0
C      1  0.4554860000000  0.4904720000000  0.4658290000000 1.0
C      1  0.5432370000000  0.5324310000000  0.4901960000000 1.0
C      1  0.4536840000000  0.5119060000000  0.5341680000000 1.0
C      1  0.5459730000000  0.4665760000000  0.5109270000000 1.0
C      1  0.4736090000000  0.4609290000000  0.4360390000000 1.0
C      1  0.5272010000000  0.5617510000000  0.4605490000000 1.0
C      1  0.4724660000000  0.5400080000000  0.5649690000000 1.0
C      1  0.5259940000000  0.4360790000000  0.5390430000000 1.0
C      1  0.5501100000000  0.4291100000000  0.4440520000000 1.0
C      1  0.4503430000000  0.5551870000000  0.4297970000000 1.0
C      1  0.5485950000000  0.5701250000000  0.5549810000000 1.0
C      1  0.4503900000000  0.4443960000000  0.5708000000000 1.0
C      1  0.5638340000000  0.4673270000000  0.5756490000000 1.0
C      1  0.4361640000000  0.4242900000000  0.4678630000000 1.0
C      1  0.5647910000000  0.5314510000000  0.4243490000000 1.0
C      1  0.4343640000000  0.5764370000000  0.5331170000000 1.0
C      1  0.4786210000000  0.5130140000000  0.5717910000000 1.0
C      1  0.5194910000000  0.4304710000000  0.5119830000000 1.0
C      1  0.4801790000000  0.4873310000000  0.4280360000000 1.0
C      1  0.5204420000000  0.5719230000000  0.4866020000000 1.0
C      1  0.5378160000000  0.4616140000000  0.4132020000000 1.0
C      1  0.4617190000000  0.5862410000000  0.4623850000000 1.0
C      1  0.5369830000000  0.5381010000000  0.5865360000000 1.0
C      1  0.4628230000000  0.4134880000000  0.5381930000000 1.0
C      1  0.4861640000000  0.4437570000000  0.4143680000000 1.0
C      1  0.5135080000000  0.5831970000000  0.4437910000000 1.0
C      1  0.4852960000000  0.5565680000000  0.5865610000000 1.0
C      1  0.5141120000000  0.4138300000000  0.5557550000000 1.0
C      1  0.4886780000000  0.4997950000000  0.5945180000000 1.0
C      1  0.5114780000000  0.4065800000000  0.4996230000000 1.0
C      1  0.4896810000000  0.5005460000000  0.4049270000000 1.0
C      1  0.5096170000000  0.5943860000000  0.4998920000000 1.0
C      1  0.5940300000000  0.4581190000000  0.4840150000000 1.0
C      1  0.4144190000000  0.5139620000000  0.4667330000000 1.0
C      1  0.5848480000000  0.5330620000000  0.5138260000000 1.0
C      1  0.4060710000000  0.4839420000000  0.5416770000000 1.0
C      1  0.5147760000000  0.4649840000000  0.5490400000000 1.0
C      1  0.4851410000000  0.4525050000000  0.4651720000000 1.0
C      1  0.5170970000000  0.5328950000000  0.4503680000000 1.0
C      1  0.4828360000000  0.5507470000000  0.5356490000000 1.0
C      1  0.5454230000000  0.5768270000000  0.4086510000000 1.0
C      1  0.4545580000000  0.5886720000000  0.5779280000000 1.0
C      1  0.5442090000000  0.4225920000000  0.5874200000000 1.0
C      1  0.4556760000000  0.4120610000000  0.4230700000000 1.0
C      1  0.4980520000000  0.5026120000000  0.5008920000000 1.0
END
