TITL C-123290-3549-1 -0.12323358897514 125000 -788.930817591089 0 0 112 (C1) n - 1
REM
REM in /rds/project/t2_vol4/rds-t2-cs072/BORA/CARBON/from-Arr/AIRSS/Generating-Clusters/GAP-ML-2020/Higher-Symm/SD-CG/HFTN-CG
REM
REM
REM
REM
REM
REM ./C.cell (b20cbc046b6831c77cfcea5457e17084)
REM AIRSS Version 0.9.1 bugfix July 2018 build 013d7b7c2542+ Fri, 06 Jul 2018 19:26:36 +0100
REM compiler GCC version 9.3.0
REM options -cpp -mtune=generic -march=x86-64 -g -O0
REM seed -634273105 1421294011 -53092350 1240717228 -2117857959 439076214 1871791008 161854483 133117510 1357978437 -135100324 -1974263910 635339978 1745846390 -1365521648 1230777840 -1565798155 -566868858 -1822268251 287695532 814753422 1603382655 1042482302 -1906675970 -635452791 -1954230535 1485174333 -1433823327 -1217053462 772553402 -741791920 1615870759 -1910515524
REM
CELL 1.54180   50.00000   50.00000   50.00000   90.00000   90.00000   90.00000
LATT -1
SFAC C  
C      1  0.4748740000000  0.4819050000000  0.4077650000000 1.0
C      1  0.5447870000000  0.5204770000000  0.4056810000000 1.0
C      1  0.5230670000000  0.4759550000000  0.4077760000000 1.0
C      1  0.4745450000000  0.5306600000000  0.4073150000000 1.0
C      1  0.4205090000000  0.4690960000000  0.4920470000000 1.0
C      1  0.5752140000000  0.5354630000000  0.4933790000000 1.0
C      1  0.5758450000000  0.4715880000000  0.4842430000000 1.0
C      1  0.4282100000000  0.5320360000000  0.4861360000000 1.0
C      1  0.4803260000000  0.5447210000000  0.4308910000000 1.0
C      1  0.5191850000000  0.4587490000000  0.4297160000000 1.0
C      1  0.5268370000000  0.5336260000000  0.4219160000000 1.0
C      1  0.4731500000000  0.4642720000000  0.4302670000000 1.0
C      1  0.5317030000000  0.5443420000000  0.5740900000000 1.0
C      1  0.4680380000000  0.4666970000000  0.5612150000000 1.0
C      1  0.4648180000000  0.5362930000000  0.5619530000000 1.0
C      1  0.5474450000000  0.4541710000000  0.5717660000000 1.0
C      1  0.4539700000000  0.5784090000000  0.4896350000000 1.0
C      1  0.5491110000000  0.4223150000000  0.4820720000000 1.0
C      1  0.5465990000000  0.5785200000000  0.4867600000000 1.0
C      1  0.4554800000000  0.4284780000000  0.4915060000000 1.0
C      1  0.5246510000000  0.4259320000000  0.4673970000000 1.0
C      1  0.4794880000000  0.5876720000000  0.4804070000000 1.0
C      1  0.4812760000000  0.4183350000000  0.4818140000000 1.0
C      1  0.5218650000000  0.5865780000000  0.4751210000000 1.0
C      1  0.5284820000000  0.5326290000000  0.4779970000000 1.0
C      1  0.4612840000000  0.4759000000000  0.4770400000000 1.0
C      1  0.4747170000000  0.5324880000000  0.4814880000000 1.0
C      1  0.5302680000000  0.4554930000000  0.4757230000000 1.0
C      1  0.5271010000000  0.5187350000000  0.4501720000000 1.0
C      1  0.4581330000000  0.4786160000000  0.4496090000000 1.0
C      1  0.4774460000000  0.5240940000000  0.4532610000000 1.0
C      1  0.5366760000000  0.4665170000000  0.4499140000000 1.0
C      1  0.4164360000000  0.4899750000000  0.4747050000000 1.0
C      1  0.5816930000000  0.5169470000000  0.4748150000000 1.0
C      1  0.5729800000000  0.4937720000000  0.4650250000000 1.0
C      1  0.4274140000000  0.5119650000000  0.4644090000000 1.0
C      1  0.4510350000000  0.4180710000000  0.5180710000000 1.0
C      1  0.5432810000000  0.5830510000000  0.5154760000000 1.0
C      1  0.5446000000000  0.4164410000000  0.5100700000000 1.0
C      1  0.4489770000000  0.5883440000000  0.5164770000000 1.0
C      1  0.5595560000000  0.4494870000000  0.4777160000000 1.0
C      1  0.4502370000000  0.5503580000000  0.4840540000000 1.0
C      1  0.4444390000000  0.4542830000000  0.4858320000000 1.0
C      1  0.5521500000000  0.5507660000000  0.4833400000000 1.0
C      1  0.5791930000000  0.5282270000000  0.5216160000000 1.0
C      1  0.4149280000000  0.4740330000000  0.5197190000000 1.0
C      1  0.4181020000000  0.5263260000000  0.5133510000000 1.0
C      1  0.5795830000000  0.4758850000000  0.5127000000000 1.0
C      1  0.4427230000000  0.4343430000000  0.5396220000000 1.0
C      1  0.5516660000000  0.5682280000000  0.5385600000000 1.0
C      1  0.5556050000000  0.4316930000000  0.5314320000000 1.0
C      1  0.4407300000000  0.5682310000000  0.5362850000000 1.0
C      1  0.4754380000000  0.4067310000000  0.5266050000000 1.0
C      1  0.5157770000000  0.5884760000000  0.5198980000000 1.0
C      1  0.5192370000000  0.4080450000000  0.5198750000000 1.0
C      1  0.4676850000000  0.6037180000000  0.5305900000000 1.0
C      1  0.4265580000000  0.5440530000000  0.5347590000000 1.0
C      1  0.5723020000000  0.4548670000000  0.5314050000000 1.0
C      1  0.5675210000000  0.5447450000000  0.5421100000000 1.0
C      1  0.4264640000000  0.4569870000000  0.5399620000000 1.0
C      1  0.5319880000000  0.4739870000000  0.5864840000000 1.0
C      1  0.4836310000000  0.5258420000000  0.5836520000000 1.0
C      1  0.4859480000000  0.4825870000000  0.5772620000000 1.0
C      1  0.5122070000000  0.5239300000000  0.5784180000000 1.0
C      1  0.5088700000000  0.5848870000000  0.5474530000000 1.0
C      1  0.4857870000000  0.4177790000000  0.5509030000000 1.0
C      1  0.4803800000000  0.5868030000000  0.5502970000000 1.0
C      1  0.5147890000000  0.4172480000000  0.5473050000000 1.0
C      1  0.5384910000000  0.4320410000000  0.5552080000000 1.0
C      1  0.4616070000000  0.5655120000000  0.5553840000000 1.0
C      1  0.4654200000000  0.4366550000000  0.5583850000000 1.0
C      1  0.5301150000000  0.5685100000000  0.5578560000000 1.0
C      1  0.5025640000000  0.5310910000000  0.5221070000000 1.0
C      1  0.4776440000000  0.4741620000000  0.5312750000000 1.0
C      1  0.4780720000000  0.5233920000000  0.5340310000000 1.0
C      1  0.5051270000000  0.4685810000000  0.5234180000000 1.0
C      1  0.4352500000000  0.5293090000000  0.5573140000000 1.0
C      1  0.5697320000000  0.4650700000000  0.5573580000000 1.0
C      1  0.5575510000000  0.5332650000000  0.5667780000000 1.0
C      1  0.4368420000000  0.4712300000000  0.5629760000000 1.0
C      1  0.5260260000000  0.5067410000000  0.4946000000000 1.0
C      1  0.4737290000000  0.5006360000000  0.4921360000000 1.0
C      1  0.5442950000000  0.4947540000000  0.4147580000000 1.0
C      1  0.4610870000000  0.5064260000000  0.4138120000000 1.0
C      1  0.5008720000000  0.5400690000000  0.4129880000000 1.0
C      1  0.4943100000000  0.4459490000000  0.4376500000000 1.0
C      1  0.4810310000000  0.5007730000000  0.5991810000000 1.0
C      1  0.5255300000000  0.4813000000000  0.6131630000000 1.0
C      1  0.4998880000000  0.5968220000000  0.4631050000000 1.0
C      1  0.4976080000000  0.4259260000000  0.4588500000000 1.0
C      1  0.4706310000000  0.4994990000000  0.5207130000000 1.0
C      1  0.5232330000000  0.5113110000000  0.5231110000000 1.0
C      1  0.4525840000000  0.5069730000000  0.4439010000000 1.0
C      1  0.5480110000000  0.4931660000000  0.4462670000000 1.0
C      1  0.5112010000000  0.4692220000000  0.4952560000000 1.0
C      1  0.5011350000000  0.5437000000000  0.4941880000000 1.0
C      1  0.5008370000000  0.5744820000000  0.4967320000000 1.0
C      1  0.4940460000000  0.4059940000000  0.5055950000000 1.0
C      1  0.4182940000000  0.4858190000000  0.5767520000000 1.0
C      1  0.5649680000000  0.5086560000000  0.5735870000000 1.0
C      1  0.4204800000000  0.5049660000000  0.5564690000000 1.0
C      1  0.5770300000000  0.4923400000000  0.5559480000000 1.0
C      1  0.5819120000000  0.5001990000000  0.5285430000000 1.0
C      1  0.4134530000000  0.5014260000000  0.5279770000000 1.0
C      1  0.5017620000000  0.4938660000000  0.4824430000000 1.0
C      1  0.4995140000000  0.4814170000000  0.3906700000000 1.0
C      1  0.5013650000000  0.5055140000000  0.4548460000000 1.0
C      1  0.5007000000000  0.4875960000000  0.3637410000000 1.0
C      1  0.5038400000000  0.4952930000000  0.6140330000000 1.0
C      1  0.5199830000000  0.4886520000000  0.5392730000000 1.0
C      1  0.5145070000000  0.4921950000000  0.5686970000000 1.0
C      1  0.5025710000000  0.4948620000000  0.3395990000000 1.0
END
