TITL C-121839-5075-2 32.2392232631896 125000 -727.648246869537 0 0 103 (C2) n - 1
REM
REM in /rds/project/t2_vol4/rds-t2-cs072/BORA/CARBON/from-Arr/AIRSS/Generating-Clusters/GAP-ML-2020/Higher-Symm/SD-CG/HFTN-CG
REM
REM
REM
REM
REM
REM ./C.cell (b20cbc046b6831c77cfcea5457e17084)
REM AIRSS Version 0.9.1 bugfix July 2018 build 013d7b7c2542+ Fri, 06 Jul 2018 19:26:36 +0100
REM compiler GCC version 9.3.0
REM options -cpp -mtune=generic -march=x86-64 -g -O0
REM seed 1162523536 -2047445218 -1126599310 1884150942 -774598209 60579353 -518204444 1631314566 -1034129911 462589412 372237686 -1708685973 2064464248 -1220129013 -1413928689 373967988 2142316976 1100061935 1921722523 1118274646 472161242 -990976909 2074349701 1630888965 1336578315 1321013721 -2078488535 -416231716 -963715179 1044673233 1731378904 878220454 441067365
REM
CELL 1.54180   50.00000   50.00000   50.00000   90.00000   90.00000   90.00000
LATT -1
SFAC C  
C      1  0.5194120000000  0.5673960000000  0.4441190000000 1.0
C      1  0.4808620000000  0.5673990000000  0.5567530000000 1.0
C      1  0.5252620000000  0.4342920000000  0.4463410000000 1.0
C      1  0.4750140000000  0.4342950000000  0.5545400000000 1.0
C      1  0.5097090000000  0.5279120000000  0.4163670000000 1.0
C      1  0.4905650000000  0.5279180000000  0.5845080000000 1.0
C      1  0.5134270000000  0.4735450000000  0.4179850000000 1.0
C      1  0.4868480000000  0.4735510000000  0.5828930000000 1.0
C      1  0.4672060000000  0.4651840000000  0.4253980000000 1.0
C      1  0.5330690000000  0.4651890000000  0.5754810000000 1.0
C      1  0.4630570000000  0.5302670000000  0.4300050000000 1.0
C      1  0.5372180000000  0.5302720000000  0.5708700000000 1.0
C      1  0.4419140000000  0.5233530000000  0.4501780000000 1.0
C      1  0.5583600000000  0.5233570000000  0.5506970000000 1.0
C      1  0.4443410000000  0.4706360000000  0.4415250000000 1.0
C      1  0.5559340000000  0.4706400000000  0.5593530000000 1.0
C      1  0.5032790000000  0.5536430000000  0.4257510000000 1.0
C      1  0.4969950000000  0.5536480000000  0.5751220000000 1.0
C      1  0.5092410000000  0.4469170000000  0.4276620000000 1.0
C      1  0.4910340000000  0.4469220000000  0.5732180000000 1.0
C      1  0.5372720000000  0.4885100000000  0.4254240000000 1.0
C      1  0.4630030000000  0.4885150000000  0.5754530000000 1.0
C      1  0.5361000000000  0.5169580000000  0.4230630000000 1.0
C      1  0.4641740000000  0.5169630000000  0.5778120000000 1.0
C      1  0.5450980000000  0.5580720000000  0.4498460000000 1.0
C      1  0.4551760000000  0.5580750000000  0.5510270000000 1.0
C      1  0.5448860000000  0.4523190000000  0.4584830000000 1.0
C      1  0.4553890000000  0.4523210000000  0.5423960000000 1.0
C      1  0.4802790000000  0.5255740000000  0.4764280000000 1.0
C      1  0.5199950000000  0.5255760000000  0.5244470000000 1.0
C      1  0.4782250000000  0.4676760000000  0.4774830000000 1.0
C      1  0.5220500000000  0.4676780000000  0.5233950000000 1.0
C      1  0.5003520000000  0.4848170000000  0.4719840000000 1.0
C      1  0.4999230000000  0.4848190000000  0.5288940000000 1.0
C      1  0.5017760000000  0.5109010000000  0.4618950000000 1.0
C      1  0.4984980000000  0.5109030000000  0.5389800000000 1.0
C      1  0.5723160000000  0.4768170000000  0.5218280000000 1.0
C      1  0.4279590000000  0.4768150000000  0.4790500000000 1.0
C      1  0.5795170000000  0.5420480000000  0.5086420000000 1.0
C      1  0.4207580000000  0.5420460000000  0.4922310000000 1.0
C      1  0.4368910000000  0.4529120000000  0.4632560000000 1.0
C      1  0.5633840000000  0.4529150000000  0.5376240000000 1.0
C      1  0.4359060000000  0.5452080000000  0.4700340000000 1.0
C      1  0.5643680000000  0.5452100000000  0.5308400000000 1.0
C      1  0.4864290000000  0.4848400000000  0.4153180000000 1.0
C      1  0.5138460000000  0.4848460000000  0.5855590000000 1.0
C      1  0.4841080000000  0.5133320000000  0.4165920000000 1.0
C      1  0.5161660000000  0.5133380000000  0.5842840000000 1.0
C      1  0.4465940000000  0.5321780000000  0.5604400000000 1.0
C      1  0.5536800000000  0.5321750000000  0.4404350000000 1.0
C      1  0.4457150000000  0.4770700000000  0.5549950000000 1.0
C      1  0.5545600000000  0.4770670000000  0.4458830000000 1.0
C      1  0.4731430000000  0.5096450000000  0.4996380000000 1.0
C      1  0.5271320000000  0.5096450000000  0.5012370000000 1.0
C      1  0.4628300000000  0.4801930000000  0.5004710000000 1.0
C      1  0.5374440000000  0.4801930000000  0.5004060000000 1.0
C      1  0.4982850000000  0.4475200000000  0.5145380000000 1.0
C      1  0.5019900000000  0.4475190000000  0.4863410000000 1.0
C      1  0.4990550000000  0.5449250000000  0.5149470000000 1.0
C      1  0.5012190000000  0.5449240000000  0.4859260000000 1.0
C      1  0.4544160000000  0.5677110000000  0.4759680000000 1.0
C      1  0.5458580000000  0.5677130000000  0.5249040000000 1.0
C      1  0.4535870000000  0.4310940000000  0.4723080000000 1.0
C      1  0.5466890000000  0.4310970000000  0.5285730000000 1.0
C      1  0.5021750000000  0.5743160000000  0.4665280000000 1.0
C      1  0.4980990000000  0.5743180000000  0.5343440000000 1.0
C      1  0.5067730000000  0.4236310000000  0.4673730000000 1.0
C      1  0.4935030000000  0.4236330000000  0.5335080000000 1.0
C      1  0.4278300000000  0.5413660000000  0.5184440000000 1.0
C      1  0.5724440000000  0.5413650000000  0.4824290000000 1.0
C      1  0.4334720000000  0.4743440000000  0.5081660000000 1.0
C      1  0.5668030000000  0.4743440000000  0.4927120000000 1.0
C      1  0.5230340000000  0.4676340000000  0.4778450000000 1.0
C      1  0.4772410000000  0.4676350000000  0.5230330000000 1.0
C      1  0.5219240000000  0.5251880000000  0.4776980000000 1.0
C      1  0.4783510000000  0.5251890000000  0.5231760000000 1.0
C      1  0.5686530000000  0.4914270000000  0.4660820000000 1.0
C      1  0.4316220000000  0.4914290000000  0.5347950000000 1.0
C      1  0.5696010000000  0.5200480000000  0.4620760000000 1.0
C      1  0.4306740000000  0.5200490000000  0.5387990000000 1.0
C      1  0.4814720000000  0.4414890000000  0.4328380000000 1.0
C      1  0.5188030000000  0.4414930000000  0.5680420000000 1.0
C      1  0.4757540000000  0.5552700000000  0.4336910000000 1.0
C      1  0.5245200000000  0.5552750000000  0.5671820000000 1.0
C      1  0.5387800000000  0.5759880000000  0.4977890000000 1.0
C      1  0.4614930000000  0.5759880000000  0.5030830000000 1.0
C      1  0.5467590000000  0.4270880000000  0.4997040000000 1.0
C      1  0.4535160000000  0.4270880000000  0.5011770000000 1.0
C      1  0.4743660000000  0.5719150000000  0.4564720000000 1.0
C      1  0.5259080000000  0.5719180000000  0.5444000000000 1.0
C      1  0.4779900000000  0.4251300000000  0.4559800000000 1.0
C      1  0.5222850000000  0.4251330000000  0.5449010000000 1.0
C      1  0.4758340000000  0.4154170000000  0.5124650000000 1.0
C      1  0.5244410000000  0.4154160000000  0.4884170000000 1.0
C      1  0.4887720000000  0.5861920000000  0.5098730000000 1.0
C      1  0.5115020000000  0.5861910000000  0.4909980000000 1.0
C      1  0.4463010000000  0.5628690000000  0.5241980000000 1.0
C      1  0.5539730000000  0.5628680000000  0.4766740000000 1.0
C      1  0.4401130000000  0.4460380000000  0.5180400000000 1.0
C      1  0.5601620000000  0.4460380000000  0.4828400000000 1.0
C      1  0.4354410000000  0.4948990000000  0.4559520000000 1.0
C      1  0.5648330000000  0.4949020000000  0.5449250000000 1.0
C      1  0.5001370000000  0.4963170000000  0.5004380000000 1.0
END
