TITL C-122896-6443-1 0.0406124480012517 125000 -444.859665462607 0 0 66 (C3) n - 1
REM
REM in /rds/project/t2_vol4/rds-t2-cs072/BORA/CARBON/from-Arr/AIRSS/Generating-Clusters/GAP-ML-2020/Higher-Symm/SD-CG/HFTN-CG
REM
REM
REM
REM
REM
REM ./C.cell (b20cbc046b6831c77cfcea5457e17084)
REM AIRSS Version 0.9.1 bugfix July 2018 build 013d7b7c2542+ Fri, 06 Jul 2018 19:26:36 +0100
REM compiler GCC version 9.3.0
REM options -cpp -mtune=generic -march=x86-64 -g -O0
REM seed 667338320 698737006 -143474660 1402755272 -71373120 244400819 -597005351 -327121315 897379003 -955652764 2065121297 -670738901 -335676479 -250532993 -682057404 1618551778 -1450769404 146771717 24971485 -887314897 1563498582 -567440737 -1126435829 -1561605774 -451074392 935380746 1893401723 1830137821 606133624 -595363942 -1886147179 1567188043 1269647127
REM
CELL 1.54180   50.00000   50.00000   50.00000   90.00000   90.00000   90.00000
LATT -1
SFAC C  
C      1  0.5625840000000  0.5236300000000  0.5519950000000 1.0
C      1  0.5228440000000  0.5527360000000  0.5622790000000 1.0
C      1  0.5521180000000  0.5631880000000  0.5227060000000 1.0
C      1  0.4221920000000  0.4715780000000  0.5529690000000 1.0
C      1  0.5645830000000  0.4798100000000  0.4484770000000 1.0
C      1  0.4412620000000  0.5270320000000  0.4467510000000 1.0
C      1  0.4794610000000  0.4490280000000  0.5639350000000 1.0
C      1  0.5273500000000  0.4476370000000  0.4408680000000 1.0
C      1  0.4715410000000  0.5536350000000  0.4216110000000 1.0
C      1  0.4475210000000  0.4413200000000  0.5265230000000 1.0
C      1  0.5538990000000  0.4225800000000  0.4712630000000 1.0
C      1  0.4486380000000  0.5644430000000  0.4787700000000 1.0
C      1  0.5628590000000  0.4957200000000  0.5187670000000 1.0
C      1  0.4950770000000  0.5193880000000  0.5623700000000 1.0
C      1  0.5189190000000  0.5631650000000  0.4947620000000 1.0
C      1  0.4415370000000  0.5031950000000  0.5274560000000 1.0
C      1  0.5599140000000  0.5202130000000  0.4803990000000 1.0
C      1  0.4413250000000  0.4895600000000  0.4828020000000 1.0
C      1  0.5197510000000  0.4811280000000  0.5595160000000 1.0
C      1  0.4897240000000  0.4835250000000  0.4407680000000 1.0
C      1  0.5031640000000  0.5282380000000  0.4410990000000 1.0
C      1  0.4836110000000  0.4414140000000  0.4890890000000 1.0
C      1  0.5282490000000  0.4419240000000  0.5027700000000 1.0
C      1  0.4805410000000  0.5601190000000  0.5192270000000 1.0
C      1  0.4603070000000  0.5233780000000  0.4245610000000 1.0
C      1  0.5236900000000  0.4254110000000  0.4598700000000 1.0
C      1  0.4252340000000  0.4602300000000  0.5227640000000 1.0
C      1  0.5573970000000  0.4535550000000  0.4411230000000 1.0
C      1  0.4300550000000  0.4514800000000  0.5699800000000 1.0
C      1  0.5395430000000  0.5279080000000  0.5677880000000 1.0
C      1  0.4513280000000  0.5705510000000  0.4293840000000 1.0
C      1  0.5271780000000  0.5685720000000  0.5392780000000 1.0
C      1  0.4532780000000  0.4415680000000  0.5566010000000 1.0
C      1  0.5680290000000  0.5402510000000  0.5271010000000 1.0
C      1  0.4413500000000  0.5571050000000  0.4525400000000 1.0
C      1  0.5708890000000  0.4304470000000  0.4511480000000 1.0
C      1  0.4886650000000  0.5320800000000  0.5146190000000 1.0
C      1  0.5318510000000  0.5154760000000  0.4883670000000 1.0
C      1  0.5151300000000  0.4891070000000  0.5314370000000 1.0
C      1  0.5169390000000  0.4691910000000  0.5080710000000 1.0
C      1  0.4930870000000  0.4701640000000  0.4898230000000 1.0
C      1  0.5083110000000  0.5356110000000  0.4920010000000 1.0
C      1  0.4700200000000  0.4904080000000  0.4924320000000 1.0
C      1  0.5353750000000  0.4928520000000  0.5080090000000 1.0
C      1  0.4688410000000  0.5086260000000  0.5162970000000 1.0
C      1  0.4924020000000  0.5086460000000  0.5348600000000 1.0
C      1  0.5084970000000  0.5170740000000  0.4684200000000 1.0
C      1  0.4903760000000  0.4931290000000  0.4694770000000 1.0
C      1  0.4618450000000  0.5665020000000  0.4999020000000 1.0
C      1  0.5664790000000  0.5009350000000  0.4617180000000 1.0
C      1  0.5005190000000  0.4623580000000  0.5659590000000 1.0
C      1  0.5532770000000  0.4302360000000  0.4978380000000 1.0
C      1  0.4655850000000  0.4341660000000  0.5076850000000 1.0
C      1  0.5457020000000  0.5695400000000  0.4954880000000 1.0
C      1  0.4340930000000  0.5081430000000  0.4647560000000 1.0
C      1  0.5690880000000  0.4964450000000  0.5455840000000 1.0
C      1  0.4297360000000  0.4981860000000  0.5524150000000 1.0
C      1  0.4956530000000  0.5462010000000  0.5686310000000 1.0
C      1  0.4981110000000  0.5531880000000  0.4292980000000 1.0
C      1  0.5084230000000  0.4655680000000  0.4336160000000 1.0
C      1  0.5202960000000  0.5073440000000  0.5715190000000 1.0
C      1  0.5067000000000  0.5722340000000  0.5199250000000 1.0
C      1  0.4839240000000  0.5094280000000  0.4289580000000 1.0
C      1  0.5718850000000  0.5209350000000  0.5066240000000 1.0
C      1  0.5095960000000  0.4297220000000  0.4834160000000 1.0
C      1  0.4295190000000  0.4838090000000  0.5087170000000 1.0
END
