TITL C-127525-157-10 -0.0462619031041303 125000 -423.404336640818 0 0 61 (C1) n - 1
REM
REM in /rds/project/t2_vol4/rds-t2-cs072/BORA/CARBON/from-Arr/AIRSS/Generating-Clusters/GAP-ML-2020/Higher-Symm/SD-CG/HFTN-CG
REM
REM
REM
REM
REM
REM ./C.cell (b20cbc046b6831c77cfcea5457e17084)
REM AIRSS Version 0.9.1 bugfix July 2018 build 013d7b7c2542+ Fri, 06 Jul 2018 19:26:36 +0100
REM compiler GCC version 9.3.0
REM options -cpp -mtune=generic -march=x86-64 -g -O0
REM seed 606891516 -1783942979 -1755177019 -418544268 1806533004 -558986445 -66401520 1755293043 2093009401 1017009635 -1137948029 1521242846 1985290592 -2029766816 -1056786273 -1956216285 -1991058882 -1093131798 207552057 -529005860 -993303874 994309373 -616799462 1295641018 1522867926 1375808493 1037476012 1529599676 153828664 -1611396134 -265580830 -1120018245 -426464902
REM
CELL 1.54180   50.00000   50.00000   50.00000   90.00000   90.00000   90.00000
LATT -1
SFAC C  
C      1  0.4226820000000  0.5190550000000  0.5004120000000 1.0
C      1  0.4216150000000  0.4891640000000  0.4997870000000 1.0
C      1  0.4245740000000  0.4887850000000  0.5284980000000 1.0
C      1  0.4250750000000  0.5179210000000  0.5291890000000 1.0
C      1  0.5488150000000  0.5321740000000  0.4687440000000 1.0
C      1  0.5459050000000  0.4656090000000  0.4606780000000 1.0
C      1  0.4753790000000  0.4446450000000  0.5027030000000 1.0
C      1  0.4794250000000  0.5584840000000  0.5070910000000 1.0
C      1  0.5626680000000  0.4865480000000  0.4511220000000 1.0
C      1  0.5631710000000  0.5067180000000  0.4691800000000 1.0
C      1  0.5608540000000  0.5298000000000  0.5372940000000 1.0
C      1  0.5595990000000  0.4656100000000  0.5306990000000 1.0
C      1  0.4725180000000  0.4521760000000  0.4576970000000 1.0
C      1  0.4779190000000  0.5538830000000  0.4617540000000 1.0
C      1  0.5057910000000  0.5555530000000  0.4678240000000 1.0
C      1  0.5001460000000  0.4469280000000  0.4625880000000 1.0
C      1  0.5181750000000  0.4615930000000  0.5495260000000 1.0
C      1  0.5185960000000  0.5310630000000  0.5541690000000 1.0
C      1  0.5373110000000  0.5458570000000  0.5371360000000 1.0
C      1  0.5361150000000  0.4494600000000  0.5300480000000 1.0
C      1  0.4443170000000  0.5305580000000  0.4854660000000 1.0
C      1  0.4422500000000  0.4769020000000  0.4841070000000 1.0
C      1  0.4917840000000  0.5156370000000  0.4895790000000 1.0
C      1  0.4907570000000  0.4870060000000  0.4883470000000 1.0
C      1  0.4695830000000  0.4660210000000  0.5247430000000 1.0
C      1  0.4715370000000  0.5362350000000  0.5269720000000 1.0
C      1  0.5144900000000  0.5167820000000  0.4377490000000 1.0
C      1  0.5119860000000  0.4864400000000  0.4353170000000 1.0
C      1  0.5103700000000  0.4852820000000  0.5112680000000 1.0
C      1  0.5108740000000  0.5135070000000  0.5126980000000 1.0
C      1  0.5596790000000  0.4822070000000  0.5535260000000 1.0
C      1  0.5601450000000  0.5101800000000  0.5575300000000 1.0
C      1  0.4967450000000  0.4712030000000  0.5341890000000 1.0
C      1  0.4975880000000  0.5261870000000  0.5365180000000 1.0
C      1  0.5322110000000  0.5097140000000  0.5688310000000 1.0
C      1  0.5325510000000  0.4803280000000  0.5664850000000 1.0
C      1  0.4457690000000  0.4905500000000  0.4579540000000 1.0
C      1  0.4471010000000  0.5185620000000  0.4586450000000 1.0
C      1  0.5664290000000  0.4726950000000  0.5040670000000 1.0
C      1  0.5676290000000  0.5245170000000  0.5103680000000 1.0
C      1  0.4643200000000  0.4869220000000  0.5023750000000 1.0
C      1  0.4652430000000  0.5173720000000  0.5032930000000 1.0
C      1  0.5068540000000  0.5605550000000  0.4971850000000 1.0
C      1  0.5022990000000  0.4406200000000  0.4914870000000 1.0
C      1  0.5290160000000  0.4427030000000  0.5024960000000 1.0
C      1  0.5321250000000  0.5563990000000  0.5100030000000 1.0
C      1  0.4621760000000  0.5555830000000  0.4848420000000 1.0
C      1  0.4576500000000  0.4505010000000  0.4813430000000 1.0
C      1  0.5526130000000  0.5433150000000  0.4943520000000 1.0
C      1  0.5500760000000  0.4557570000000  0.4869130000000 1.0
C      1  0.4488480000000  0.5160900000000  0.5686560000000 1.0
C      1  0.4521150000000  0.4905940000000  0.5655220000000 1.0
C      1  0.4472930000000  0.5306000000000  0.5433980000000 1.0
C      1  0.4468150000000  0.4747680000000  0.5416980000000 1.0
C      1  0.4841390000000  0.4894960000000  0.4296370000000 1.0
C      1  0.4864990000000  0.5182230000000  0.4313490000000 1.0
C      1  0.4646300000000  0.4753750000000  0.4431050000000 1.0
C      1  0.4679860000000  0.5328720000000  0.4454250000000 1.0
C      1  0.5246710000000  0.5369700000000  0.4550240000000 1.0
C      1  0.5200530000000  0.4632950000000  0.4496460000000 1.0
C      1  0.5710870000000  0.4999720000000  0.4961700000000 1.0
END
