TITL C-126552-4181-7 0.14054463926945 125000 -583.72677427676 0 0 81 (C1) n - 1
REM
REM in /rds/project/t2_vol4/rds-t2-cs072/BORA/CARBON/from-Arr/AIRSS/Generating-Clusters/GAP-ML-2020/Higher-Symm/SD-CG/HFTN-CG
REM
REM
REM
REM
REM
REM ./C.cell (b20cbc046b6831c77cfcea5457e17084)
REM AIRSS Version 0.9.1 bugfix July 2018 build 013d7b7c2542+ Fri, 06 Jul 2018 19:26:36 +0100
REM compiler GCC version 9.3.0
REM options -cpp -mtune=generic -march=x86-64 -g -O0
REM seed 276863915 1314502680 65867142 -1340229147 474249140 1784412662 -1448001334 761736025 666318099 271779372 -1432494106 -2125883105 -1678724333 268507277 260303019 -2117551632 1164192955 -1743814025 1186574084 2143684864 -2107808135 -608512644 -150960498 -608080640 -1906755344 -606527589 -2038337440 -1004371891 -2090291845 552021054 -1319714465 -743944511 -1964933036
REM
CELL 1.54180   50.00000   50.00000   50.00000   90.00000   90.00000   90.00000
LATT -1
SFAC C  
C      1  0.5694360000000  0.4830600000000  0.4754960000000 1.0
C      1  0.5052250000000  0.4270030000000  0.4726210000000 1.0
C      1  0.4326520000000  0.4715590000000  0.4723530000000 1.0
C      1  0.4528740000000  0.5545710000000  0.4740430000000 1.0
C      1  0.5377460000000  0.5622310000000  0.4741290000000 1.0
C      1  0.5564600000000  0.5002790000000  0.5322060000000 1.0
C      1  0.5178120000000  0.4286460000000  0.5355300000000 1.0
C      1  0.4406110000000  0.4578660000000  0.5352440000000 1.0
C      1  0.4548730000000  0.5356730000000  0.5323700000000 1.0
C      1  0.5185480000000  0.5552700000000  0.5324220000000 1.0
C      1  0.5387210000000  0.4519790000000  0.4507030000000 1.0
C      1  0.4663270000000  0.4480270000000  0.4489420000000 1.0
C      1  0.4404710000000  0.5158470000000  0.4499090000000 1.0
C      1  0.4968440000000  0.5617270000000  0.4500580000000 1.0
C      1  0.5576780000000  0.5219730000000  0.4507040000000 1.0
C      1  0.4863050000000  0.5660930000000  0.5655760000000 1.0
C      1  0.5616340000000  0.5319590000000  0.5668220000000 1.0
C      1  0.5340620000000  0.4619960000000  0.5623510000000 1.0
C      1  0.4808600000000  0.4489600000000  0.5592760000000 1.0
C      1  0.4508930000000  0.4965520000000  0.5602280000000 1.0
C      1  0.4252560000000  0.5154520000000  0.4958330000000 1.0
C      1  0.4921160000000  0.5777350000000  0.4950140000000 1.0
C      1  0.5708630000000  0.5317730000000  0.4956550000000 1.0
C      1  0.5496730000000  0.4414380000000  0.4968350000000 1.0
C      1  0.4596800000000  0.4323710000000  0.4940710000000 1.0
C      1  0.4815650000000  0.5161060000000  0.4868110000000 1.0
C      1  0.5088500000000  0.5240470000000  0.4878170000000 1.0
C      1  0.5248760000000  0.5006650000000  0.4872110000000 1.0
C      1  0.5077540000000  0.4778190000000  0.4871770000000 1.0
C      1  0.4806100000000  0.4874220000000  0.4865490000000 1.0
C      1  0.5665790000000  0.4652790000000  0.4980940000000 1.0
C      1  0.4871870000000  0.4224020000000  0.4942660000000 1.0
C      1  0.4233790000000  0.4862870000000  0.4950780000000 1.0
C      1  0.4644590000000  0.5685180000000  0.4959980000000 1.0
C      1  0.5538690000000  0.5553960000000  0.4968540000000 1.0
C      1  0.4932120000000  0.4383930000000  0.4492380000000 1.0
C      1  0.4396220000000  0.4873340000000  0.4494090000000 1.0
C      1  0.4694920000000  0.5534110000000  0.4503880000000 1.0
C      1  0.5418090000000  0.5458300000000  0.4506270000000 1.0
C      1  0.5562330000000  0.4744440000000  0.4513160000000 1.0
C      1  0.5545350000000  0.5073880000000  0.5616780000000 1.0
C      1  0.5104260000000  0.4476180000000  0.5585190000000 1.0
C      1  0.4585490000000  0.4685240000000  0.5574650000000 1.0
C      1  0.4630250000000  0.5230900000000  0.5601960000000 1.0
C      1  0.5094200000000  0.5512480000000  0.5609250000000 1.0
C      1  0.4246830000000  0.4774860000000  0.5230540000000 1.0
C      1  0.4595100000000  0.5636620000000  0.5248090000000 1.0
C      1  0.5474600000000  0.5589580000000  0.5255460000000 1.0
C      1  0.5667580000000  0.4735070000000  0.5259310000000 1.0
C      1  0.4948180000000  0.4203140000000  0.5221050000000 1.0
C      1  0.5728780000000  0.5239790000000  0.5227840000000 1.0
C      1  0.5426290000000  0.4352780000000  0.5243000000000 1.0
C      1  0.4520340000000  0.4359380000000  0.5219310000000 1.0
C      1  0.4303470000000  0.5222150000000  0.5236550000000 1.0
C      1  0.5003320000000  0.5775650000000  0.5228540000000 1.0
C      1  0.5085180000000  0.5226680000000  0.4238080000000 1.0
C      1  0.5245430000000  0.4991900000000  0.4237320000000 1.0
C      1  0.5071360000000  0.4767380000000  0.4229680000000 1.0
C      1  0.4803020000000  0.4863910000000  0.4226140000000 1.0
C      1  0.4811820000000  0.5148370000000  0.4232560000000 1.0
C      1  0.4600350000000  0.4725840000000  0.4354060000000 1.0
C      1  0.4616710000000  0.5296860000000  0.4362830000000 1.0
C      1  0.5167190000000  0.5458950000000  0.4365490000000 1.0
C      1  0.5489040000000  0.4983400000000  0.4369620000000 1.0
C      1  0.5139040000000  0.4533160000000  0.4360370000000 1.0
C      1  0.4737290000000  0.4292340000000  0.5388130000000 1.0
C      1  0.4287630000000  0.4994070000000  0.5402030000000 1.0
C      1  0.4780380000000  0.5782730000000  0.5405490000000 1.0
C      1  0.5661240000000  0.5447300000000  0.5413800000000 1.0
C      1  0.5531390000000  0.4547430000000  0.5424180000000 1.0
C      1  0.5097630000000  0.5722610000000  0.4733360000000 1.0
C      1  0.5709920000000  0.5128020000000  0.4743720000000 1.0
C      1  0.5335800000000  0.4356930000000  0.4737550000000 1.0
C      1  0.4492120000000  0.4469730000000  0.4719220000000 1.0
C      1  0.4350070000000  0.5308730000000  0.4737760000000 1.0
C      1  0.5076220000000  0.4796440000000  0.5173690000000 1.0
C      1  0.4806950000000  0.4886630000000  0.5165580000000 1.0
C      1  0.4802200000000  0.5179610000000  0.5176990000000 1.0
C      1  0.5090000000000  0.5264520000000  0.5190300000000 1.0
C      1  0.5260090000000  0.5019830000000  0.5200090000000 1.0
C      1  0.4844020000000  0.5382950000000  0.5696060000000 1.0
END
