TITL C-126533-6333-11 67.390383064209 125000 -198.208404613537 0 0 30 (C1) n - 1
REM
REM in /rds/project/t2_vol4/rds-t2-cs072/BORA/CARBON/from-Arr/AIRSS/Generating-Clusters/GAP-ML-2020/Higher-Symm/SD-CG/HFTN-CG
REM
REM
REM
REM
REM
REM ./C.cell (b20cbc046b6831c77cfcea5457e17084)
REM AIRSS Version 0.9.1 bugfix July 2018 build 013d7b7c2542+ Fri, 06 Jul 2018 19:26:36 +0100
REM compiler GCC version 9.3.0
REM options -cpp -mtune=generic -march=x86-64 -g -O0
REM seed 1686133409 1434449533 234841652 -233074885 -2135196170 435132681 907507000 -1683189894 -1352027089 1276036308 1932080462 -1339577189 -1647561256 -1697428092 -875340260 -797892854 -2088627954 1057906798 -206053390 311342698 -1793975580 401428640 264451222 -1808621827 909935161 329619519 176988160 -23349054 671841013 2005404060 499619335 1154233761 -1731760193
REM
CELL 1.54180   50.00000   50.00000   50.00000   90.00000   90.00000   90.00000
LATT -1
SFAC C  
C      1  0.4797860000000  0.5035250000000  0.5745320000000 1.0
C      1  0.4859800000000  0.5639060000000  0.4598150000000 1.0
C      1  0.4930900000000  0.4383830000000  0.4712750000000 1.0
C      1  0.5049430000000  0.5061190000000  0.5678770000000 1.0
C      1  0.5106270000000  0.5550430000000  0.4606790000000 1.0
C      1  0.5180990000000  0.4329600000000  0.4657440000000 1.0
C      1  0.4657310000000  0.5237380000000  0.5118160000000 1.0
C      1  0.4671310000000  0.4997500000000  0.4715950000000 1.0
C      1  0.4621200000000  0.4766340000000  0.5134640000000 1.0
C      1  0.5369240000000  0.5245230000000  0.5142140000000 1.0
C      1  0.5379940000000  0.4985310000000  0.4738680000000 1.0
C      1  0.5330860000000  0.4769490000000  0.5151200000000 1.0
C      1  0.5178430000000  0.4842180000000  0.4570560000000 1.0
C      1  0.5113360000000  0.4717030000000  0.5343410000000 1.0
C      1  0.5157430000000  0.5446240000000  0.5079480000000 1.0
C      1  0.4885770000000  0.4848460000000  0.4578460000000 1.0
C      1  0.4820800000000  0.4701140000000  0.5348090000000 1.0
C      1  0.4864680000000  0.5444350000000  0.5080790000000 1.0
C      1  0.5421050000000  0.4728730000000  0.4888000000000 1.0
C      1  0.5396810000000  0.5020620000000  0.5301430000000 1.0
C      1  0.5431050000000  0.5233500000000  0.4846900000000 1.0
C      1  0.4595630000000  0.4744040000000  0.4860370000000 1.0
C      1  0.4569020000000  0.5025050000000  0.5279520000000 1.0
C      1  0.4603240000000  0.5248780000000  0.4823290000000 1.0
C      1  0.5220300000000  0.4938380000000  0.5520070000000 1.0
C      1  0.5266810000000  0.5469980000000  0.4798940000000 1.0
C      1  0.5273030000000  0.4581690000000  0.4683540000000 1.0
C      1  0.4715290000000  0.4928360000000  0.5512020000000 1.0
C      1  0.4763620000000  0.5491790000000  0.4802170000000 1.0
C      1  0.4768570000000  0.4589060000000  0.4682980000000 1.0
END
