TITL C-125357-2127-2 124.283946561465 125000 -981.626801306179 0 0 137 (C1) n - 1
REM
REM in /rds/project/t2_vol4/rds-t2-cs072/BORA/CARBON/from-Arr/AIRSS/Generating-Clusters/GAP-ML-2020/Higher-Symm/SD-CG/HFTN-CG
REM
REM
REM
REM
REM
REM ./C.cell (b20cbc046b6831c77cfcea5457e17084)
REM AIRSS Version 0.9.1 bugfix July 2018 build 013d7b7c2542+ Fri, 06 Jul 2018 19:26:36 +0100
REM compiler GCC version 9.3.0
REM options -cpp -mtune=generic -march=x86-64 -g -O0
REM seed -1984043465 719396004 974852569 -191190339 2143852121 1563694094 -1373765100 -1472228996 -1700586354 -154030949 1674404261 67750117 -1602564416 -449987505 1187466302 1129488678 635300138 -1131557775 562648502 1770333048 842919034 1900096382 1960543530 1751085710 -1853906546 -1125497971 1134626293 462450925 -2019249803 -1487105204 -107898575 -1815746613 377287539
REM
CELL 1.54180   50.00000   50.00000   50.00000   90.00000   90.00000   90.00000
LATT -1
SFAC C  
C      1  0.5119770000000  0.4489760000000  0.5866370000000 1.0
C      1  0.4881770000000  0.5517440000000  0.5873370000000 1.0
C      1  0.4776100000000  0.4509170000000  0.4107380000000 1.0
C      1  0.5220710000000  0.5503060000000  0.4094810000000 1.0
C      1  0.4209390000000  0.4938440000000  0.4982280000000 1.0
C      1  0.5784540000000  0.5054030000000  0.4971490000000 1.0
C      1  0.5639630000000  0.5547080000000  0.5485600000000 1.0
C      1  0.4365120000000  0.4451380000000  0.5469960000000 1.0
C      1  0.5479870000000  0.5221190000000  0.4978380000000 1.0
C      1  0.4497650000000  0.4770280000000  0.4989620000000 1.0
C      1  0.5446860000000  0.5737340000000  0.5398800000000 1.0
C      1  0.4571280000000  0.4278580000000  0.5371550000000 1.0
C      1  0.5136310000000  0.5294030000000  0.5402410000000 1.0
C      1  0.4919950000000  0.4765460000000  0.5289000000000 1.0
C      1  0.4216050000000  0.4545050000000  0.5247290000000 1.0
C      1  0.5771170000000  0.5447170000000  0.5249220000000 1.0
C      1  0.4149220000000  0.5271360000000  0.5363770000000 1.0
C      1  0.5851200000000  0.4730490000000  0.5350900000000 1.0
C      1  0.5105130000000  0.4313290000000  0.4436970000000 1.0
C      1  0.4866490000000  0.5810540000000  0.4324970000000 1.0
C      1  0.5038050000000  0.4881480000000  0.4508990000000 1.0
C      1  0.4927990000000  0.5156920000000  0.4528180000000 1.0
C      1  0.5200580000000  0.5221090000000  0.6038850000000 1.0
C      1  0.4799020000000  0.4781940000000  0.6033350000000 1.0
C      1  0.5391430000000  0.4316580000000  0.4428210000000 1.0
C      1  0.4600500000000  0.5712330000000  0.4392420000000 1.0
C      1  0.4636560000000  0.4824300000000  0.5250460000000 1.0
C      1  0.5290310000000  0.5124540000000  0.5215690000000 1.0
C      1  0.4747620000000  0.5458900000000  0.4062870000000 1.0
C      1  0.5249620000000  0.4548640000000  0.4083840000000 1.0
C      1  0.5459350000000  0.5522330000000  0.4258300000000 1.0
C      1  0.4537060000000  0.4489560000000  0.4263470000000 1.0
C      1  0.4559330000000  0.5557360000000  0.5084920000000 1.0
C      1  0.5470670000000  0.4412880000000  0.5068920000000 1.0
C      1  0.4520130000000  0.5073820000000  0.5831040000000 1.0
C      1  0.5462430000000  0.4915470000000  0.5807060000000 1.0
C      1  0.4663600000000  0.4840740000000  0.4762550000000 1.0
C      1  0.5333020000000  0.5177730000000  0.4729690000000 1.0
C      1  0.5620070000000  0.5283380000000  0.4287600000000 1.0
C      1  0.4381160000000  0.4729430000000  0.4297290000000 1.0
C      1  0.5762980000000  0.5301030000000  0.4538220000000 1.0
C      1  0.4233600000000  0.4704980000000  0.4542700000000 1.0
C      1  0.5023500000000  0.4858040000000  0.5543790000000 1.0
C      1  0.4963570000000  0.5132420000000  0.5566550000000 1.0
C      1  0.5559360000000  0.4379280000000  0.5554680000000 1.0
C      1  0.4448190000000  0.5630090000000  0.5556250000000 1.0
C      1  0.5229780000000  0.4012130000000  0.4777820000000 1.0
C      1  0.4776790000000  0.5954740000000  0.4752850000000 1.0
C      1  0.5613770000000  0.4359950000000  0.4816730000000 1.0
C      1  0.4408030000000  0.5615220000000  0.4832590000000 1.0
C      1  0.4775840000000  0.4213750000000  0.4859040000000 1.0
C      1  0.5249840000000  0.5782910000000  0.4901650000000 1.0
C      1  0.5776320000000  0.4765130000000  0.5029220000000 1.0
C      1  0.4233880000000  0.5223890000000  0.5042290000000 1.0
C      1  0.5211610000000  0.5788020000000  0.5570570000000 1.0
C      1  0.4804100000000  0.4241980000000  0.5539490000000 1.0
C      1  0.5271560000000  0.4901400000000  0.4672350000000 1.0
C      1  0.4735650000000  0.5111860000000  0.4737560000000 1.0
C      1  0.5146440000000  0.5247460000000  0.3986250000000 1.0
C      1  0.4854220000000  0.4758600000000  0.3990410000000 1.0
C      1  0.4660150000000  0.4576380000000  0.5871860000000 1.0
C      1  0.5343560000000  0.5431040000000  0.5890270000000 1.0
C      1  0.5249950000000  0.4069090000000  0.5285350000000 1.0
C      1  0.4768530000000  0.5934190000000  0.5270690000000 1.0
C      1  0.5470670000000  0.4251840000000  0.5311730000000 1.0
C      1  0.4546930000000  0.5745330000000  0.5310580000000 1.0
C      1  0.5282620000000  0.5863040000000  0.4625520000000 1.0
C      1  0.4670680000000  0.4108550000000  0.4600740000000 1.0
C      1  0.4990480000000  0.5791380000000  0.5391890000000 1.0
C      1  0.5017450000000  0.4233350000000  0.5353900000000 1.0
C      1  0.5786580000000  0.4799820000000  0.4562840000000 1.0
C      1  0.4218200000000  0.5201320000000  0.4570390000000 1.0
C      1  0.4699320000000  0.4989620000000  0.4019000000000 1.0
C      1  0.5303290000000  0.5016610000000  0.4017110000000 1.0
C      1  0.4378080000000  0.4481200000000  0.4986300000000 1.0
C      1  0.5613030000000  0.5512690000000  0.4995810000000 1.0
C      1  0.4993980000000  0.5521170000000  0.5296460000000 1.0
C      1  0.5013590000000  0.4482150000000  0.5204740000000 1.0
C      1  0.4418540000000  0.4616070000000  0.5713360000000 1.0
C      1  0.5580490000000  0.5379840000000  0.5723950000000 1.0
C      1  0.4864840000000  0.4689860000000  0.4636390000000 1.0
C      1  0.5113630000000  0.5339500000000  0.4649240000000 1.0
C      1  0.5771130000000  0.4601650000000  0.4774470000000 1.0
C      1  0.4238580000000  0.5388110000000  0.4791300000000 1.0
C      1  0.4664840000000  0.5200180000000  0.5607200000000 1.0
C      1  0.5321400000000  0.4791340000000  0.5580610000000 1.0
C      1  0.4132320000000  0.4812420000000  0.5245390000000 1.0
C      1  0.5854020000000  0.5180520000000  0.5233650000000 1.0
C      1  0.5152950000000  0.5626440000000  0.5806160000000 1.0
C      1  0.4854540000000  0.4386380000000  0.5785090000000 1.0
C      1  0.5475180000000  0.4536160000000  0.4256640000000 1.0
C      1  0.4527390000000  0.5473470000000  0.4244130000000 1.0
C      1  0.4854860000000  0.5221610000000  0.3967260000000 1.0
C      1  0.5146720000000  0.4782100000000  0.3973390000000 1.0
C      1  0.4780430000000  0.6024010000000  0.5012790000000 1.0
C      1  0.5264530000000  0.3960590000000  0.5036310000000 1.0
C      1  0.4334290000000  0.4884280000000  0.5715090000000 1.0
C      1  0.5647220000000  0.5106820000000  0.5698300000000 1.0
C      1  0.5079930000000  0.4729760000000  0.6021190000000 1.0
C      1  0.4916410000000  0.5275290000000  0.6032720000000 1.0
C      1  0.5634360000000  0.4776890000000  0.4311810000000 1.0
C      1  0.4372510000000  0.5233160000000  0.4318760000000 1.0
C      1  0.4653890000000  0.5484720000000  0.5701180000000 1.0
C      1  0.5348560000000  0.4523750000000  0.5694920000000 1.0
C      1  0.4156670000000  0.4940010000000  0.4682600000000 1.0
C      1  0.5836260000000  0.5062860000000  0.4677260000000 1.0
C      1  0.4526760000000  0.5081070000000  0.5368000000000 1.0
C      1  0.5458970000000  0.4897810000000  0.5338970000000 1.0
C      1  0.5497090000000  0.4720190000000  0.5103190000000 1.0
C      1  0.4512550000000  0.5258470000000  0.5137270000000 1.0
C      1  0.5445220000000  0.5725930000000  0.5101280000000 1.0
C      1  0.4573400000000  0.4285580000000  0.5078080000000 1.0
C      1  0.4965830000000  0.5636870000000  0.4126420000000 1.0
C      1  0.5026800000000  0.4397780000000  0.4182920000000 1.0
C      1  0.4207520000000  0.5484420000000  0.5517540000000 1.0
C      1  0.5795450000000  0.4524770000000  0.5513010000000 1.0
C      1  0.4873730000000  0.5476360000000  0.5042610000000 1.0
C      1  0.5157820000000  0.4491450000000  0.4956400000000 1.0
C      1  0.4229450000000  0.4995320000000  0.5451760000000 1.0
C      1  0.5748410000000  0.4998880000000  0.5433500000000 1.0
C      1  0.4318230000000  0.4462200000000  0.4684310000000 1.0
C      1  0.5669380000000  0.5539630000000  0.4685420000000 1.0
C      1  0.5002430000000  0.5926000000000  0.4548910000000 1.0
C      1  0.4912000000000  0.3992040000000  0.4721940000000 1.0
C      1  0.4499510000000  0.4318090000000  0.4501790000000 1.0
C      1  0.5483940000000  0.5682750000000  0.4508390000000 1.0
C      1  0.4973570000000  0.4432050000000  0.4725110000000 1.0
C      1  0.5055060000000  0.5555190000000  0.4836990000000 1.0
C      1  0.5467370000000  0.4177350000000  0.4657020000000 1.0
C      1  0.4543810000000  0.5790860000000  0.4657310000000 1.0
C      1  0.4718390000000  0.5055790000000  0.6033120000000 1.0
C      1  0.5275360000000  0.4945460000000  0.6017350000000 1.0
C      1  0.4804480000000  0.5185410000000  0.5002610000000 1.0
C      1  0.5248800000000  0.4777310000000  0.4925880000000 1.0
C      1  0.5543220000000  0.5022680000000  0.4183010000000 1.0
C      1  0.4461920000000  0.4987910000000  0.4190660000000 1.0
C      1  0.5067170000000  0.4962230000000  0.5091720000000 1.0
END
