TITL C-123296-3127-9 -0.270890623065725 125000 -801.624258537491 0 0 115 (C1) n - 1
REM
REM in /rds/project/t2_vol4/rds-t2-cs072/BORA/CARBON/from-Arr/AIRSS/Generating-Clusters/GAP-ML-2020/Higher-Symm/SD-CG/HFTN-CG
REM
REM
REM
REM
REM
REM ./C.cell (b20cbc046b6831c77cfcea5457e17084)
REM AIRSS Version 0.9.1 bugfix July 2018 build 013d7b7c2542+ Fri, 06 Jul 2018 19:26:36 +0100
REM compiler GCC version 9.3.0
REM options -cpp -mtune=generic -march=x86-64 -g -O0
REM seed 1954113916 -540413566 -963907410 1964893330 1366281146 1743348633 -601853123 323915219 1742203338 -949559471 -369022064 -2004154887 1736626996 -663607574 1845350845 233588338 -1803575956 -2101640571 -239657453 1448542416 453352726 1956985379 -1502992603 -1310418324 760473320 553762955 -845537013 669526055 1336030488 -928800424 -111816374 479185698 1902373964
REM
CELL 1.54180   50.00000   50.00000   50.00000   90.00000   90.00000   90.00000
LATT -1
SFAC C  
C      1  0.4636020000000  0.4872030000000  0.4796260000000 1.0
C      1  0.5353570000000  0.5125880000000  0.4817420000000 1.0
C      1  0.4923730000000  0.5685090000000  0.5486820000000 1.0
C      1  0.5081980000000  0.4300800000000  0.5489820000000 1.0
C      1  0.5205250000000  0.5290580000000  0.4212000000000 1.0
C      1  0.4787240000000  0.4704740000000  0.4212890000000 1.0
C      1  0.4990430000000  0.4462420000000  0.4801350000000 1.0
C      1  0.5007230000000  0.5534190000000  0.4799350000000 1.0
C      1  0.5489450000000  0.5595110000000  0.4816250000000 1.0
C      1  0.4509760000000  0.4401400000000  0.4818060000000 1.0
C      1  0.5440440000000  0.5780820000000  0.5055520000000 1.0
C      1  0.4559510000000  0.4218180000000  0.5057780000000 1.0
C      1  0.4397960000000  0.5650280000000  0.4620830000000 1.0
C      1  0.5598040000000  0.4343350000000  0.4619350000000 1.0
C      1  0.4825250000000  0.4151360000000  0.5151480000000 1.0
C      1  0.5173890000000  0.5846770000000  0.5150630000000 1.0
C      1  0.5134970000000  0.4466260000000  0.5249880000000 1.0
C      1  0.4873920000000  0.5517750000000  0.5245400000000 1.0
C      1  0.5319860000000  0.4950420000000  0.5304270000000 1.0
C      1  0.4691450000000  0.5035420000000  0.5298620000000 1.0
C      1  0.4575940000000  0.4587800000000  0.5719120000000 1.0
C      1  0.5427790000000  0.5407560000000  0.5717420000000 1.0
C      1  0.4528890000000  0.5830850000000  0.4777120000000 1.0
C      1  0.5470460000000  0.4160350000000  0.4776790000000 1.0
C      1  0.4821610000000  0.5622190000000  0.4343910000000 1.0
C      1  0.5172320000000  0.4372130000000  0.4347790000000 1.0
C      1  0.5320600000000  0.4849730000000  0.5785450000000 1.0
C      1  0.4687350000000  0.5143430000000  0.5779860000000 1.0
C      1  0.4291280000000  0.4602860000000  0.4809800000000 1.0
C      1  0.5704680000000  0.5390030000000  0.4808170000000 1.0
C      1  0.4731000000000  0.5231720000000  0.4125880000000 1.0
C      1  0.5259470000000  0.4764330000000  0.4137320000000 1.0
C      1  0.4570810000000  0.5318920000000  0.4910990000000 1.0
C      1  0.5432610000000  0.4677940000000  0.4904770000000 1.0
C      1  0.5803820000000  0.4724020000000  0.5223080000000 1.0
C      1  0.4195780000000  0.5269410000000  0.5225480000000 1.0
C      1  0.5161820000000  0.5830200000000  0.5435130000000 1.0
C      1  0.4839540000000  0.4164980000000  0.5436510000000 1.0
C      1  0.4422730000000  0.5677070000000  0.5217000000000 1.0
C      1  0.5576430000000  0.4317440000000  0.5216930000000 1.0
C      1  0.4921620000000  0.5710850000000  0.5033780000000 1.0
C      1  0.5075760000000  0.4283060000000  0.5033600000000 1.0
C      1  0.5171930000000  0.5209540000000  0.5376150000000 1.0
C      1  0.4838530000000  0.4779190000000  0.5377530000000 1.0
C      1  0.5784500000000  0.4955700000000  0.5028840000000 1.0
C      1  0.4221570000000  0.5037230000000  0.5031820000000 1.0
C      1  0.5143800000000  0.5291130000000  0.5697240000000 1.0
C      1  0.4861730000000  0.4700570000000  0.5699640000000 1.0
C      1  0.4871130000000  0.4947890000000  0.5852820000000 1.0
C      1  0.5134680000000  0.5045150000000  0.5852800000000 1.0
C      1  0.5409470000000  0.5628070000000  0.4522610000000 1.0
C      1  0.4586980000000  0.4365870000000  0.4522590000000 1.0
C      1  0.5758760000000  0.4489120000000  0.5082190000000 1.0
C      1  0.4237880000000  0.5505490000000  0.5084380000000 1.0
C      1  0.4938770000000  0.5417860000000  0.4188650000000 1.0
C      1  0.5052880000000  0.4578950000000  0.4197690000000 1.0
C      1  0.5279620000000  0.5400590000000  0.4917470000000 1.0
C      1  0.4720370000000  0.4599230000000  0.4911720000000 1.0
C      1  0.4922260000000  0.5212760000000  0.5227670000000 1.0
C      1  0.5094540000000  0.4766980000000  0.5241780000000 1.0
C      1  0.5584880000000  0.5205620000000  0.4591030000000 1.0
C      1  0.4403460000000  0.4785060000000  0.4589170000000 1.0
C      1  0.4404520000000  0.4767070000000  0.5558350000000 1.0
C      1  0.5600770000000  0.5227880000000  0.5558700000000 1.0
C      1  0.4708550000000  0.5602060000000  0.5646460000000 1.0
C      1  0.5295320000000  0.4390380000000  0.5649420000000 1.0
C      1  0.5760200000000  0.4964650000000  0.4517840000000 1.0
C      1  0.4228590000000  0.5028150000000  0.4517670000000 1.0
C      1  0.4575220000000  0.4250060000000  0.5528670000000 1.0
C      1  0.5427040000000  0.5747220000000  0.5528100000000 1.0
C      1  0.5774000000000  0.5257450000000  0.5053130000000 1.0
C      1  0.4225120000000  0.4735820000000  0.5055640000000 1.0
C      1  0.4851780000000  0.4973180000000  0.4112770000000 1.0
C      1  0.5139220000000  0.5021190000000  0.4117260000000 1.0
C      1  0.4807320000000  0.5319930000000  0.4755480000000 1.0
C      1  0.5189210000000  0.4678960000000  0.4756300000000 1.0
C      1  0.4570940000000  0.4620290000000  0.4396740000000 1.0
C      1  0.5418760000000  0.5370670000000  0.4400880000000 1.0
C      1  0.4509910000000  0.4327170000000  0.5782390000000 1.0
C      1  0.5491670000000  0.5668340000000  0.5781650000000 1.0
C      1  0.5743750000000  0.4821490000000  0.4279430000000 1.0
C      1  0.4247160000000  0.5171650000000  0.4279680000000 1.0
C      1  0.4472600000000  0.5328480000000  0.4232360000000 1.0
C      1  0.5518180000000  0.4665960000000  0.4237130000000 1.0
C      1  0.5697900000000  0.4562300000000  0.4803950000000 1.0
C      1  0.4297300000000  0.5432140000000  0.4806580000000 1.0
C      1  0.4856890000000  0.5049510000000  0.4685420000000 1.0
C      1  0.5116690000000  0.4956460000000  0.4749900000000 1.0
C      1  0.4174370000000  0.5167500000000  0.4763830000000 1.0
C      1  0.5823090000000  0.4826180000000  0.4761090000000 1.0
C      1  0.5331660000000  0.5387030000000  0.5213990000000 1.0
C      1  0.4670810000000  0.4616880000000  0.5210400000000 1.0
C      1  0.4435960000000  0.4333840000000  0.5289360000000 1.0
C      1  0.5562910000000  0.5660690000000  0.5287810000000 1.0
C      1  0.4372310000000  0.4629450000000  0.5285020000000 1.0
C      1  0.5632240000000  0.5364670000000  0.5284860000000 1.0
C      1  0.4336170000000  0.5294300000000  0.5470280000000 1.0
C      1  0.5671890000000  0.4697920000000  0.5473030000000 1.0
C      1  0.4626990000000  0.5800690000000  0.5027770000000 1.0
C      1  0.5371820000000  0.4192380000000  0.5027190000000 1.0
C      1  0.5541400000000  0.4437780000000  0.5483610000000 1.0
C      1  0.4463770000000  0.5554980000000  0.5481080000000 1.0
C      1  0.5016550000000  0.5713620000000  0.4535850000000 1.0
C      1  0.4978720000000  0.4282770000000  0.4540200000000 1.0
C      1  0.4529610000000  0.5054690000000  0.5027370000000 1.0
C      1  0.5481230000000  0.4937970000000  0.5033460000000 1.0
C      1  0.4538390000000  0.5570680000000  0.4380430000000 1.0
C      1  0.5454520000000  0.4422950000000  0.4382390000000 1.0
C      1  0.4493030000000  0.5057260000000  0.5561310000000 1.0
C      1  0.5518930000000  0.4935580000000  0.5570660000000 1.0
C      1  0.5248540000000  0.5828620000000  0.4429240000000 1.0
C      1  0.4748510000000  0.4164410000000  0.4432220000000 1.0
C      1  0.5169490000000  0.4613760000000  0.5761500000000 1.0
C      1  0.4838160000000  0.5379170000000  0.5756560000000 1.0
C      1  0.5022670000000  0.4972700000000  0.5026580000000 1.0
END
