TITL C-122885-6445-2 75.2816297492564 125000 -387.534323995976 0 0 58 (C1) n - 1
REM
REM in /rds/project/t2_vol4/rds-t2-cs072/BORA/CARBON/from-Arr/AIRSS/Generating-Clusters/GAP-ML-2020/Higher-Symm/SD-CG/HFTN-CG
REM
REM
REM
REM
REM
REM ./C.cell (b20cbc046b6831c77cfcea5457e17084)
REM AIRSS Version 0.9.1 bugfix July 2018 build 013d7b7c2542+ Fri, 06 Jul 2018 19:26:36 +0100
REM compiler GCC version 9.3.0
REM options -cpp -mtune=generic -march=x86-64 -g -O0
REM seed 334249520 -407931051 -1880743852 -1242673069 -309615673 -143806007 -547418901 1426628262 934733061 -1621411153 -380306276 -1348952196 1774728206 1725461283 -387379726 140002643 194227477 -329684676 -509301826 1331242516 -1925269864 1956737326 645516584 -211660696 -1499159550 1506906431 303446675 584923832 -1491176973 -584435675 -742882142 -1510997224 -1533921906
REM
CELL 1.54180   50.00000   50.00000   50.00000   90.00000   90.00000   90.00000
LATT -1
SFAC C  
C      1  0.5310730000000  0.4543690000000  0.5014380000000 1.0
C      1  0.4776770000000  0.4585760000000  0.5269460000000 1.0
C      1  0.4884580000000  0.4546500000000  0.4715850000000 1.0
C      1  0.5322070000000  0.5424810000000  0.5089320000000 1.0
C      1  0.4800990000000  0.5501830000000  0.5310020000000 1.0
C      1  0.4918780000000  0.5390100000000  0.4697520000000 1.0
C      1  0.4890230000000  0.4345730000000  0.5183600000000 1.0
C      1  0.4930730000000  0.4306420000000  0.4889680000000 1.0
C      1  0.5226150000000  0.4277620000000  0.4906740000000 1.0
C      1  0.5001290000000  0.5710250000000  0.5251970000000 1.0
C      1  0.4907820000000  0.5666500000000  0.4622720000000 1.0
C      1  0.5180540000000  0.5661940000000  0.5033870000000 1.0
C      1  0.4553300000000  0.5395390000000  0.5195660000000 1.0
C      1  0.5126810000000  0.5217730000000  0.4587850000000 1.0
C      1  0.5316310000000  0.5234250000000  0.5326340000000 1.0
C      1  0.4514210000000  0.4673170000000  0.5201340000000 1.0
C      1  0.5052210000000  0.4638770000000  0.4504480000000 1.0
C      1  0.5378850000000  0.4630450000000  0.5282990000000 1.0
C      1  0.5598050000000  0.4807170000000  0.5254400000000 1.0
C      1  0.4463390000000  0.4887860000000  0.5377610000000 1.0
C      1  0.4906010000000  0.4828730000000  0.4349420000000 1.0
C      1  0.5588110000000  0.5096680000000  0.5285540000000 1.0
C      1  0.4472840000000  0.5187180000000  0.5376570000000 1.0
C      1  0.4945880000000  0.5114920000000  0.4373140000000 1.0
C      1  0.5339230000000  0.4612970000000  0.4545010000000 1.0
C      1  0.5188030000000  0.4618370000000  0.5501160000000 1.0
C      1  0.4455630000000  0.4596380000000  0.4926310000000 1.0
C      1  0.5377730000000  0.5386300000000  0.4607960000000 1.0
C      1  0.5195660000000  0.5360420000000  0.5573130000000 1.0
C      1  0.4490500000000  0.5411330000000  0.4910750000000 1.0
C      1  0.4648820000000  0.5764480000000  0.4617890000000 1.0
C      1  0.5161300000000  0.5740410000000  0.4747380000000 1.0
C      1  0.5144720000000  0.5723060000000  0.5497500000000 1.0
C      1  0.4674630000000  0.4158700000000  0.4805740000000 1.0
C      1  0.5396190000000  0.4131910000000  0.4721750000000 1.0
C      1  0.5011370000000  0.4211470000000  0.5399180000000 1.0
C      1  0.4677770000000  0.5237150000000  0.4757320000000 1.0
C      1  0.5437020000000  0.5268650000000  0.4876250000000 1.0
C      1  0.4915640000000  0.5288990000000  0.5471620000000 1.0
C      1  0.4663140000000  0.4735460000000  0.4752640000000 1.0
C      1  0.5388270000000  0.4759370000000  0.4813440000000 1.0
C      1  0.4943380000000  0.4781060000000  0.5431710000000 1.0
C      1  0.4471070000000  0.5637010000000  0.4753400000000 1.0
C      1  0.5368560000000  0.5653520000000  0.4586170000000 1.0
C      1  0.5256020000000  0.5607040000000  0.5706310000000 1.0
C      1  0.4489210000000  0.4327460000000  0.4871480000000 1.0
C      1  0.5401560000000  0.4349160000000  0.4579980000000 1.0
C      1  0.5126660000000  0.4351800000000  0.5581290000000 1.0
C      1  0.5646250000000  0.4840610000000  0.4959110000000 1.0
C      1  0.4693190000000  0.4887150000000  0.5575920000000 1.0
C      1  0.4637420000000  0.4857060000000  0.4471630000000 1.0
C      1  0.5662720000000  0.5124760000000  0.4996830000000 1.0
C      1  0.4680110000000  0.5168910000000  0.5591540000000 1.0
C      1  0.4657900000000  0.5142990000000  0.4477300000000 1.0
C      1  0.5051570000000  0.5054630000000  0.5296080000000 1.0
C      1  0.5226190000000  0.5034890000000  0.4822400000000 1.0
C      1  0.4757910000000  0.4989620000000  0.4898250000000 1.0
C      1  0.5006760000000  0.5025110000000  0.5014600000000 1.0
END
