TITL C-122881-6425-8 0.029870915299209 125000 -1081.5882792448 0 0 159 (Cs) n - 1
REM
REM in /rds/project/t2_vol4/rds-t2-cs072/BORA/CARBON/from-Arr/AIRSS/Generating-Clusters/GAP-ML-2020/Higher-Symm/SD-CG/HFTN-CG
REM
REM
REM
REM
REM
REM ./C.cell (b20cbc046b6831c77cfcea5457e17084)
REM AIRSS Version 0.9.1 bugfix July 2018 build 013d7b7c2542+ Fri, 06 Jul 2018 19:26:36 +0100
REM compiler GCC version 9.3.0
REM options -cpp -mtune=generic -march=x86-64 -g -O0
REM seed 597420468 -1608942319 390977424 -806963749 37622709 -1648248434 1275241918 -532384568 970366313 203812795 -1455245922 1189207101 -2137700682 -1888669144 -2043768825 65305819 -598886573 -1672173879 2010424427 -264435711 -503001414 -1467232971 633294924 766822941 -1511208556 1519299846 1589727767 -685680532 -992026637 -1473008545 1502381725 209049510 -1826598268
REM
CELL 1.54180   50.00000   50.00000   50.00000   90.00000   90.00000   90.00000
LATT -1
SFAC C  
C      1  0.5150310000000  0.4842360000000  0.4744320000000 1.0
C      1  0.4703010000000  0.4843330000000  0.5001740000000 1.0
C      1  0.5159420000000  0.4841980000000  0.5261900000000 1.0
C      1  0.5142680000000  0.5148630000000  0.4731340000000 1.0
C      1  0.4691790000000  0.5150030000000  0.5002100000000 1.0
C      1  0.5143960000000  0.5148230000000  0.5254320000000 1.0
C      1  0.4852910000000  0.4843310000000  0.4742000000000 1.0
C      1  0.5306510000000  0.4841970000000  0.5007010000000 1.0
C      1  0.4853820000000  0.4842390000000  0.5258080000000 1.0
C      1  0.4847620000000  0.5150010000000  0.4732070000000 1.0
C      1  0.5292240000000  0.5148220000000  0.4997390000000 1.0
C      1  0.4838780000000  0.5148660000000  0.5257940000000 1.0
C      1  0.4700370000000  0.6045910000000  0.4994470000000 1.0
C      1  0.5131920000000  0.6056900000000  0.5240810000000 1.0
C      1  0.5131340000000  0.6050940000000  0.4742830000000 1.0
C      1  0.4726320000000  0.3926100000000  0.5008360000000 1.0
C      1  0.5158080000000  0.3937640000000  0.5256540000000 1.0
C      1  0.5155410000000  0.3931370000000  0.4759010000000 1.0
C      1  0.5274560000000  0.6056880000000  0.4993640000000 1.0
C      1  0.4843090000000  0.6050970000000  0.5242290000000 1.0
C      1  0.4845350000000  0.6045890000000  0.4743240000000 1.0
C      1  0.5301160000000  0.3937620000000  0.5008620000000 1.0
C      1  0.4869040000000  0.3931400000000  0.5255230000000 1.0
C      1  0.4870260000000  0.3926080000000  0.4758950000000 1.0
C      1  0.4289980000000  0.5564000000000  0.4423670000000 1.0
C      1  0.4877990000000  0.5577670000000  0.5886770000000 1.0
C      1  0.5839840000000  0.5572210000000  0.4709810000000 1.0
C      1  0.4325700000000  0.4405980000000  0.4439440000000 1.0
C      1  0.4832050000000  0.4424890000000  0.5879530000000 1.0
C      1  0.5835520000000  0.4419800000000  0.4658950000000 1.0
C      1  0.5706790000000  0.5577580000000  0.4450630000000 1.0
C      1  0.5168950000000  0.5572280000000  0.5872300000000 1.0
C      1  0.4145780000000  0.5564010000000  0.4673530000000 1.0
C      1  0.5677470000000  0.4424810000000  0.4414590000000 1.0
C      1  0.5122700000000  0.4419880000000  0.5894110000000 1.0
C      1  0.4177250000000  0.4406000000000  0.4696680000000 1.0
C      1  0.4308760000000  0.5782870000000  0.4772040000000 1.0
C      1  0.5157150000000  0.5800760000000  0.5690230000000 1.0
C      1  0.5535130000000  0.5797580000000  0.4531630000000 1.0
C      1  0.4333650000000  0.4175010000000  0.4784870000000 1.0
C      1  0.5138600000000  0.4196960000000  0.5708450000000 1.0
C      1  0.5528410000000  0.4193890000000  0.4514140000000 1.0
C      1  0.5676300000000  0.5800700000000  0.4790660000000 1.0
C      1  0.4862250000000  0.5797650000000  0.5697600000000 1.0
C      1  0.4456830000000  0.5782860000000  0.4515480000000 1.0
C      1  0.5682700000000  0.4196910000000  0.4765630000000 1.0
C      1  0.4843650000000  0.4193960000000  0.5700670000000 1.0
C      1  0.4480300000000  0.4174990000000  0.4530760000000 1.0
C      1  0.5538010000000  0.4676430000000  0.5818720000000 1.0
C      1  0.5339620000000  0.4697450000000  0.4117070000000 1.0
C      1  0.4071580000000  0.4685110000000  0.5156610000000 1.0
C      1  0.5596640000000  0.5294250000000  0.5730110000000 1.0
C      1  0.5435930000000  0.5318010000000  0.4126840000000 1.0
C      1  0.4015750000000  0.5303110000000  0.5058990000000 1.0
C      1  0.4405430000000  0.4697540000000  0.5735830000000 1.0
C      1  0.4671080000000  0.4685050000000  0.4117810000000 1.0
C      1  0.5978040000000  0.4676390000000  0.5056240000000 1.0
C      1  0.4462110000000  0.5318110000000  0.5814270000000 1.0
C      1  0.4558660000000  0.5303050000000  0.4118260000000 1.0
C      1  0.5930690000000  0.5294220000000  0.5151280000000 1.0
C      1  0.4503610000000  0.4639230000000  0.5007910000000 1.0
C      1  0.5258380000000  0.4643490000000  0.5447050000000 1.0
C      1  0.5251470000000  0.4644430000000  0.4565690000000 1.0
C      1  0.4478300000000  0.5343760000000  0.4994800000000 1.0
C      1  0.5250920000000  0.5345970000000  0.5429770000000 1.0
C      1  0.5253420000000  0.5347600000000  0.4554090000000 1.0
C      1  0.5516330000000  0.4643460000000  0.5000090000000 1.0
C      1  0.4749750000000  0.4644480000000  0.5435060000000 1.0
C      1  0.4758470000000  0.4639200000000  0.4566280000000 1.0
C      1  0.5497670000000  0.5345940000000  0.5002210000000 1.0
C      1  0.4740720000000  0.5347650000000  0.5442490000000 1.0
C      1  0.4734500000000  0.5343730000000  0.4550870000000 1.0
C      1  0.4690150000000  0.4390470000000  0.5007170000000 1.0
C      1  0.5171850000000  0.4398050000000  0.5283430000000 1.0
C      1  0.5162720000000  0.4394760000000  0.4727420000000 1.0
C      1  0.4667520000000  0.5586080000000  0.4999040000000 1.0
C      1  0.5154380000000  0.5593140000000  0.5269210000000 1.0
C      1  0.5152640000000  0.5590250000000  0.4713550000000 1.0
C      1  0.5331350000000  0.4398040000000  0.5007040000000 1.0
C      1  0.4845360000000  0.4394790000000  0.5277320000000 1.0
C      1  0.4851150000000  0.4390450000000  0.4728190000000 1.0
C      1  0.5310360000000  0.5593130000000  0.4998920000000 1.0
C      1  0.4828380000000  0.5590280000000  0.5275430000000 1.0
C      1  0.4832860000000  0.5586060000000  0.4712560000000 1.0
C      1  0.4247510000000  0.5416920000000  0.5179100000000 1.0
C      1  0.5539950000000  0.5382860000000  0.5472850000000 1.0
C      1  0.5209320000000  0.5420840000000  0.4263720000000 1.0
C      1  0.4322830000000  0.4601340000000  0.5236380000000 1.0
C      1  0.5531480000000  0.4569910000000  0.5555750000000 1.0
C      1  0.5145490000000  0.4606280000000  0.4294080000000 1.0
C      1  0.5679580000000  0.5382840000000  0.5230900000000 1.0
C      1  0.4467250000000  0.5420920000000  0.5549570000000 1.0
C      1  0.4778610000000  0.5416860000000  0.4258820000000 1.0
C      1  0.5747080000000  0.4569890000000  0.5182170000000 1.0
C      1  0.4461560000000  0.4606350000000  0.5479200000000 1.0
C      1  0.4865850000000  0.4601280000000  0.4295450000000 1.0
C      1  0.5496980000000  0.4833210000000  0.4535290000000 1.0
C      1  0.4352960000000  0.4818530000000  0.4799670000000 1.0
C      1  0.5141290000000  0.4825240000000  0.5666500000000 1.0
C      1  0.5505080000000  0.5170390000000  0.4545470000000 1.0
C      1  0.4345000000000  0.5155940000000  0.4790460000000 1.0
C      1  0.5154210000000  0.5162170000000  0.5660920000000 1.0
C      1  0.4502810000000  0.4818510000000  0.4540010000000 1.0
C      1  0.5647760000000  0.4825190000000  0.4788880000000 1.0
C      1  0.4846270000000  0.4833280000000  0.5662820000000 1.0
C      1  0.4490870000000  0.5155930000000  0.4537690000000 1.0
C      1  0.5649410000000  0.5162120000000  0.4802830000000 1.0
C      1  0.4859160000000  0.5170460000000  0.5664710000000 1.0
C      1  0.5904050000000  0.5152070000000  0.4326570000000 1.0
C      1  0.3947670000000  0.5115410000000  0.4561160000000 1.0
C      1  0.5163960000000  0.5139280000000  0.6101880000000 1.0
C      1  0.5874430000000  0.4860750000000  0.4306460000000 1.0
C      1  0.3984210000000  0.4826470000000  0.4589900000000 1.0
C      1  0.5131600000000  0.4848300000000  0.6121590000000 1.0
C      1  0.4093540000000  0.5115400000000  0.4308390000000 1.0
C      1  0.6036090000000  0.5139190000000  0.4590660000000 1.0
C      1  0.4869240000000  0.5152180000000  0.6119680000000 1.0
C      1  0.4136690000000  0.4826450000000  0.4325680000000 1.0
C      1  0.6036960000000  0.4848210000000  0.4552810000000 1.0
C      1  0.4836990000000  0.4860860000000  0.6104120000000 1.0
C      1  0.4767300000000  0.4138500000000  0.5432020000000 1.0
C      1  0.5505770000000  0.4144220000000  0.4988640000000 1.0
C      1  0.4757360000000  0.4129480000000  0.4586080000000 1.0
C      1  0.4757440000000  0.5846770000000  0.5431990000000 1.0
C      1  0.5480810000000  0.5852110000000  0.4990970000000 1.0
C      1  0.4733240000000  0.5839100000000  0.4570660000000 1.0
C      1  0.5243170000000  0.4144250000000  0.5443680000000 1.0
C      1  0.4520170000000  0.4129510000000  0.4997090000000 1.0
C      1  0.5257600000000  0.4138450000000  0.4582450000000 1.0
C      1  0.5232780000000  0.5852140000000  0.5420740000000 1.0
C      1  0.4494840000000  0.5839120000000  0.4983760000000 1.0
C      1  0.5252720000000  0.5846720000000  0.4573770000000 1.0
C      1  0.5924420000000  0.5302760000000  0.4823560000000 1.0
C      1  0.4326350000000  0.5296480000000  0.4300390000000 1.0
C      1  0.4740410000000  0.5319090000000  0.5919860000000 1.0
C      1  0.5930190000000  0.4678580000000  0.4762880000000 1.0
C      1  0.4388130000000  0.4668760000000  0.4295680000000 1.0
C      1  0.4691500000000  0.4694270000000  0.5892680000000 1.0
C      1  0.4057220000000  0.5296500000000  0.4766730000000 1.0
C      1  0.5666590000000  0.5319000000000  0.4314980000000 1.0
C      1  0.5309750000000  0.5302820000000  0.5888650000000 1.0
C      1  0.4084030000000  0.4668790000000  0.4822630000000 1.0
C      1  0.5618550000000  0.4694170000000  0.4286290000000 1.0
C      1  0.5260060000000  0.4678650000000  0.5924060000000 1.0
C      1  0.5246110000000  0.5161730000000  0.3987950000000 1.0
C      1  0.3997650000000  0.5152190000000  0.5296770000000 1.0
C      1  0.5796590000000  0.5105220000000  0.5644520000000 1.0
C      1  0.5163720000000  0.4884140000000  0.3987730000000 1.0
C      1  0.4045320000000  0.4877490000000  0.5371570000000 1.0
C      1  0.5753610000000  0.4829440000000  0.5719560000000 1.0
C      1  0.4755460000000  0.5152110000000  0.3983630000000 1.0
C      1  0.5956610000000  0.5105210000000  0.5367240000000 1.0
C      1  0.4246860000000  0.5161840000000  0.5719420000000 1.0
C      1  0.4844070000000  0.4877410000000  0.3987500000000 1.0
C      1  0.6000060000000  0.4829420000000  0.5292510000000 1.0
C      1  0.4205440000000  0.4884240000000  0.5648220000000 1.0
C      1  0.4996390000000  0.5332930000000  0.4086000000000 1.0
C      1  0.4206830000000  0.5333010000000  0.5454140000000 1.0
C      1  0.5791670000000  0.4653840000000  0.5456900000000 1.0
END
