TITL C-121811-4992-9 283.605352481757 125000 -551.064207487138 0 0 82 (C1) n - 1
REM
REM in /rds/project/t2_vol4/rds-t2-cs072/BORA/CARBON/from-Arr/AIRSS/Generating-Clusters/GAP-ML-2020/Higher-Symm/SD-CG/HFTN-CG
REM
REM
REM
REM
REM
REM ./C.cell (b20cbc046b6831c77cfcea5457e17084)
REM AIRSS Version 0.9.1 bugfix July 2018 build 013d7b7c2542+ Fri, 06 Jul 2018 19:26:36 +0100
REM compiler GCC version 9.3.0
REM options -cpp -mtune=generic -march=x86-64 -g -O0
REM seed 1083061301 965181660 -1797425786 -1196063616 -1126318975 1793880188 -1297120905 -768152268 1176315773 -849378700 1629217956 1921760323 -873439797 -1798890564 -1705580180 -1763755183 1064782372 -2052376512 -1630051929 -506546712 1437162625 84938673 -737695354 -2050781883 -345486015 -483394946 -514617112 1988898728 -115613571 -208363294 699843018 -1291931558 -1805674831
REM
CELL 1.54180   50.00000   50.00000   50.00000   90.00000   90.00000   90.00000
LATT -1
SFAC C  
C      1  0.4867800000000  0.5788610000000  0.5163430000000 1.0
C      1  0.5803520000000  0.4816630000000  0.5156550000000 1.0
C      1  0.4409270000000  0.4446530000000  0.5123980000000 1.0
C      1  0.4763870000000  0.4230300000000  0.4842630000000 1.0
C      1  0.5777490000000  0.5231660000000  0.4878980000000 1.0
C      1  0.4382560000000  0.5504050000000  0.4854760000000 1.0
C      1  0.4602190000000  0.4468130000000  0.5342020000000 1.0
C      1  0.4810340000000  0.5658500000000  0.5418810000000 1.0
C      1  0.5712230000000  0.4862110000000  0.5435070000000 1.0
C      1  0.4522430000000  0.5493600000000  0.4597020000000 1.0
C      1  0.4751090000000  0.4321500000000  0.4549600000000 1.0
C      1  0.5669640000000  0.5072780000000  0.4659540000000 1.0
C      1  0.5570090000000  0.5744490000000  0.4947540000000 1.0
C      1  0.5246630000000  0.4326280000000  0.4939840000000 1.0
C      1  0.4067410000000  0.5110730000000  0.4880570000000 1.0
C      1  0.5474180000000  0.4467200000000  0.5097700000000 1.0
C      1  0.5368280000000  0.5857040000000  0.5112850000000 1.0
C      1  0.4061050000000  0.4876870000000  0.5040670000000 1.0
C      1  0.5187340000000  0.4352900000000  0.4528260000000 1.0
C      1  0.4330480000000  0.5094010000000  0.4519180000000 1.0
C      1  0.5423050000000  0.5467310000000  0.4568760000000 1.0
C      1  0.5252670000000  0.5630370000000  0.5488700000000 1.0
C      1  0.4390880000000  0.4888170000000  0.5409340000000 1.0
C      1  0.5580780000000  0.4443910000000  0.5559160000000 1.0
C      1  0.4996800000000  0.5260900000000  0.4382810000000 1.0
C      1  0.5213010000000  0.4844780000000  0.4408640000000 1.0
C      1  0.4748330000000  0.4848070000000  0.4360060000000 1.0
C      1  0.5020240000000  0.4743670000000  0.5596680000000 1.0
C      1  0.5263120000000  0.5131500000000  0.5641510000000 1.0
C      1  0.4778890000000  0.5135650000000  0.5618740000000 1.0
C      1  0.5317360000000  0.4691520000000  0.5251290000000 1.0
C      1  0.4593880000000  0.4979320000000  0.5222110000000 1.0
C      1  0.5231430000000  0.5400090000000  0.5283030000000 1.0
C      1  0.5235390000000  0.5348950000000  0.4765210000000 1.0
C      1  0.4544260000000  0.5003530000000  0.4731850000000 1.0
C      1  0.5141570000000  0.4572070000000  0.4775400000000 1.0
C      1  0.4074130000000  0.5094330000000  0.4589330000000 1.0
C      1  0.5591750000000  0.5650280000000  0.4686740000000 1.0
C      1  0.5309780000000  0.4175750000000  0.4681920000000 1.0
C      1  0.4145940000000  0.4829320000000  0.5298100000000 1.0
C      1  0.5597830000000  0.4321090000000  0.5338020000000 1.0
C      1  0.5381880000000  0.5846950000000  0.5407370000000 1.0
C      1  0.5678720000000  0.4657410000000  0.4958790000000 1.0
C      1  0.4181510000000  0.4621530000000  0.5109710000000 1.0
C      1  0.5090880000000  0.5875170000000  0.5046440000000 1.0
C      1  0.5736880000000  0.5514840000000  0.4888440000000 1.0
C      1  0.4195370000000  0.5351660000000  0.4968890000000 1.0
C      1  0.4962850000000  0.4251720000000  0.5051820000000 1.0
C      1  0.4863740000000  0.4673360000000  0.4846480000000 1.0
C      1  0.4786160000000  0.5160060000000  0.4801870000000 1.0
C      1  0.5246210000000  0.5053430000000  0.4885480000000 1.0
C      1  0.4978780000000  0.5280930000000  0.5199290000000 1.0
C      1  0.4845980000000  0.4819190000000  0.5108190000000 1.0
C      1  0.5349670000000  0.4972100000000  0.5147030000000 1.0
C      1  0.4517800000000  0.4473420000000  0.4619290000000 1.0
C      1  0.4764870000000  0.5578180000000  0.4719870000000 1.0
C      1  0.5599110000000  0.4801870000000  0.4724840000000 1.0
C      1  0.4615680000000  0.5492540000000  0.5293010000000 1.0
C      1  0.4871480000000  0.4391550000000  0.5283680000000 1.0
C      1  0.5699730000000  0.5142150000000  0.5381240000000 1.0
C      1  0.4967600000000  0.5379870000000  0.4651440000000 1.0
C      1  0.5305810000000  0.4799510000000  0.4686660000000 1.0
C      1  0.4641240000000  0.4749510000000  0.4630230000000 1.0
C      1  0.5029650000000  0.4642050000000  0.5323090000000 1.0
C      1  0.5402430000000  0.5185480000000  0.5370220000000 1.0
C      1  0.4696550000000  0.5220290000000  0.5347730000000 1.0
C      1  0.4770880000000  0.4846100000000  0.5651290000000 1.0
C      1  0.5013940000000  0.5280980000000  0.5682110000000 1.0
C      1  0.5266950000000  0.4858790000000  0.5669500000000 1.0
C      1  0.4749000000000  0.5136430000000  0.4322720000000 1.0
C      1  0.4979800000000  0.4700960000000  0.4321690000000 1.0
C      1  0.5248530000000  0.5112470000000  0.4353120000000 1.0
C      1  0.5006420000000  0.5553900000000  0.5598690000000 1.0
C      1  0.5478970000000  0.4719860000000  0.5518480000000 1.0
C      1  0.4568580000000  0.4702140000000  0.5515380000000 1.0
C      1  0.4960800000000  0.4424550000000  0.4387960000000 1.0
C      1  0.5484910000000  0.5214380000000  0.4476850000000 1.0
C      1  0.4517080000000  0.5273970000000  0.4413790000000 1.0
C      1  0.5827890000000  0.5103080000000  0.5121920000000 1.0
C      1  0.4642480000000  0.5614240000000  0.5006630000000 1.0
C      1  0.4500440000000  0.4345290000000  0.4881340000000 1.0
C      1  0.4980010000000  0.5059070000000  0.5004260000000 1.0
END
