TITL C-129409-2318-3 0.0839174361551539 125000 -1173.14502659942 0 0 164 (C1) n - 1
REM
REM in /rds/project/t2_vol4/rds-t2-cs072/BORA/CARBON/from-Arr/AIRSS/Generating-Clusters/GAP-ML-2020/Higher-Symm/SD-CG/HFTN-CG/C160-200
REM
REM
REM
REM
REM
REM ./C.cell (6b4489405718ea1b717e0baf1da4c2d9)
REM AIRSS Version 0.9.1 bugfix July 2018 build 013d7b7c2542+ Fri, 06 Jul 2018 19:26:36 +0100
REM compiler GCC version 9.3.0
REM options -cpp -mtune=generic -march=x86-64 -g -O0
REM seed -1552728468 -1358921089 1698869349 -1418473440 -461275532 -1018205763 -663842713 -1143363818 1029518752 448727621 -219758727 1906131871 1285581156 -107574374 1405459102 2052475149 -701400989 1079524099 448911767 307844958 894255601 -1643462198 1283340274 1721153361 -664589134 727220946 686433590 355556544 -1408744776 -868480289 -303358185 -1697794058 -1705643515
REM
CELL 1.54180   50.00000   50.00000   50.00000   90.00000   90.00000   90.00000
LATT -1
SFAC C  
C      1  0.4603280000000  0.5299310000000  0.5939520000000 1.0
C      1  0.5322620000000  0.5914680000000  0.4680190000000 1.0
C      1  0.5932550000000  0.4643570000000  0.5316990000000 1.0
C      1  0.5383910000000  0.5330610000000  0.4032470000000 1.0
C      1  0.5352480000000  0.4695470000000  0.5969370000000 1.0
C      1  0.4632420000000  0.4709090000000  0.4044250000000 1.0
C      1  0.4686270000000  0.5857840000000  0.5330350000000 1.0
C      1  0.4689750000000  0.4061040000000  0.4640170000000 1.0
C      1  0.5325480000000  0.3999920000000  0.5434900000000 1.0
C      1  0.4015220000000  0.4621870000000  0.4667280000000 1.0
C      1  0.3996300000000  0.5353430000000  0.5303240000000 1.0
C      1  0.6007180000000  0.5398760000000  0.4671110000000 1.0
C      1  0.4584690000000  0.4674570000000  0.5946330000000 1.0
C      1  0.5303130000000  0.4076370000000  0.4651760000000 1.0
C      1  0.5975270000000  0.5390620000000  0.5338140000000 1.0
C      1  0.5381570000000  0.4714960000000  0.4064000000000 1.0
C      1  0.5352700000000  0.5317830000000  0.5958700000000 1.0
C      1  0.4647200000000  0.5326740000000  0.4037300000000 1.0
C      1  0.4680270000000  0.4031630000000  0.5377900000000 1.0
C      1  0.4705310000000  0.5884250000000  0.4657980000000 1.0
C      1  0.5315820000000  0.5910120000000  0.5323920000000 1.0
C      1  0.4047180000000  0.5347300000000  0.4679010000000 1.0
C      1  0.4006870000000  0.4619290000000  0.5286040000000 1.0
C      1  0.5961700000000  0.4641570000000  0.4724940000000 1.0
C      1  0.5157340000000  0.5936090000000  0.4440860000000 1.0
C      1  0.6004930000000  0.4426070000000  0.5168670000000 1.0
C      1  0.4375670000000  0.5135150000000  0.5916930000000 1.0
C      1  0.4842240000000  0.5916940000000  0.5558570000000 1.0
C      1  0.4861600000000  0.4048130000000  0.4435720000000 1.0
C      1  0.5131600000000  0.4073370000000  0.5615940000000 1.0
C      1  0.4051850000000  0.4400660000000  0.4832520000000 1.0
C      1  0.4022880000000  0.5579420000000  0.5132470000000 1.0
C      1  0.5978700000000  0.5599820000000  0.4864060000000 1.0
C      1  0.5602520000000  0.5162970000000  0.4078690000000 1.0
C      1  0.5576940000000  0.4865390000000  0.5948160000000 1.0
C      1  0.4407510000000  0.4868290000000  0.4045670000000 1.0
C      1  0.5124200000000  0.4120440000000  0.4428390000000 1.0
C      1  0.5987610000000  0.5613980000000  0.5156570000000 1.0
C      1  0.4366610000000  0.4845610000000  0.5921420000000 1.0
C      1  0.4842660000000  0.4060440000000  0.5609820000000 1.0
C      1  0.4867850000000  0.5930880000000  0.4437770000000 1.0
C      1  0.5133960000000  0.5926160000000  0.5559200000000 1.0
C      1  0.4045850000000  0.5571970000000  0.4845140000000 1.0
C      1  0.4056210000000  0.4400980000000  0.5121590000000 1.0
C      1  0.5918360000000  0.4423230000000  0.4904610000000 1.0
C      1  0.5603640000000  0.4876040000000  0.4095610000000 1.0
C      1  0.5580870000000  0.5155090000000  0.5947650000000 1.0
C      1  0.4421850000000  0.5158730000000  0.4056730000000 1.0
C      1  0.4208950000000  0.5378250000000  0.4442110000000 1.0
C      1  0.5373370000000  0.4498310000000  0.4249900000000 1.0
C      1  0.4442300000000  0.4202080000000  0.5358820000000 1.0
C      1  0.5819210000000  0.5397870000000  0.5584980000000 1.0
C      1  0.5792400000000  0.4653400000000  0.4492670000000 1.0
C      1  0.4172110000000  0.4616620000000  0.5522390000000 1.0
C      1  0.4577350000000  0.4450230000000  0.5767090000000 1.0
C      1  0.4632200000000  0.5569140000000  0.4194910000000 1.0
C      1  0.5372800000000  0.5557800000000  0.5802010000000 1.0
C      1  0.5529980000000  0.4255870000000  0.4653950000000 1.0
C      1  0.5572280000000  0.5772840000000  0.5393180000000 1.0
C      1  0.4441940000000  0.5789040000000  0.4609030000000 1.0
C      1  0.4181720000000  0.4626530000000  0.4427260000000 1.0
C      1  0.5393660000000  0.5573200000000  0.4193920000000 1.0
C      1  0.4419230000000  0.5759440000000  0.5373640000000 1.0
C      1  0.5791420000000  0.4625620000000  0.5569160000000 1.0
C      1  0.5827090000000  0.5414330000000  0.4438750000000 1.0
C      1  0.4162390000000  0.5365670000000  0.5540730000000 1.0
C      1  0.4599220000000  0.5540130000000  0.5780500000000 1.0
C      1  0.4622030000000  0.4496910000000  0.4229110000000 1.0
C      1  0.5362620000000  0.4473610000000  0.5789430000000 1.0
C      1  0.5573570000000  0.5774740000000  0.4623030000000 1.0
C      1  0.5546010000000  0.4205990000000  0.5414070000000 1.0
C      1  0.4443700000000  0.4213010000000  0.4603070000000 1.0
C      1  0.5119720000000  0.4496300000000  0.5357510000000 1.0
C      1  0.4487470000000  0.5230690000000  0.5080360000000 1.0
C      1  0.5138210000000  0.5218310000000  0.4605250000000 1.0
C      1  0.4796420000000  0.4556890000000  0.4654320000000 1.0
C      1  0.4880430000000  0.5394410000000  0.5254440000000 1.0
C      1  0.5272680000000  0.5406570000000  0.4761880000000 1.0
C      1  0.5540980000000  0.5361520000000  0.4861150000000 1.0
C      1  0.5269370000000  0.4743530000000  0.5280690000000 1.0
C      1  0.4632080000000  0.4785250000000  0.4721430000000 1.0
C      1  0.4684890000000  0.5201760000000  0.5279130000000 1.0
C      1  0.4732550000000  0.4984210000000  0.4545160000000 1.0
C      1  0.5276460000000  0.4983270000000  0.5436270000000 1.0
C      1  0.5156770000000  0.5409160000000  0.5256350000000 1.0
C      1  0.4678220000000  0.4737940000000  0.5203740000000 1.0
C      1  0.5214780000000  0.4759470000000  0.4773180000000 1.0
C      1  0.4739550000000  0.5435060000000  0.4754600000000 1.0
C      1  0.4868800000000  0.4529440000000  0.5200480000000 1.0
C      1  0.5029630000000  0.4557620000000  0.4790000000000 1.0
C      1  0.5366460000000  0.4772400000000  0.5011940000000 1.0
C      1  0.5583160000000  0.5207380000000  0.5124540000000 1.0
C      1  0.4492170000000  0.5418630000000  0.4877180000000 1.0
C      1  0.4697640000000  0.4943440000000  0.5401960000000 1.0
C      1  0.4855300000000  0.5230550000000  0.4619380000000 1.0
C      1  0.5353360000000  0.5218490000000  0.5304290000000 1.0
C      1  0.5676950000000  0.4275390000000  0.4895140000000 1.0
C      1  0.4182510000000  0.4837880000000  0.5701560000000 1.0
C      1  0.4860020000000  0.5739860000000  0.4224170000000 1.0
C      1  0.4279570000000  0.4219530000000  0.5128570000000 1.0
C      1  0.4320940000000  0.5686300000000  0.4859650000000 1.0
C      1  0.5734250000000  0.5744370000000  0.5168020000000 1.0
C      1  0.5785260000000  0.4877760000000  0.4317580000000 1.0
C      1  0.5785570000000  0.5162620000000  0.5743450000000 1.0
C      1  0.4225850000000  0.5157410000000  0.4268440000000 1.0
C      1  0.5141810000000  0.5719480000000  0.5757700000000 1.0
C      1  0.5128760000000  0.4370760000000  0.4299380000000 1.0
C      1  0.4816190000000  0.4309690000000  0.5743930000000 1.0
C      1  0.5684280000000  0.5655430000000  0.4869190000000 1.0
C      1  0.4181610000000  0.5139110000000  0.5704790000000 1.0
C      1  0.4881310000000  0.4539580000000  0.4370260000000 1.0
C      1  0.4250030000000  0.5750950000000  0.5151900000000 1.0
C      1  0.4274350000000  0.4218980000000  0.4827730000000 1.0
C      1  0.5527790000000  0.4257670000000  0.5135350000000 1.0
C      1  0.5791590000000  0.5175210000000  0.4295150000000 1.0
C      1  0.5772950000000  0.4855820000000  0.5740060000000 1.0
C      1  0.4212980000000  0.4858600000000  0.4260810000000 1.0
C      1  0.5113540000000  0.4374910000000  0.5666890000000 1.0
C      1  0.5171330000000  0.5744330000000  0.4232770000000 1.0
C      1  0.4833930000000  0.5707390000000  0.5756790000000 1.0
C      1  0.4864910000000  0.4060980000000  0.4890500000000 1.0
C      1  0.4505540000000  0.4792250000000  0.4974280000000 1.0
C      1  0.4940520000000  0.4839050000000  0.4364550000000 1.0
C      1  0.5224450000000  0.4268920000000  0.5144280000000 1.0
C      1  0.5161430000000  0.5679360000000  0.4843640000000 1.0
C      1  0.4848110000000  0.5695170000000  0.5147790000000 1.0
C      1  0.5903690000000  0.4875770000000  0.5135190000000 1.0
C      1  0.5665010000000  0.5100600000000  0.4758750000000 1.0
C      1  0.3931500000000  0.5126430000000  0.5141430000000 1.0
C      1  0.5101640000000  0.5027670000000  0.5652440000000 1.0
C      1  0.5162890000000  0.5163800000000  0.3945820000000 1.0
C      1  0.4823850000000  0.5140390000000  0.5999890000000 1.0
C      1  0.4859790000000  0.5696540000000  0.4843110000000 1.0
C      1  0.4331400000000  0.5017330000000  0.5000940000000 1.0
C      1  0.4872100000000  0.5167140000000  0.3972200000000 1.0
C      1  0.5164930000000  0.5693750000000  0.5148640000000 1.0
C      1  0.4974650000000  0.4362290000000  0.4977560000000 1.0
C      1  0.4855770000000  0.3958080000000  0.5172050000000 1.0
C      1  0.5893940000000  0.5177770000000  0.5160450000000 1.0
C      1  0.5607780000000  0.4920130000000  0.4989190000000 1.0
C      1  0.3894950000000  0.4833560000000  0.5130030000000 1.0
C      1  0.5118510000000  0.5140550000000  0.5944980000000 1.0
C      1  0.5192410000000  0.4939850000000  0.4541130000000 1.0
C      1  0.4851950000000  0.4915650000000  0.5639010000000 1.0
C      1  0.4821600000000  0.4839880000000  0.5947270000000 1.0
C      1  0.5168570000000  0.4870840000000  0.3961670000000 1.0
C      1  0.5343040000000  0.6144080000000  0.5126660000000 1.0
C      1  0.5956620000000  0.5153910000000  0.4821110000000 1.0
C      1  0.5117580000000  0.4843690000000  0.6014490000000 1.0
C      1  0.5357540000000  0.6142900000000  0.4876860000000 1.0
C      1  0.5160380000000  0.3978130000000  0.5183980000000 1.0
C      1  0.5158410000000  0.3967440000000  0.4869870000000 1.0
C      1  0.4049630000000  0.5105430000000  0.4852830000000 1.0
C      1  0.3928180000000  0.4832230000000  0.4836210000000 1.0
C      1  0.6040740000000  0.4873690000000  0.4869820000000 1.0
C      1  0.4884210000000  0.4875760000000  0.4055750000000 1.0
C      1  0.4408710000000  0.5595530000000  0.4393820000000 1.0
C      1  0.4379460000000  0.4409570000000  0.5559010000000 1.0
C      1  0.5583940000000  0.4454440000000  0.4446080000000 1.0
C      1  0.5588950000000  0.4416370000000  0.5612480000000 1.0
C      1  0.5611920000000  0.5608590000000  0.4397600000000 1.0
C      1  0.4375730000000  0.5571920000000  0.5586180000000 1.0
C      1  0.5603680000000  0.5596940000000  0.5615890000000 1.0
C      1  0.4396610000000  0.4422970000000  0.4395730000000 1.0
END
