TITL C-123170-8092-68 21.7417471250162 125000 -573.19408196214 0 0 83 (C1) n - 1
REM
REM in /rds/project/t2_vol4/rds-t2-cs072/BORA/CARBON/from-Arr/AIRSS/Generating-Clusters/GAP-ML-2020/Higher-Symm/SD-CG/HFTN-CG
REM
REM
REM
REM
REM
REM ./C.cell (b20cbc046b6831c77cfcea5457e17084)
REM AIRSS Version 0.9.1 bugfix July 2018 build 013d7b7c2542+ Fri, 06 Jul 2018 19:26:36 +0100
REM compiler GCC version 9.3.0
REM options -cpp -mtune=generic -march=x86-64 -g -O0
REM seed 1292118516 909534319 23018371 1731346396 1936106406 624619216 805914003 -1839542619 -261843479 701149347 1721995934 -1835756154 -909936335 -811561719 -1094014048 709671040 601123325 -352091295 -1466964731 -153730707 1072660717 86187670 -1986176240 1767546659 -382142281 -1651796433 -846285872 1188080617 2027627475 1754051117 -153122307 -243643557 1828824163
REM
CELL 1.54180   50.00000   50.00000   50.00000   90.00000   90.00000   90.00000
LATT -1
SFAC C  
C      1  0.5633680000000  0.5154630000000  0.5385520000000 1.0
C      1  0.5634490000000  0.4854800000000  0.4620250000000 1.0
C      1  0.5640990000000  0.5148880000000  0.4614440000000 1.0
C      1  0.5640490000000  0.4860070000000  0.5391440000000 1.0
C      1  0.4655430000000  0.4206380000000  0.5150340000000 1.0
C      1  0.4656180000000  0.5797630000000  0.4852790000000 1.0
C      1  0.4633350000000  0.4198920000000  0.4843440000000 1.0
C      1  0.4632390000000  0.5808300000000  0.5156230000000 1.0
C      1  0.4412730000000  0.5368670000000  0.4701710000000 1.0
C      1  0.4425180000000  0.4645520000000  0.5294580000000 1.0
C      1  0.4396410000000  0.5368530000000  0.5304310000000 1.0
C      1  0.4394630000000  0.4641410000000  0.4690240000000 1.0
C      1  0.5177840000000  0.4871360000000  0.4885120000000 1.0
C      1  0.5152440000000  0.5153550000000  0.5157500000000 1.0
C      1  0.5192060000000  0.4871190000000  0.5174210000000 1.0
C      1  0.5210880000000  0.5164540000000  0.4864710000000 1.0
C      1  0.4991310000000  0.4711100000000  0.5272690000000 1.0
C      1  0.4962820000000  0.5278540000000  0.4753930000000 1.0
C      1  0.4897350000000  0.4831310000000  0.4832830000000 1.0
C      1  0.4865900000000  0.5191100000000  0.5177770000000 1.0
C      1  0.4550380000000  0.5302820000000  0.5555520000000 1.0
C      1  0.4540500000000  0.4702340000000  0.4434820000000 1.0
C      1  0.4558390000000  0.5314200000000  0.4452600000000 1.0
C      1  0.4571340000000  0.4695740000000  0.5542380000000 1.0
C      1  0.4291540000000  0.5154490000000  0.4851040000000 1.0
C      1  0.4313790000000  0.4860110000000  0.5142380000000 1.0
C      1  0.4301780000000  0.5153490000000  0.5144700000000 1.0
C      1  0.4304370000000  0.4860380000000  0.4848280000000 1.0
C      1  0.5637430000000  0.5575760000000  0.5137880000000 1.0
C      1  0.5636700000000  0.4435410000000  0.4865310000000 1.0
C      1  0.5651780000000  0.5572990000000  0.4845280000000 1.0
C      1  0.5649830000000  0.4436930000000  0.5157700000000 1.0
C      1  0.4995380000000  0.5145910000000  0.4267760000000 1.0
C      1  0.5000360000000  0.4861970000000  0.5742170000000 1.0
C      1  0.4991380000000  0.5155520000000  0.5746230000000 1.0
C      1  0.4988150000000  0.4853890000000  0.4262180000000 1.0
C      1  0.4988130000000  0.4434940000000  0.4492650000000 1.0
C      1  0.4992240000000  0.5573250000000  0.5508430000000 1.0
C      1  0.5017710000000  0.4397170000000  0.5536950000000 1.0
C      1  0.5013740000000  0.5603270000000  0.4471120000000 1.0
C      1  0.5381460000000  0.5660370000000  0.5215790000000 1.0
C      1  0.5380880000000  0.4350660000000  0.4787070000000 1.0
C      1  0.5415570000000  0.5674630000000  0.4742340000000 1.0
C      1  0.5418010000000  0.4329370000000  0.5262610000000 1.0
C      1  0.5290200000000  0.4867700000000  0.5722520000000 1.0
C      1  0.5284700000000  0.5141610000000  0.4287980000000 1.0
C      1  0.5278880000000  0.4854100000000  0.4289400000000 1.0
C      1  0.5284090000000  0.5154810000000  0.5720230000000 1.0
C      1  0.4825730000000  0.4647490000000  0.4366510000000 1.0
C      1  0.4832850000000  0.5358660000000  0.5632750000000 1.0
C      1  0.4868640000000  0.4670630000000  0.5562710000000 1.0
C      1  0.4859810000000  0.5337430000000  0.4442400000000 1.0
C      1  0.4857770000000  0.5482490000000  0.5145010000000 1.0
C      1  0.4834810000000  0.4563230000000  0.4897610000000 1.0
C      1  0.4989340000000  0.5551410000000  0.4902150000000 1.0
C      1  0.4994720000000  0.4459530000000  0.5110630000000 1.0
C      1  0.4421570000000  0.5151960000000  0.4259250000000 1.0
C      1  0.4430890000000  0.4847940000000  0.5746990000000 1.0
C      1  0.4436000000000  0.5097850000000  0.5713200000000 1.0
C      1  0.4412190000000  0.4899680000000  0.4264600000000 1.0
C      1  0.4404990000000  0.5613250000000  0.5144730000000 1.0
C      1  0.4407100000000  0.4396250000000  0.4856530000000 1.0
C      1  0.4429250000000  0.5606630000000  0.4853590000000 1.0
C      1  0.4432390000000  0.4401090000000  0.5143650000000 1.0
C      1  0.5274580000000  0.4462080000000  0.4546860000000 1.0
C      1  0.5279680000000  0.5548870000000  0.5457800000000 1.0
C      1  0.5305480000000  0.4448930000000  0.5495640000000 1.0
C      1  0.5298970000000  0.5553110000000  0.4512310000000 1.0
C      1  0.5735330000000  0.5303280000000  0.4838780000000 1.0
C      1  0.5735800000000  0.4706370000000  0.5166250000000 1.0
C      1  0.5723950000000  0.5305080000000  0.5158390000000 1.0
C      1  0.5727210000000  0.4704610000000  0.4847310000000 1.0
C      1  0.4838070000000  0.5713530000000  0.5318120000000 1.0
C      1  0.4836790000000  0.4327500000000  0.4703740000000 1.0
C      1  0.4880210000000  0.5737450000000  0.4704250000000 1.0
C      1  0.4882080000000  0.4263940000000  0.5300250000000 1.0
C      1  0.5443540000000  0.5302670000000  0.4444390000000 1.0
C      1  0.5445810000000  0.4704090000000  0.5564940000000 1.0
C      1  0.5435420000000  0.5310060000000  0.5547520000000 1.0
C      1  0.5432250000000  0.4699920000000  0.4461120000000 1.0
C      1  0.5235820000000  0.5706630000000  0.4966430000000 1.0
C      1  0.5236340000000  0.4298990000000  0.5035410000000 1.0
C      1  0.4790560000000  0.5087410000000  0.4915760000000 1.0
END
