TITL C-121831-5080-11 -124.978791956581 125000 -691.599227023883 0 0 98 (C1) n - 1
REM
REM in /rds/project/t2_vol4/rds-t2-cs072/BORA/CARBON/from-Arr/AIRSS/Generating-Clusters/GAP-ML-2020/Higher-Symm/SD-CG/HFTN-CG
REM
REM
REM
REM
REM
REM ./C.cell (b20cbc046b6831c77cfcea5457e17084)
REM AIRSS Version 0.9.1 bugfix July 2018 build 013d7b7c2542+ Fri, 06 Jul 2018 19:26:36 +0100
REM compiler GCC version 9.3.0
REM options -cpp -mtune=generic -march=x86-64 -g -O0
REM seed -114325860 -2008070853 -1202403744 -1257286729 -364717441 -2071821180 -859795455 -468534048 -1798889776 1059684719 -77155640 263105004 2124579829 -764955257 1857500126 1691231956 -1381106624 -1586543009 -1288953841 -1436690904 -1735612788 -1382107823 -2075153739 -1414439854 -42600066 404198178 520853244 -1417383857 123984142 1742279939 438156622 -130740253 1715019904
REM
CELL 1.54180   50.00000   50.00000   50.00000   90.00000   90.00000   90.00000
LATT -1
SFAC C  
C      1  0.4833670000000  0.5698080000000  0.4311870000000 1.0
C      1  0.5669150000000  0.5403810000000  0.4388640000000 1.0
C      1  0.5622790000000  0.4550820000000  0.4414550000000 1.0
C      1  0.4688610000000  0.4308870000000  0.4356300000000 1.0
C      1  0.4318030000000  0.5041440000000  0.4295910000000 1.0
C      1  0.4359230000000  0.4526000000000  0.5272770000000 1.0
C      1  0.4344770000000  0.5433390000000  0.5236110000000 1.0
C      1  0.5196440000000  0.5735020000000  0.5283700000000 1.0
C      1  0.5754440000000  0.5021530000000  0.5361380000000 1.0
C      1  0.5227000000000  0.4269950000000  0.5339830000000 1.0
C      1  0.4237100000000  0.5164870000000  0.5235390000000 1.0
C      1  0.4908780000000  0.5754080000000  0.5262250000000 1.0
C      1  0.5682340000000  0.5302720000000  0.5342290000000 1.0
C      1  0.5473080000000  0.4424950000000  0.5355570000000 1.0
C      1  0.4578500000000  0.4334000000000  0.5297830000000 1.0
C      1  0.5245440000000  0.4448910000000  0.4718080000000 1.0
C      1  0.4525400000000  0.4583950000000  0.4698810000000 1.0
C      1  0.4495870000000  0.5327670000000  0.4643280000000 1.0
C      1  0.5173430000000  0.5625560000000  0.4675170000000 1.0
C      1  0.5647740000000  0.5053740000000  0.4735550000000 1.0
C      1  0.4887740000000  0.5677150000000  0.4771940000000 1.0
C      1  0.5610660000000  0.5336830000000  0.4840370000000 1.0
C      1  0.5489320000000  0.4560630000000  0.4868490000000 1.0
C      1  0.4700980000000  0.4375270000000  0.4806240000000 1.0
C      1  0.4375720000000  0.5072370000000  0.4754160000000 1.0
C      1  0.5649130000000  0.5730910000000  0.5050300000000 1.0
C      1  0.5881700000000  0.4610580000000  0.5095840000000 1.0
C      1  0.4892040000000  0.4029350000000  0.5032360000000 1.0
C      1  0.4052290000000  0.4799600000000  0.4948590000000 1.0
C      1  0.4503280000000  0.5833260000000  0.4955540000000 1.0
C      1  0.4865000000000  0.5228960000000  0.4957420000000 1.0
C      1  0.5147540000000  0.5224150000000  0.4950170000000 1.0
C      1  0.5281750000000  0.4994950000000  0.5041220000000 1.0
C      1  0.4955050000000  0.4591300000000  0.5093190000000 1.0
C      1  0.4731020000000  0.4984940000000  0.5026360000000 1.0
C      1  0.4789230000000  0.5584000000000  0.5464390000000 1.0
C      1  0.5469960000000  0.5351350000000  0.5533050000000 1.0
C      1  0.5450140000000  0.4626820000000  0.5558620000000 1.0
C      1  0.4749030000000  0.4405420000000  0.5522580000000 1.0
C      1  0.4343090000000  0.5012860000000  0.5462400000000 1.0
C      1  0.5063490000000  0.4791070000000  0.5806310000000 1.0
C      1  0.4779710000000  0.4820830000000  0.5779760000000 1.0
C      1  0.4726160000000  0.5099670000000  0.5754260000000 1.0
C      1  0.4972340000000  0.5242450000000  0.5770280000000 1.0
C      1  0.5183500000000  0.5052440000000  0.5802300000000 1.0
C      1  0.4816990000000  0.5094810000000  0.4306680000000 1.0
C      1  0.5061010000000  0.5246100000000  0.4302900000000 1.0
C      1  0.5289050000000  0.5061300000000  0.4325190000000 1.0
C      1  0.5185590000000  0.4793470000000  0.4340480000000 1.0
C      1  0.4884790000000  0.4813860000000  0.4389750000000 1.0
C      1  0.5304850000000  0.5402060000000  0.4817990000000 1.0
C      1  0.5470150000000  0.4868810000000  0.4885570000000 1.0
C      1  0.4974560000000  0.4566640000000  0.4808920000000 1.0
C      1  0.4607420000000  0.4863500000000  0.4796040000000 1.0
C      1  0.4744020000000  0.5406960000000  0.4788170000000 1.0
C      1  0.5378410000000  0.5832920000000  0.5087000000000 1.0
C      1  0.5900860000000  0.4896480000000  0.5153390000000 1.0
C      1  0.5157470000000  0.4122960000000  0.5103620000000 1.0
C      1  0.4187500000000  0.4557920000000  0.5043030000000 1.0
C      1  0.4324950000000  0.5611820000000  0.5015120000000 1.0
C      1  0.5629160000000  0.4479170000000  0.5124200000000 1.0
C      1  0.4681020000000  0.4211740000000  0.5064700000000 1.0
C      1  0.4177390000000  0.5048750000000  0.4986290000000 1.0
C      1  0.4782560000000  0.5816180000000  0.5015860000000 1.0
C      1  0.5704130000000  0.5453600000000  0.5101040000000 1.0
C      1  0.4470940000000  0.5812390000000  0.4665080000000 1.0
C      1  0.5643600000000  0.5772420000000  0.4757460000000 1.0
C      1  0.5931570000000  0.4650230000000  0.4810910000000 1.0
C      1  0.4951600000000  0.4028480000000  0.4733770000000 1.0
C      1  0.4072740000000  0.4741600000000  0.4654140000000 1.0
C      1  0.5190910000000  0.4577840000000  0.5680980000000 1.0
C      1  0.4623460000000  0.4636920000000  0.5639750000000 1.0
C      1  0.4519450000000  0.5194700000000  0.5594350000000 1.0
C      1  0.5004500000000  0.5470690000000  0.5614420000000 1.0
C      1  0.5428330000000  0.5103620000000  0.5677890000000 1.0
C      1  0.5721850000000  0.4533310000000  0.4667700000000 1.0
C      1  0.4741950000000  0.4164980000000  0.4591440000000 1.0
C      1  0.4207480000000  0.4953960000000  0.4529230000000 1.0
C      1  0.4726220000000  0.5798420000000  0.4544600000000 1.0
C      1  0.5711460000000  0.5529560000000  0.4630140000000 1.0
C      1  0.4542450000000  0.5442890000000  0.5449220000000 1.0
C      1  0.5255060000000  0.5536560000000  0.5492940000000 1.0
C      1  0.5576570000000  0.4889490000000  0.5557120000000 1.0
C      1  0.5037420000000  0.4378110000000  0.5538010000000 1.0
C      1  0.4399450000000  0.4730330000000  0.5478630000000 1.0
C      1  0.5366890000000  0.5841890000000  0.4779870000000 1.0
C      1  0.5912590000000  0.4933780000000  0.4848710000000 1.0
C      1  0.5200200000000  0.4158470000000  0.4805770000000 1.0
C      1  0.4241100000000  0.4531770000000  0.4747870000000 1.0
C      1  0.4327840000000  0.5570440000000  0.4711050000000 1.0
C      1  0.4671570000000  0.4579230000000  0.4416150000000 1.0
C      1  0.4548040000000  0.5192960000000  0.4354370000000 1.0
C      1  0.5052360000000  0.5530730000000  0.4373880000000 1.0
C      1  0.5550770000000  0.5151260000000  0.4425720000000 1.0
C      1  0.5343670000000  0.4577340000000  0.4433820000000 1.0
C      1  0.4882270000000  0.4817290000000  0.4684100000000 1.0
C      1  0.5145920000000  0.4916350000000  0.5266220000000 1.0
C      1  0.4895740000000  0.4834290000000  0.5203500000000 1.0
END
