TITL C-123171-8094-2 272.291783854551 125000 -548.967200301087 0 0 81 (C1) n - 1
REM
REM in /rds/project/t2_vol4/rds-t2-cs072/BORA/CARBON/from-Arr/AIRSS/Generating-Clusters/GAP-ML-2020/Higher-Symm/SD-CG/HFTN-CG
REM
REM
REM
REM
REM
REM ./C.cell (b20cbc046b6831c77cfcea5457e17084)
REM AIRSS Version 0.9.1 bugfix July 2018 build 013d7b7c2542+ Fri, 06 Jul 2018 19:26:36 +0100
REM compiler GCC version 9.3.0
REM options -cpp -mtune=generic -march=x86-64 -g -O0
REM seed 1440493037 -1864217707 1270447485 687436033 1006882869 -1702404626 -2028265173 2068320823 1272221939 -1572576898 -924333566 -721849864 1660174335 689797027 -251576972 -1295937633 1416704590 609088865 136534364 1541327617 1731822633 1708594209 -838476772 -2083614371 -1812459363 1162324949 -752780413 -1419197312 -1313362088 1673575898 -647912055 1145677502 1642417397
REM
CELL 1.54180   50.00000   50.00000   50.00000   90.00000   90.00000   90.00000
LATT -1
SFAC C  
C      1  0.5684340000000  0.4769330000000  0.5133180000000 1.0
C      1  0.5443200000000  0.5630030000000  0.5166600000000 1.0
C      1  0.4499660000000  0.5557720000000  0.5189770000000 1.0
C      1  0.4156090000000  0.4812910000000  0.5094460000000 1.0
C      1  0.4892350000000  0.4212940000000  0.5189520000000 1.0
C      1  0.5802900000000  0.5285190000000  0.4876740000000 1.0
C      1  0.4949220000000  0.5703630000000  0.4899510000000 1.0
C      1  0.4141840000000  0.5066640000000  0.4930090000000 1.0
C      1  0.4667410000000  0.4232070000000  0.4999640000000 1.0
C      1  0.5508090000000  0.4357300000000  0.4836790000000 1.0
C      1  0.4363580000000  0.4598560000000  0.4469560000000 1.0
C      1  0.5140490000000  0.4337130000000  0.4444490000000 1.0
C      1  0.5752730000000  0.4927230000000  0.4472290000000 1.0
C      1  0.5309150000000  0.5653560000000  0.4477140000000 1.0
C      1  0.4421000000000  0.5307570000000  0.4527310000000 1.0
C      1  0.5653540000000  0.4779190000000  0.4675400000000 1.0
C      1  0.5476270000000  0.5554640000000  0.4666250000000 1.0
C      1  0.4569180000000  0.5528360000000  0.4656500000000 1.0
C      1  0.4410330000000  0.4880230000000  0.4549890000000 1.0
C      1  0.4972130000000  0.4342780000000  0.4650450000000 1.0
C      1  0.4145380000000  0.5216440000000  0.5198570000000 1.0
C      1  0.4553440000000  0.4461840000000  0.5165040000000 1.0
C      1  0.5381370000000  0.4408010000000  0.5085030000000 1.0
C      1  0.5729610000000  0.5245300000000  0.5154590000000 1.0
C      1  0.4945120000000  0.5750020000000  0.5188720000000 1.0
C      1  0.5238580000000  0.4679340000000  0.4969640000000 1.0
C      1  0.5454530000000  0.5157150000000  0.5021030000000 1.0
C      1  0.5079710000000  0.5453910000000  0.4933090000000 1.0
C      1  0.4597770000000  0.5141450000000  0.4933910000000 1.0
C      1  0.4721770000000  0.4666360000000  0.4996650000000 1.0
C      1  0.5178210000000  0.4245920000000  0.5232830000000 1.0
C      1  0.5795420000000  0.4985790000000  0.5280640000000 1.0
C      1  0.5206970000000  0.5743430000000  0.5308340000000 1.0
C      1  0.4327960000000  0.5385300000000  0.5338790000000 1.0
C      1  0.4326570000000  0.4629980000000  0.5246860000000 1.0
C      1  0.5055020000000  0.5544540000000  0.4442860000000 1.0
C      1  0.4561020000000  0.5112060000000  0.4380870000000 1.0
C      1  0.4499990000000  0.4405610000000  0.4574600000000 1.0
C      1  0.5324190000000  0.4550650000000  0.4425200000000 1.0
C      1  0.5590720000000  0.5151390000000  0.4438680000000 1.0
C      1  0.4484890000000  0.5289500000000  0.5562710000000 1.0
C      1  0.4332910000000  0.4832670000000  0.5475710000000 1.0
C      1  0.5164310000000  0.4350860000000  0.5490080000000 1.0
C      1  0.5668950000000  0.4925990000000  0.5508970000000 1.0
C      1  0.5237590000000  0.5620950000000  0.5547110000000 1.0
C      1  0.5071600000000  0.5269810000000  0.4336960000000 1.0
C      1  0.4834510000000  0.5102460000000  0.4309450000000 1.0
C      1  0.4943970000000  0.4850030000000  0.4387420000000 1.0
C      1  0.5225660000000  0.4816070000000  0.4353450000000 1.0
C      1  0.5313910000000  0.5096030000000  0.4354410000000 1.0
C      1  0.5010020000000  0.5259300000000  0.5121350000000 1.0
C      1  0.4773550000000  0.5112420000000  0.5138800000000 1.0
C      1  0.4846330000000  0.4841300000000  0.5185900000000 1.0
C      1  0.5125440000000  0.4826600000000  0.5185170000000 1.0
C      1  0.5228510000000  0.5100270000000  0.5225370000000 1.0
C      1  0.4692990000000  0.4262240000000  0.4710800000000 1.0
C      1  0.5539070000000  0.4520530000000  0.4617380000000 1.0
C      1  0.5672520000000  0.5347300000000  0.4632190000000 1.0
C      1  0.4842560000000  0.5625380000000  0.4639050000000 1.0
C      1  0.4240960000000  0.5105110000000  0.4663630000000 1.0
C      1  0.4512350000000  0.5007570000000  0.5627210000000 1.0
C      1  0.4942900000000  0.4474590000000  0.5592560000000 1.0
C      1  0.5475340000000  0.4723720000000  0.5536510000000 1.0
C      1  0.5397750000000  0.5391420000000  0.5552730000000 1.0
C      1  0.4745370000000  0.5420120000000  0.5557270000000 1.0
C      1  0.4985530000000  0.4747370000000  0.5706970000000 1.0
C      1  0.5243850000000  0.4857850000000  0.5652130000000 1.0
C      1  0.5216790000000  0.5147590000000  0.5556020000000 1.0
C      1  0.4933490000000  0.5213120000000  0.5642960000000 1.0
C      1  0.4794900000000  0.4971440000000  0.5707970000000 1.0
C      1  0.5548430000000  0.4574820000000  0.5288050000000 1.0
C      1  0.5590170000000  0.5453900000000  0.5336650000000 1.0
C      1  0.4733650000000  0.5622510000000  0.5341060000000 1.0
C      1  0.4125820000000  0.4975260000000  0.5343880000000 1.0
C      1  0.4759580000000  0.4376960000000  0.5384030000000 1.0
C      1  0.4622350000000  0.4883330000000  0.4775220000000 1.0
C      1  0.4987160000000  0.4603000000000  0.4816120000000 1.0
C      1  0.5501330000000  0.4866510000000  0.4919370000000 1.0
C      1  0.5366260000000  0.5469460000000  0.4930540000000 1.0
C      1  0.4513740000000  0.5456210000000  0.4924580000000 1.0
C      1  0.4875880000000  0.4813500000000  0.4650800000000 1.0
END
