TITL C-129412-2043-4 -119.263627720055 125000 -1120.05536545177 0 0 168 (C7) n - 1
REM
REM in /rds/project/t2_vol4/rds-t2-cs072/BORA/CARBON/from-Arr/AIRSS/Generating-Clusters/GAP-ML-2020/Higher-Symm/SD-CG/HFTN-CG/C160-200
REM
REM
REM
REM
REM
REM ./C.cell (6b4489405718ea1b717e0baf1da4c2d9)
REM AIRSS Version 0.9.1 bugfix July 2018 build 013d7b7c2542+ Fri, 06 Jul 2018 19:26:36 +0100
REM compiler GCC version 9.3.0
REM options -cpp -mtune=generic -march=x86-64 -g -O0
REM seed 1142587043 -1491303995 1425407198 1661800042 1070645928 1911459957 -1559063496 -2051990834 -844459102 -740478400 -380197393 -1312497608 -21623196 104566242 -2142779590 -2055019998 -2132757164 -645105481 444809039 1583886646 134528428 -710547925 -707698860 1453722100 2080322836 -1089627616 -963326163 -1297037631 1325038157 1830239895 982132842 -643144690 1999877489
REM
CELL 1.54180   50.00000   50.00000   50.00000   90.00000   90.00000   90.00000
LATT -1
SFAC C  
C      1  0.4630810000000  0.5763010000000  0.5439260000000 1.0
C      1  0.5113230000000  0.5763170000000  0.5562300000000 1.0
C      1  0.5510220000000  0.5763250000000  0.5261840000000 1.0
C      1  0.5522830000000  0.5763180000000  0.4764130000000 1.0
C      1  0.5141560000000  0.5763030000000  0.4443960000000 1.0
C      1  0.4653530000000  0.5762890000000  0.4542420000000 1.0
C      1  0.4426220000000  0.5762880000000  0.4985370000000 1.0
C      1  0.5133000000000  0.4256930000000  0.5355090000000 1.0
C      1  0.5360550000000  0.4256970000000  0.5117620000000 1.0
C      1  0.5316760000000  0.4256910000000  0.4791660000000 1.0
C      1  0.5034620000000  0.4256800000000  0.4622660000000 1.0
C      1  0.4726570000000  0.4256720000000  0.4737880000000 1.0
C      1  0.4624590000000  0.4256740000000  0.5050560000000 1.0
C      1  0.4805470000000  0.4256830000000  0.5325240000000 1.0
C      1  0.5193570000000  0.4809320000000  0.4721190000000 1.0
C      1  0.4902710000000  0.4809230000000  0.4674880000000 1.0
C      1  0.4685150000000  0.4809190000000  0.4873410000000 1.0
C      1  0.4704730000000  0.4809240000000  0.5167290000000 1.0
C      1  0.4946690000000  0.4809330000000  0.5335210000000 1.0
C      1  0.5228840000000  0.4809400000000  0.5250730000000 1.0
C      1  0.5338710000000  0.4809400000000  0.4977470000000 1.0
C      1  0.5641970000000  0.4897800000000  0.4680250000000 1.0
C      1  0.5150270000000  0.4897600000000  0.4298760000000 1.0
C      1  0.4545440000000  0.4897440000000  0.4445320000000 1.0
C      1  0.4282920000000  0.4897430000000  0.5009580000000 1.0
C      1  0.4560400000000  0.4897590000000  0.5566640000000 1.0
C      1  0.5168930000000  0.4897790000000  0.5697010000000 1.0
C      1  0.5650270000000  0.4897880000000  0.5302530000000 1.0
C      1  0.6051760000000  0.5030820000000  0.5145460000000 1.0
C      1  0.5769480000000  0.5030620000000  0.4268380000000 1.0
C      1  0.4907760000000  0.5030320000000  0.3942230000000 1.0
C      1  0.4115490000000  0.5030140000000  0.4412600000000 1.0
C      1  0.3989270000000  0.5030220000000  0.5325290000000 1.0
C      1  0.4624140000000  0.5030510000000  0.5993030000000 1.0
C      1  0.5542030000000  0.5030770000000  0.5912990000000 1.0
C      1  0.4425860000000  0.5745990000000  0.4375970000000 1.0
C      1  0.4154140000000  0.5746000000000  0.5059590000000 1.0
C      1  0.4519190000000  0.5746200000000  0.5698260000000 1.0
C      1  0.5246140000000  0.5746430000000  0.5811050000000 1.0
C      1  0.5787570000000  0.5746530000000  0.5313030000000 1.0
C      1  0.5735770000000  0.5746410000000  0.4579210000000 1.0
C      1  0.5129760000000  0.5746180000000  0.4162180000000 1.0
C      1  0.5957860000000  0.5317010000000  0.5228430000000 1.0
C      1  0.5775810000000  0.5316840000000  0.4393450000000 1.0
C      1  0.5009490000000  0.5316560000000  0.4015180000000 1.0
C      1  0.4235950000000  0.5316370000000  0.4378470000000 1.0
C      1  0.4037690000000  0.5316420000000  0.5209750000000 1.0
C      1  0.4563990000000  0.5316670000000  0.5883050000000 1.0
C      1  0.5418550000000  0.5316930000000  0.5891370000000 1.0
C      1  0.5794180000000  0.5341310000000  0.4693280000000 1.0
C      1  0.5255350000000  0.5341080000000  0.4187750000000 1.0
C      1  0.4524160000000  0.5340870000000  0.4293830000000 1.0
C      1  0.4151210000000  0.5340840000000  0.4931640000000 1.0
C      1  0.4417340000000  0.5341020000000  0.5620890000000 1.0
C      1  0.5122140000000  0.5341260000000  0.5842560000000 1.0
C      1  0.5734900000000  0.5341390000000  0.5429740000000 1.0
C      1  0.5378180000000  0.5041430000000  0.4596900000000 1.0
C      1  0.4920640000000  0.5041270000000  0.4452990000000 1.0
C      1  0.4522850000000  0.5041190000000  0.4720980000000 1.0
C      1  0.4484350000000  0.5041240000000  0.5199070000000 1.0
C      1  0.4834140000000  0.5041390000000  0.5527260000000 1.0
C      1  0.5308820000000  0.5041520000000  0.5458400000000 1.0
C      1  0.5550940000000  0.5041540000000  0.5044360000000 1.0
C      1  0.5114120000000  0.3946680000000  0.5302620000000 1.0
C      1  0.5307760000000  0.3946710000000  0.5099760000000 1.0
C      1  0.5269890000000  0.3946660000000  0.4821890000000 1.0
C      1  0.5029030000000  0.3946570000000  0.4678240000000 1.0
C      1  0.4766550000000  0.3946500000000  0.4776990000000 1.0
C      1  0.4680100000000  0.3946510000000  0.5043780000000 1.0
C      1  0.4834780000000  0.3946590000000  0.5277710000000 1.0
C      1  0.5354650000000  0.4795440000000  0.5892090000000 1.0
C      1  0.5918580000000  0.4795520000000  0.5278990000000 1.0
C      1  0.5790850000000  0.4795380000000  0.4455830000000 1.0
C      1  0.5067640000000  0.4795100000000  0.4042460000000 1.0
C      1  0.4293540000000  0.4794910000000  0.4350160000000 1.0
C      1  0.4051460000000  0.4794940000000  0.5147220000000 1.0
C      1  0.4523700000000  0.4795180000000  0.5833440000000 1.0
C      1  0.5449160000000  0.4575770000000  0.5667320000000 1.0
C      1  0.5801780000000  0.4575800000000  0.5065020000000 1.0
C      1  0.5550740000000  0.4575640000000  0.4413810000000 1.0
C      1  0.4885080000000  0.4575410000000  0.4204050000000 1.0
C      1  0.4306060000000  0.4575290000000  0.4593700000000 1.0
C      1  0.4249680000000  0.4575360000000  0.5289350000000 1.0
C      1  0.4758410000000  0.4575580000000  0.5767150000000 1.0
C      1  0.5564070000000  0.4403780000000  0.4671130000000 1.0
C      1  0.5094570000000  0.4403600000000  0.4354120000000 1.0
C      1  0.4554000000000  0.4403460000000  0.4523530000000 1.0
C      1  0.4349410000000  0.4403470000000  0.5051790000000 1.0
C      1  0.4634860000000  0.4403620000000  0.5541120000000 1.0
C      1  0.5195410000000  0.4403800000000  0.5623030000000 1.0
C      1  0.5608940000000  0.4403870000000  0.5235850000000 1.0
C      1  0.5076020000000  0.5924330000000  0.4675870000000 1.0
C      1  0.4793980000000  0.5924250000000  0.4738210000000 1.0
C      1  0.4666860000000  0.5924250000000  0.4997590000000 1.0
C      1  0.4790400000000  0.5924320000000  0.5258690000000 1.0
C      1  0.5071560000000  0.5924410000000  0.5324900000000 1.0
C      1  0.5298630000000  0.5924460000000  0.5146360000000 1.0
C      1  0.5300610000000  0.5924420000000  0.4857520000000 1.0
C      1  0.4516530000000  0.4297510000000  0.4246140000000 1.0
C      1  0.4109170000000  0.4297480000000  0.4908170000000 1.0
C      1  0.4372790000000  0.4297650000000  0.5639420000000 1.0
C      1  0.5108870000000  0.4297910000000  0.5889250000000 1.0
C      1  0.5763130000000  0.4298050000000  0.5469520000000 1.0
C      1  0.5842890000000  0.4297970000000  0.4696310000000 1.0
C      1  0.5288110000000  0.4297730000000  0.4151850000000 1.0
C      1  0.4963430000000  0.4493220000000  0.5997960000000 1.0
C      1  0.5757440000000  0.4493410000000  0.5650950000000 1.0
C      1  0.5981200000000  0.4493370000000  0.4813820000000 1.0
C      1  0.5466210000000  0.4493120000000  0.4116930000000 1.0
C      1  0.4600270000000  0.4492860000000  0.4085060000000 1.0
C      1  0.4035450000000  0.4492770000000  0.4742210000000 1.0
C      1  0.4197070000000  0.4492940000000  0.5593530000000 1.0
C      1  0.5755530000000  0.4949970000000  0.5746050000000 1.0
C      1  0.6054360000000  0.4949950000000  0.4874470000000 1.0
C      1  0.5559240000000  0.4949700000000  0.4097420000000 1.0
C      1  0.4643010000000  0.4949410000000  0.4000030000000 1.0
C      1  0.3995620000000  0.4949300000000  0.4655650000000 1.0
C      1  0.4104550000000  0.4949450000000  0.5570570000000 1.0
C      1  0.4887790000000  0.4949760000000  0.6055850000000 1.0
C      1  0.4465180000000  0.5453380000000  0.4961290000000 1.0
C      1  0.4636270000000  0.5453490000000  0.5393870000000 1.0
C      1  0.5081160000000  0.5453640000000  0.5529810000000 1.0
C      1  0.5464830000000  0.5453720000000  0.5266760000000 1.0
C      1  0.5498370000000  0.5453670000000  0.4802780000000 1.0
C      1  0.5156530000000  0.5453520000000  0.4487260000000 1.0
C      1  0.4696720000000  0.5453390000000  0.4557810000000 1.0
C      1  0.4534150000000  0.4660600000000  0.5372770000000 1.0
C      1  0.5000990000000  0.4660770000000  0.5596730000000 1.0
C      1  0.5467160000000  0.4660880000000  0.5371380000000 1.0
C      1  0.5581630000000  0.4660850000000  0.4866400000000 1.0
C      1  0.5258190000000  0.4660690000000  0.4462060000000 1.0
C      1  0.4740410000000  0.4660540000000  0.4462840000000 1.0
C      1  0.4418180000000  0.4660500000000  0.4868140000000 1.0
C      1  0.3936560000000  0.4734670000000  0.4840580000000 1.0
C      1  0.4212320000000  0.4734870000000  0.5732110000000 1.0
C      1  0.5081280000000  0.4735180000000  0.6072380000000 1.0
C      1  0.5889100000000  0.4735360000000  0.5605140000000 1.0
C      1  0.6027470000000  0.4735280000000  0.4682250000000 1.0
C      1  0.5392190000000  0.4735000000000  0.3998660000000 1.0
C      1  0.4461650000000  0.4734720000000  0.4069120000000 1.0
C      1  0.5297260000000  0.5304070000000  0.4685150000000 1.0
C      1  0.4939180000000  0.5303950000000  0.4571200000000 1.0
C      1  0.4626830000000  0.5303880000000  0.4780110000000 1.0
C      1  0.4595410000000  0.5303930000000  0.5154580000000 1.0
C      1  0.4868590000000  0.5304040000000  0.5412610000000 1.0
C      1  0.5240660000000  0.5304150000000  0.5359910000000 1.0
C      1  0.5431430000000  0.5304160000000  0.5036160000000 1.0
C      1  0.4699840000000  0.5575560000000  0.5886960000000 1.0
C      1  0.5506300000000  0.5575790000000  0.5787520000000 1.0
C      1  0.5931380000000  0.5575830000000  0.5095000000000 1.0
C      1  0.5654970000000  0.5575640000000  0.4330890000000 1.0
C      1  0.4885230000000  0.5575370000000  0.4070570000000 1.0
C      1  0.4201780000000  0.5575230000000  0.4510080000000 1.0
C      1  0.4119270000000  0.5575310000000  0.5318450000000 1.0
C      1  0.5729000000000  0.5600530000000  0.5578320000000 1.0
C      1  0.5906660000000  0.5600480000000  0.4790450000000 1.0
C      1  0.5401460000000  0.5600250000000  0.4160320000000 1.0
C      1  0.4593810000000  0.5600000000000  0.4162420000000 1.0
C      1  0.4091900000000  0.5599940000000  0.4795180000000 1.0
C      1  0.4273660000000  0.5600100000000  0.5582110000000 1.0
C      1  0.5002240000000  0.5600360000000  0.5930640000000 1.0
C      1  0.4976640000000  0.5082450000000  0.5810820000000 1.0
C      1  0.5619360000000  0.5082610000000  0.5523780000000 1.0
C      1  0.5795670000000  0.5082570000000  0.4842310000000 1.0
C      1  0.5372800000000  0.5082370000000  0.4279580000000 1.0
C      1  0.4669190000000  0.5082150000000  0.4259330000000 1.0
C      1  0.4214670000000  0.5082090000000  0.4796810000000 1.0
C      1  0.4351490000000  0.5082220000000  0.5487290000000 1.0
END
