TITL C-126559-4969-4 42.8102812657419 125000 -643.497280443768 0 0 93 (C1) n - 1
REM
REM in /rds/project/t2_vol4/rds-t2-cs072/BORA/CARBON/from-Arr/AIRSS/Generating-Clusters/GAP-ML-2020/Higher-Symm/SD-CG/HFTN-CG
REM
REM
REM
REM
REM
REM ./C.cell (b20cbc046b6831c77cfcea5457e17084)
REM AIRSS Version 0.9.1 bugfix July 2018 build 013d7b7c2542+ Fri, 06 Jul 2018 19:26:36 +0100
REM compiler GCC version 9.3.0
REM options -cpp -mtune=generic -march=x86-64 -g -O0
REM seed -289060327 702190771 2100871673 -1832806302 1492640464 309213138 1629146889 -941719796 -1614562505 1955757456 -444858439 718732631 1782517370 869799483 5978391 -1109769291 99750832 901205006 -1403670087 -635809523 1519749035 -1163316117 -1339837918 -1445565619 2019255172 -896791717 1286161879 -740561829 2053681628 1106214262 769920576 1845941828 -231331551
REM
CELL 1.54180   50.00000   50.00000   50.00000   90.00000   90.00000   90.00000
LATT -1
SFAC C  
C      1  0.5089220000000  0.4728590000000  0.4640900000000 1.0
C      1  0.4950200000000  0.5261960000000  0.5378740000000 1.0
C      1  0.5954920000000  0.4891310000000  0.5388010000000 1.0
C      1  0.4056280000000  0.5058130000000  0.4621540000000 1.0
C      1  0.5629920000000  0.4590170000000  0.5162350000000 1.0
C      1  0.4358810000000  0.5385810000000  0.4856100000000 1.0
C      1  0.4902280000000  0.4291570000000  0.4709920000000 1.0
C      1  0.5051630000000  0.5749190000000  0.5389010000000 1.0
C      1  0.4182170000000  0.5159020000000  0.4842720000000 1.0
C      1  0.5826450000000  0.4796260000000  0.5162280000000 1.0
C      1  0.4770310000000  0.5068140000000  0.5480720000000 1.0
C      1  0.5225610000000  0.4951850000000  0.4525310000000 1.0
C      1  0.4842640000000  0.5276900000000  0.4285210000000 1.0
C      1  0.5151450000000  0.4748910000000  0.5748940000000 1.0
C      1  0.5235700000000  0.4779620000000  0.4935040000000 1.0
C      1  0.4916370000000  0.5351180000000  0.5092110000000 1.0
C      1  0.4843040000000  0.4814880000000  0.5408600000000 1.0
C      1  0.5130920000000  0.5206860000000  0.4651350000000 1.0
C      1  0.4323170000000  0.5199630000000  0.5277940000000 1.0
C      1  0.5667860000000  0.4777490000000  0.4721800000000 1.0
C      1  0.5579130000000  0.5404070000000  0.4480410000000 1.0
C      1  0.4408210000000  0.4581090000000  0.5503530000000 1.0
C      1  0.5237950000000  0.5597730000000  0.5541020000000 1.0
C      1  0.4675750000000  0.4441940000000  0.4308840000000 1.0
C      1  0.4964330000000  0.5663490000000  0.4575970000000 1.0
C      1  0.5039000000000  0.4334380000000  0.5487900000000 1.0
C      1  0.4813700000000  0.4759920000000  0.5132520000000 1.0
C      1  0.5323570000000  0.5299890000000  0.4864850000000 1.0
C      1  0.4542610000000  0.4958500000000  0.4469170000000 1.0
C      1  0.5468100000000  0.5021380000000  0.5523220000000 1.0
C      1  0.5261570000000  0.4746320000000  0.4097950000000 1.0
C      1  0.4717600000000  0.5305060000000  0.5909570000000 1.0
C      1  0.5777740000000  0.5302820000000  0.5202920000000 1.0
C      1  0.4270090000000  0.4659330000000  0.4787930000000 1.0
C      1  0.4681070000000  0.5564620000000  0.5171840000000 1.0
C      1  0.5342560000000  0.4347360000000  0.4837090000000 1.0
C      1  0.5505840000000  0.4592240000000  0.4896800000000 1.0
C      1  0.4422910000000  0.5426750000000  0.5129520000000 1.0
C      1  0.5141630000000  0.4422940000000  0.4650420000000 1.0
C      1  0.4844400000000  0.5568430000000  0.5419590000000 1.0
C      1  0.4751510000000  0.4636810000000  0.4144500000000 1.0
C      1  0.5213950000000  0.5416120000000  0.5766250000000 1.0
C      1  0.4615320000000  0.4887180000000  0.4192300000000 1.0
C      1  0.5367460000000  0.5164460000000  0.5765760000000 1.0
C      1  0.5387130000000  0.4738390000000  0.5569690000000 1.0
C      1  0.4611200000000  0.5254800000000  0.4460270000000 1.0
C      1  0.5061210000000  0.5418740000000  0.4432530000000 1.0
C      1  0.4928150000000  0.4591840000000  0.5619510000000 1.0
C      1  0.5235390000000  0.5745950000000  0.4629920000000 1.0
C      1  0.4773660000000  0.4253400000000  0.5413450000000 1.0
C      1  0.4733210000000  0.5671680000000  0.4720140000000 1.0
C      1  0.5265900000000  0.4311670000000  0.5328350000000 1.0
C      1  0.4544220000000  0.5455640000000  0.4654490000000 1.0
C      1  0.5454960000000  0.4529720000000  0.5381450000000 1.0
C      1  0.5317250000000  0.5785430000000  0.4898650000000 1.0
C      1  0.4704390000000  0.4197540000000  0.5145350000000 1.0
C      1  0.4366010000000  0.4830530000000  0.5590910000000 1.0
C      1  0.5643370000000  0.5165380000000  0.4377870000000 1.0
C      1  0.5338340000000  0.5553900000000  0.4439140000000 1.0
C      1  0.4651430000000  0.4451860000000  0.5582950000000 1.0
C      1  0.4790360000000  0.5759300000000  0.4985070000000 1.0
C      1  0.5211170000000  0.4217480000000  0.5052990000000 1.0
C      1  0.4319710000000  0.4520260000000  0.5226100000000 1.0
C      1  0.5617040000000  0.5406630000000  0.4782000000000 1.0
C      1  0.5485480000000  0.4739980000000  0.4215390000000 1.0
C      1  0.4500390000000  0.5269870000000  0.5783510000000 1.0
C      1  0.5544380000000  0.4901050000000  0.4465940000000 1.0
C      1  0.4455660000000  0.5101220000000  0.5538730000000 1.0
C      1  0.5175300000000  0.5498770000000  0.5055000000000 1.0
C      1  0.5051380000000  0.4638930000000  0.5091270000000 1.0
C      1  0.5582950000000  0.5654770000000  0.4944240000000 1.0
C      1  0.4465570000000  0.4337680000000  0.5055520000000 1.0
C      1  0.5619700000000  0.5539860000000  0.5203470000000 1.0
C      1  0.4433030000000  0.4428010000000  0.4784450000000 1.0
C      1  0.4670760000000  0.4444650000000  0.4600100000000 1.0
C      1  0.5354420000000  0.5464340000000  0.5304370000000 1.0
C      1  0.4991000000000  0.5271520000000  0.5896700000000 1.0
C      1  0.4995920000000  0.4796600000000  0.4049520000000 1.0
C      1  0.4272170000000  0.4877430000000  0.4592390000000 1.0
C      1  0.5753230000000  0.5083880000000  0.5405100000000 1.0
C      1  0.4210540000000  0.4730130000000  0.5059470000000 1.0
C      1  0.5800540000000  0.5219650000000  0.4934040000000 1.0
C      1  0.5152120000000  0.5008820000000  0.5870570000000 1.0
C      1  0.4842410000000  0.5046820000000  0.4118500000000 1.0
C      1  0.4929480000000  0.4176620000000  0.4969080000000 1.0
C      1  0.5078080000000  0.5792970000000  0.5087990000000 1.0
C      1  0.5238120000000  0.5061030000000  0.5036680000000 1.0
C      1  0.4757070000000  0.4916870000000  0.4903210000000 1.0
C      1  0.5814770000000  0.4935130000000  0.4901600000000 1.0
C      1  0.4198860000000  0.5018280000000  0.5098310000000 1.0
C      1  0.5259860000000  0.5159050000000  0.5324250000000 1.0
C      1  0.4779850000000  0.4774910000000  0.4644170000000 1.0
C      1  0.4942960000000  0.5136230000000  0.4897790000000 1.0
END
