TITL C-123290-3549-7 -33.9253579308196 125000 -1010.73744685485 0 0 140 (C1) n - 1
REM
REM in /rds/project/t2_vol4/rds-t2-cs072/BORA/CARBON/from-Arr/AIRSS/Generating-Clusters/GAP-ML-2020/Higher-Symm/SD-CG/HFTN-CG
REM
REM
REM
REM
REM
REM ./C.cell (b20cbc046b6831c77cfcea5457e17084)
REM AIRSS Version 0.9.1 bugfix July 2018 build 013d7b7c2542+ Fri, 06 Jul 2018 19:26:36 +0100
REM compiler GCC version 9.3.0
REM options -cpp -mtune=generic -march=x86-64 -g -O0
REM seed 220356527 906333310 1183990192 -273949162 -1232797323 433638976 117403010 1505727364 1217174375 -1032641410 915675410 1597039453 -1629897045 -1689274416 -1199704936 -2097574677 -375662538 -885760843 -1328704689 -1270435157 438914749 -1719913838 47695892 -195537728 1282776528 -1579906945 -1289014318 -1874334164 -498645286 -1967022015 -173922958 1513451190 -79456901
REM
CELL 1.54180   50.00000   50.00000   50.00000   90.00000   90.00000   90.00000
LATT -1
SFAC C  
C      1  0.5586990000000  0.5366640000000  0.5535790000000 1.0
C      1  0.5590140000000  0.5280630000000  0.4414840000000 1.0
C      1  0.5588160000000  0.4351770000000  0.5049470000000 1.0
C      1  0.4389020000000  0.5337520000000  0.4473180000000 1.0
C      1  0.4392600000000  0.5273140000000  0.5585610000000 1.0
C      1  0.4386450000000  0.4395390000000  0.4964680000000 1.0
C      1  0.5007950000000  0.4050320000000  0.4564340000000 1.0
C      1  0.5017820000000  0.5093470000000  0.6045810000000 1.0
C      1  0.5012030000000  0.5852360000000  0.4391410000000 1.0
C      1  0.4974530000000  0.4041580000000  0.5443520000000 1.0
C      1  0.4978920000000  0.5092950000000  0.3944950000000 1.0
C      1  0.4967400000000  0.5859030000000  0.5607150000000 1.0
C      1  0.4680590000000  0.4258770000000  0.4309270000000 1.0
C      1  0.4688270000000  0.4766970000000  0.5995180000000 1.0
C      1  0.4679060000000  0.5969360000000  0.4695420000000 1.0
C      1  0.5311540000000  0.4247780000000  0.5694800000000 1.0
C      1  0.5311470000000  0.4770560000000  0.4002870000000 1.0
C      1  0.5301840000000  0.5974170000000  0.5300000000000 1.0
C      1  0.5357490000000  0.5277750000000  0.4997580000000 1.0
C      1  0.5359360000000  0.4858480000000  0.4764880000000 1.0
C      1  0.5357890000000  0.4865700000000  0.5243710000000 1.0
C      1  0.4568870000000  0.5293060000000  0.5002380000000 1.0
C      1  0.4584840000000  0.4854470000000  0.5244740000000 1.0
C      1  0.4587490000000  0.4865670000000  0.4745920000000 1.0
C      1  0.4276000000000  0.5638540000000  0.4865560000000 1.0
C      1  0.4286290000000  0.4590190000000  0.4497720000000 1.0
C      1  0.4287460000000  0.4777880000000  0.5609130000000 1.0
C      1  0.5731850000000  0.5641910000000  0.5144230000000 1.0
C      1  0.5735850000000  0.4553360000000  0.5482850000000 1.0
C      1  0.5734860000000  0.4802600000000  0.4373930000000 1.0
C      1  0.4741090000000  0.5004000000000  0.4531220000000 1.0
C      1  0.4736860000000  0.4599500000000  0.5228590000000 1.0
C      1  0.4725670000000  0.5399140000000  0.5235990000000 1.0
C      1  0.5237450000000  0.5008580000000  0.5461000000000 1.0
C      1  0.5239200000000  0.4598730000000  0.4779690000000 1.0
C      1  0.5237640000000  0.5393000000000  0.4763830000000 1.0
C      1  0.5693930000000  0.4265200000000  0.4803600000000 1.0
C      1  0.5696190000000  0.5195990000000  0.5731900000000 1.0
C      1  0.5696060000000  0.5536820000000  0.4463410000000 1.0
C      1  0.4264840000000  0.4478920000000  0.5215780000000 1.0
C      1  0.4266190000000  0.5078670000000  0.4425120000000 1.0
C      1  0.4288560000000  0.5534030000000  0.5540780000000 1.0
C      1  0.5210930000000  0.4057750000000  0.5288770000000 1.0
C      1  0.5207950000000  0.5720840000000  0.5669990000000 1.0
C      1  0.5214810000000  0.5218030000000  0.4038990000000 1.0
C      1  0.4764970000000  0.4072700000000  0.4715920000000 1.0
C      1  0.4769820000000  0.5711950000000  0.4328560000000 1.0
C      1  0.4774810000000  0.5213390000000  0.5955730000000 1.0
C      1  0.5152140000000  0.5420920000000  0.4253440000000 1.0
C      1  0.5148010000000  0.4144750000000  0.5007020000000 1.0
C      1  0.5150360000000  0.5432970000000  0.5740780000000 1.0
C      1  0.4831910000000  0.5422930000000  0.5744450000000 1.0
C      1  0.4826430000000  0.4152020000000  0.4999290000000 1.0
C      1  0.4831350000000  0.5426460000000  0.4259020000000 1.0
C      1  0.5881720000000  0.4852130000000  0.4600090000000 1.0
C      1  0.5882920000000  0.4724980000000  0.5327320000000 1.0
C      1  0.5880230000000  0.5421560000000  0.5074270000000 1.0
C      1  0.4250960000000  0.4766840000000  0.5308870000000 1.0
C      1  0.4252370000000  0.4857650000000  0.4630370000000 1.0
C      1  0.4257660000000  0.5374820000000  0.4977570000000 1.0
C      1  0.5931880000000  0.4884740000000  0.5128440000000 1.0
C      1  0.5930920000000  0.5169540000000  0.5036510000000 1.0
C      1  0.5931270000000  0.4946880000000  0.4836830000000 1.0
C      1  0.4070810000000  0.4915910000000  0.4854600000000 1.0
C      1  0.4072120000000  0.5165090000000  0.4985570000000 1.0
C      1  0.4071650000000  0.4924540000000  0.5133090000000 1.0
C      1  0.5503750000000  0.5131660000000  0.5934010000000 1.0
C      1  0.5501010000000  0.5742200000000  0.4417760000000 1.0
C      1  0.5497440000000  0.4124580000000  0.4648430000000 1.0
C      1  0.4501800000000  0.5108850000000  0.4022470000000 1.0
C      1  0.4477340000000  0.5742450000000  0.5589500000000 1.0
C      1  0.4495050000000  0.4107430000000  0.5387610000000 1.0
C      1  0.5367000000000  0.4532050000000  0.4150750000000 1.0
C      1  0.5369860000000  0.4494420000000  0.5828250000000 1.0
C      1  0.5360300000000  0.5965320000000  0.5020250000000 1.0
C      1  0.4635040000000  0.4520170000000  0.5862160000000 1.0
C      1  0.4632690000000  0.4492090000000  0.4152200000000 1.0
C      1  0.4625520000000  0.5976150000000  0.4976660000000 1.0
C      1  0.4684310000000  0.5285760000000  0.4500670000000 1.0
C      1  0.4682130000000  0.4432370000000  0.5001290000000 1.0
C      1  0.4680660000000  0.5281760000000  0.5496610000000 1.0
C      1  0.5295470000000  0.5290550000000  0.5492730000000 1.0
C      1  0.5296640000000  0.4429900000000  0.5007970000000 1.0
C      1  0.5298340000000  0.5279410000000  0.4503430000000 1.0
C      1  0.5239710000000  0.4041240000000  0.4731230000000 1.0
C      1  0.5246880000000  0.5245740000000  0.5968330000000 1.0
C      1  0.5244160000000  0.5711510000000  0.4302300000000 1.0
C      1  0.4732950000000  0.4041800000000  0.5280620000000 1.0
C      1  0.4738520000000  0.5236440000000  0.4022690000000 1.0
C      1  0.4737200000000  0.5715380000000  0.5700410000000 1.0
C      1  0.4738520000000  0.5002390000000  0.5452680000000 1.0
C      1  0.4736000000000  0.5395620000000  0.4769060000000 1.0
C      1  0.4740090000000  0.4608520000000  0.4774310000000 1.0
C      1  0.5237020000000  0.4998560000000  0.4544930000000 1.0
C      1  0.5229190000000  0.5394480000000  0.5229030000000 1.0
C      1  0.5234110000000  0.4605680000000  0.5230950000000 1.0
C      1  0.4346320000000  0.5738760000000  0.5340810000000 1.0
C      1  0.4364040000000  0.4943870000000  0.4191330000000 1.0
C      1  0.4362040000000  0.4338780000000  0.5446690000000 1.0
C      1  0.5635640000000  0.5738650000000  0.4662230000000 1.0
C      1  0.5639280000000  0.4922490000000  0.5807760000000 1.0
C      1  0.5636080000000  0.4336260000000  0.4529830000000 1.0
C      1  0.4988680000000  0.4883280000000  0.4511390000000 1.0
C      1  0.4984400000000  0.4637550000000  0.5344230000000 1.0
C      1  0.4977340000000  0.5470640000000  0.5143930000000 1.0
C      1  0.4985210000000  0.4889640000000  0.5485100000000 1.0
C      1  0.4987940000000  0.4636700000000  0.4662630000000 1.0
C      1  0.4983670000000  0.5468960000000  0.4855550000000 1.0
C      1  0.4898320000000  0.4559700000000  0.4036100000000 1.0
C      1  0.4899370000000  0.4384360000000  0.5860650000000 1.0
C      1  0.4888620000000  0.6043140000000  0.5098130000000 1.0
C      1  0.5108270000000  0.4563340000000  0.5955460000000 1.0
C      1  0.5103870000000  0.4388090000000  0.4147490000000 1.0
C      1  0.5097910000000  0.6037140000000  0.4896310000000 1.0
C      1  0.5021400000000  0.6005800000000  0.5355390000000 1.0
C      1  0.5032860000000  0.4802080000000  0.3942840000000 1.0
C      1  0.5031790000000  0.4182590000000  0.5696960000000 1.0
C      1  0.4960350000000  0.5999660000000  0.4640570000000 1.0
C      1  0.4969830000000  0.4803250000000  0.6049590000000 1.0
C      1  0.4961050000000  0.4190270000000  0.4310690000000 1.0
C      1  0.5633680000000  0.4328510000000  0.5334920000000 1.0
C      1  0.5629230000000  0.5625960000000  0.5412540000000 1.0
C      1  0.5634550000000  0.5043570000000  0.4252480000000 1.0
C      1  0.4348660000000  0.4364060000000  0.4668150000000 1.0
C      1  0.4348870000000  0.5612890000000  0.4589630000000 1.0
C      1  0.4352660000000  0.5026890000000  0.5738620000000 1.0
C      1  0.4557230000000  0.5789640000000  0.4506570000000 1.0
C      1  0.4555250000000  0.4195110000000  0.4559660000000 1.0
C      1  0.4564100000000  0.5014740000000  0.5934630000000 1.0
C      1  0.5419460000000  0.5801500000000  0.5490320000000 1.0
C      1  0.5425710000000  0.4171860000000  0.5448070000000 1.0
C      1  0.5427610000000  0.5022190000000  0.4059750000000 1.0
C      1  0.5591980000000  0.5808050000000  0.4939030000000 1.0
C      1  0.5595140000000  0.4541910000000  0.4331470000000 1.0
C      1  0.5597650000000  0.4647110000000  0.5730060000000 1.0
C      1  0.4395980000000  0.5815610000000  0.5062690000000 1.0
C      1  0.4409430000000  0.4527250000000  0.5674310000000 1.0
C      1  0.4406770000000  0.4652240000000  0.4245380000000 1.0
C      1  0.4605920000000  0.5003980000000  0.4998080000000 1.0
C      1  0.5373260000000  0.5000980000000  0.5002160000000 1.0
END
