TITL C-123194-8093-10 -0.0499868629124713 125000 -205.192523624309 0 0 31 (C1) n - 1
REM
REM in /rds/project/t2_vol4/rds-t2-cs072/BORA/CARBON/from-Arr/AIRSS/Generating-Clusters/GAP-ML-2020/Higher-Symm/SD-CG/HFTN-CG
REM
REM
REM
REM
REM
REM ./C.cell (b20cbc046b6831c77cfcea5457e17084)
REM AIRSS Version 0.9.1 bugfix July 2018 build 013d7b7c2542+ Fri, 06 Jul 2018 19:26:36 +0100
REM compiler GCC version 9.3.0
REM options -cpp -mtune=generic -march=x86-64 -g -O0
REM seed -629107361 266307377 1764445478 949838584 -1419877015 -45354241 -913810391 -1799118918 -918334592 -1189368546 160487977 -1756410977 -566479224 -1361757761 -539416354 1815392966 1098749560 161590414 1693999986 -164336231 -1348026022 -699285905 -693690898 925353575 -197775964 13085601 -317398822 313469953 -1244530876 -1101744566 221723055 -1813093209 663548954
REM
CELL 1.54180   50.00000   50.00000   50.00000   90.00000   90.00000   90.00000
LATT -1
SFAC C  
C      1  0.4457700000000  0.4976530000000  0.5058780000000 1.0
C      1  0.5566350000000  0.5035720000000  0.4907980000000 1.0
C      1  0.4927670000000  0.5608240000000  0.4903200000000 1.0
C      1  0.5104580000000  0.4440880000000  0.5165550000000 1.0
C      1  0.4762750000000  0.5421730000000  0.4763120000000 1.0
C      1  0.5313480000000  0.4640830000000  0.5239820000000 1.0
C      1  0.4502130000000  0.5373720000000  0.4852840000000 1.0
C      1  0.5574490000000  0.4653350000000  0.5152540000000 1.0
C      1  0.5176230000000  0.4888580000000  0.5276060000000 1.0
C      1  0.4895420000000  0.5172470000000  0.4655160000000 1.0
C      1  0.4960130000000  0.5518890000000  0.5335110000000 1.0
C      1  0.4960040000000  0.4297310000000  0.4731600000000 1.0
C      1  0.5108730000000  0.4280400000000  0.4948080000000 1.0
C      1  0.4861140000000  0.5695220000000  0.5167000000000 1.0
C      1  0.4590100000000  0.4508400000000  0.5158630000000 1.0
C      1  0.5407980000000  0.5496920000000  0.4975920000000 1.0
C      1  0.4660850000000  0.4693800000000  0.4736040000000 1.0
C      1  0.5279510000000  0.5155610000000  0.5280790000000 1.0
C      1  0.5712520000000  0.4818190000000  0.5010400000000 1.0
C      1  0.4329940000000  0.5207780000000  0.4954390000000 1.0
C      1  0.4903840000000  0.4844710000000  0.5233480000000 1.0
C      1  0.5157750000000  0.5108080000000  0.4646490000000 1.0
C      1  0.5211250000000  0.5616360000000  0.4878800000000 1.0
C      1  0.4851670000000  0.4566060000000  0.5232570000000 1.0
C      1  0.4781110000000  0.4461440000000  0.4651410000000 1.0
C      1  0.5124490000000  0.5347930000000  0.5422540000000 1.0
C      1  0.4487800000000  0.4685270000000  0.4977490000000 1.0
C      1  0.5473650000000  0.5247920000000  0.5089770000000 1.0
C      1  0.4738800000000  0.5023060000000  0.5082720000000 1.0
C      1  0.5377960000000  0.5001080000000  0.4706900000000 1.0
C      1  0.4771640000000  0.4948400000000  0.4764220000000 1.0
END
