TITL C-123170-8092-66 0.0816212788629519 125000 -252.271472230313 0 0 38 (Cs) n - 1
REM
REM in /rds/project/t2_vol4/rds-t2-cs072/BORA/CARBON/from-Arr/AIRSS/Generating-Clusters/GAP-ML-2020/Higher-Symm/SD-CG/HFTN-CG
REM
REM
REM
REM
REM
REM ./C.cell (b20cbc046b6831c77cfcea5457e17084)
REM AIRSS Version 0.9.1 bugfix July 2018 build 013d7b7c2542+ Fri, 06 Jul 2018 19:26:36 +0100
REM compiler GCC version 9.3.0
REM options -cpp -mtune=generic -march=x86-64 -g -O0
REM seed -2007922274 63306110 1269095148 -1259849518 808313142 1104735336 -1293898445 544072743 478454607 474556008 -1869607645 -1444499873 363566374 -1810181680 1430756269 562175096 -886946128 1980157769 904492664 1990308388 -990650802 -1412651814 2138965130 1405360967 441917009 1527154942 536596198 -882143646 1639816687 1520487244 1515342304 179747246 677830258
REM
CELL 1.54180   50.00000   50.00000   50.00000   90.00000   90.00000   90.00000
LATT -1
SFAC C  
C      1  0.5509540000000  0.4922260000000  0.4626370000000 1.0
C      1  0.4490500000000  0.4921750000000  0.4626420000000 1.0
C      1  0.4860700000000  0.5153000000000  0.5469310000000 1.0
C      1  0.5139190000000  0.5153140000000  0.5469300000000 1.0
C      1  0.4671670000000  0.5529570000000  0.4939140000000 1.0
C      1  0.5327790000000  0.5529900000000  0.4939110000000 1.0
C      1  0.4463840000000  0.4939510000000  0.5330440000000 1.0
C      1  0.5536250000000  0.4940050000000  0.5330380000000 1.0
C      1  0.4714080000000  0.5093240000000  0.4504890000000 1.0
C      1  0.5285770000000  0.5093520000000  0.4504860000000 1.0
C      1  0.4614590000000  0.4672180000000  0.4752080000000 1.0
C      1  0.5385710000000  0.4672570000000  0.4752040000000 1.0
C      1  0.5139810000000  0.4880130000000  0.5593920000000 1.0
C      1  0.4860370000000  0.4879990000000  0.5593930000000 1.0
C      1  0.5305310000000  0.5107270000000  0.5237710000000 1.0
C      1  0.4694600000000  0.5106960000000  0.5237740000000 1.0
C      1  0.5633570000000  0.4860980000000  0.5076850000000 1.0
C      1  0.4366580000000  0.4860350000000  0.5076910000000 1.0
C      1  0.4851350000000  0.5130490000000  0.4767590000000 1.0
C      1  0.5148500000000  0.5130640000000  0.4767580000000 1.0
C      1  0.4495780000000  0.4605440000000  0.5013410000000 1.0
C      1  0.5504620000000  0.4605950000000  0.5013360000000 1.0
C      1  0.5292780000000  0.4606700000000  0.5223710000000 1.0
C      1  0.4707640000000  0.4606410000000  0.5223740000000 1.0
C      1  0.4856510000000  0.4822860000000  0.4832910000000 1.0
C      1  0.5143650000000  0.4823000000000  0.4832900000000 1.0
C      1  0.5133700000000  0.5109240000000  0.4286580000000 1.0
C      1  0.4866120000000  0.5109110000000  0.4286590000000 1.0
C      1  0.5134720000000  0.5692260000000  0.4908330000000 1.0
C      1  0.4864580000000  0.5692130000000  0.4908340000000 1.0
C      1  0.4421460000000  0.5054820000000  0.4872350000000 1.0
C      1  0.5578480000000  0.5055390000000  0.4872300000000 1.0
C      1  0.4857770000000  0.4841000000000  0.5125060000000 1.0
C      1  0.5142410000000  0.4841140000000  0.5125050000000 1.0
C      1  0.4649580000000  0.5244480000000  0.4966450000000 1.0
C      1  0.5350170000000  0.5244830000000  0.4966420000000 1.0
C      1  0.5360080000000  0.4734060000000  0.5472970000000 1.0
C      1  0.4640230000000  0.4733700000000  0.5473000000000 1.0
END
