TITL C-122792-5966-11 -577.230550577888 125000 -778.48808867716 0 0 111 (C1) n - 1
REM
REM in /rds/project/t2_vol4/rds-t2-cs072/BORA/CARBON/from-Arr/AIRSS/Generating-Clusters/GAP-ML-2020/Higher-Symm/SD-CG/HFTN-CG
REM
REM
REM
REM
REM
REM ./C.cell (b20cbc046b6831c77cfcea5457e17084)
REM AIRSS Version 0.9.1 bugfix July 2018 build 013d7b7c2542+ Fri, 06 Jul 2018 19:26:36 +0100
REM compiler GCC version 9.3.0
REM options -cpp -mtune=generic -march=x86-64 -g -O0
REM seed 1569815419 1014530589 -1950048449 -901274047 357540723 -442401650 -1672414733 -616979701 1380813542 -1732194513 1263489388 641325008 1533218489 376508239 523917659 -388102370 -1434754614 1459543610 -1171747293 1577900973 1078735063 -1793206479 584487908 -1581295820 -720111912 203563639 -662713844 -1029759673 -746951512 -1929402456 1572511661 1480742603 -1627528585
REM
CELL 1.54180   50.00000   50.00000   50.00000   90.00000   90.00000   90.00000
LATT -1
SFAC C  
C      1  0.4705780000000  0.4152280000000  0.5187920000000 1.0
C      1  0.4699950000000  0.4919990000000  0.5837690000000 1.0
C      1  0.4710830000000  0.5791100000000  0.5341990000000 1.0
C      1  0.4702200000000  0.5578310000000  0.4369370000000 1.0
C      1  0.4685170000000  0.4581230000000  0.4275790000000 1.0
C      1  0.4574290000000  0.5713690000000  0.4594660000000 1.0
C      1  0.4561320000000  0.4839500000000  0.4223960000000 1.0
C      1  0.4571200000000  0.4187070000000  0.4924290000000 1.0
C      1  0.4561960000000  0.4684950000000  0.5723300000000 1.0
C      1  0.4581430000000  0.5611930000000  0.5533840000000 1.0
C      1  0.4304930000000  0.4590120000000  0.4832240000000 1.0
C      1  0.4309660000000  0.4672050000000  0.5308110000000 1.0
C      1  0.4325440000000  0.5246320000000  0.5417450000000 1.0
C      1  0.4324060000000  0.5494080000000  0.4919920000000 1.0
C      1  0.4318290000000  0.5086770000000  0.4536630000000 1.0
C      1  0.5178970000000  0.5009750000000  0.4296550000000 1.0
C      1  0.5183160000000  0.4326950000000  0.4773310000000 1.0
C      1  0.5192350000000  0.4575910000000  0.5569940000000 1.0
C      1  0.5192520000000  0.5413650000000  0.5568430000000 1.0
C      1  0.5197040000000  0.5692670000000  0.4782600000000 1.0
C      1  0.4534030000000  0.5148980000000  0.5802160000000 1.0
C      1  0.4539280000000  0.5831240000000  0.5117400000000 1.0
C      1  0.4529120000000  0.5372260000000  0.4273570000000 1.0
C      1  0.4511900000000  0.4426810000000  0.4446590000000 1.0
C      1  0.4536600000000  0.4267290000000  0.5392100000000 1.0
C      1  0.5632820000000  0.5545320000000  0.5486200000000 1.0
C      1  0.5631620000000  0.5638080000000  0.4629000000000 1.0
C      1  0.5616090000000  0.4848700000000  0.4276370000000 1.0
C      1  0.5623590000000  0.4270990000000  0.4914270000000 1.0
C      1  0.5629090000000  0.4700660000000  0.5663150000000 1.0
C      1  0.5029150000000  0.4957810000000  0.5284960000000 1.0
C      1  0.5031320000000  0.5274850000000  0.5110780000000 1.0
C      1  0.5027080000000  0.5217560000000  0.4796360000000 1.0
C      1  0.5025060000000  0.4859610000000  0.4752930000000 1.0
C      1  0.5034350000000  0.4719720000000  0.5052290000000 1.0
C      1  0.4321130000000  0.4787440000000  0.5589540000000 1.0
C      1  0.4327190000000  0.5532120000000  0.5409530000000 1.0
C      1  0.4320720000000  0.5569650000000  0.4642330000000 1.0
C      1  0.4310310000000  0.4841840000000  0.4382880000000 1.0
C      1  0.4325810000000  0.4323680000000  0.4980780000000 1.0
C      1  0.5190340000000  0.5609130000000  0.4473900000000 1.0
C      1  0.5174330000000  0.4692000000000  0.4271230000000 1.0
C      1  0.5188130000000  0.4206570000000  0.5069390000000 1.0
C      1  0.5189930000000  0.4822640000000  0.5772110000000 1.0
C      1  0.5195370000000  0.5686700000000  0.5403930000000 1.0
C      1  0.5574720000000  0.5296290000000  0.4343980000000 1.0
C      1  0.5571300000000  0.4471100000000  0.4511420000000 1.0
C      1  0.5581590000000  0.4377990000000  0.5347830000000 1.0
C      1  0.5582410000000  0.5144890000000  0.5694790000000 1.0
C      1  0.5589020000000  0.5715430000000  0.5073980000000 1.0
C      1  0.4697470000000  0.5360990000000  0.5668940000000 1.0
C      1  0.4698070000000  0.5764200000000  0.4870490000000 1.0
C      1  0.4685600000000  0.5116640000000  0.4256630000000 1.0
C      1  0.4679860000000  0.4324900000000  0.4673480000000 1.0
C      1  0.4688800000000  0.4477760000000  0.5538450000000 1.0
C      1  0.5478550000000  0.4777400000000  0.4865260000000 1.0
C      1  0.5480980000000  0.4809600000000  0.5168040000000 1.0
C      1  0.5477190000000  0.5108270000000  0.5227880000000 1.0
C      1  0.5481350000000  0.5263990000000  0.4968270000000 1.0
C      1  0.5472730000000  0.5056260000000  0.4746430000000 1.0
C      1  0.5218900000000  0.5402580000000  0.4926340000000 1.0
C      1  0.5197660000000  0.5056430000000  0.4623650000000 1.0
C      1  0.5211460000000  0.4648030000000  0.4827830000000 1.0
C      1  0.5215290000000  0.4730290000000  0.5281200000000 1.0
C      1  0.5203900000000  0.5185650000000  0.5329410000000 1.0
C      1  0.5723890000000  0.5100300000000  0.5436080000000 1.0
C      1  0.5729060000000  0.5454440000000  0.5036960000000 1.0
C      1  0.5718250000000  0.5179140000000  0.4577290000000 1.0
C      1  0.5718710000000  0.4658850000000  0.4691530000000 1.0
C      1  0.5724300000000  0.4608590000000  0.5224000000000 1.0
C      1  0.4975030000000  0.5807220000000  0.4947380000000 1.0
C      1  0.4960710000000  0.5204060000000  0.4235830000000 1.0
C      1  0.4955380000000  0.4331750000000  0.4576840000000 1.0
C      1  0.4967510000000  0.4390890000000  0.5507090000000 1.0
C      1  0.4971220000000  0.5294720000000  0.5731870000000 1.0
C      1  0.4293840000000  0.4599610000000  0.4531880000000 1.0
C      1  0.4308730000000  0.4376330000000  0.5262210000000 1.0
C      1  0.4303250000000  0.5067730000000  0.5642780000000 1.0
C      1  0.4306890000000  0.5659590000000  0.5153010000000 1.0
C      1  0.4300080000000  0.5358310000000  0.4450620000000 1.0
C      1  0.5782840000000  0.4803390000000  0.5441720000000 1.0
C      1  0.5788930000000  0.5367870000000  0.5320570000000 1.0
C      1  0.5784170000000  0.5422990000000  0.4745550000000 1.0
C      1  0.5778750000000  0.4893540000000  0.4510710000000 1.0
C      1  0.5781180000000  0.4510700000000  0.4942920000000 1.0
C      1  0.4984570000000  0.5798940000000  0.5248870000000 1.0
C      1  0.4975240000000  0.5491370000000  0.4328310000000 1.0
C      1  0.4959700000000  0.4515280000000  0.4338730000000 1.0
C      1  0.4977980000000  0.4210950000000  0.5263690000000 1.0
C      1  0.4976270000000  0.5006040000000  0.5821280000000 1.0
C      1  0.5472220000000  0.5402060000000  0.5669060000000 1.0
C      1  0.5479350000000  0.5776260000000  0.4821990000000 1.0
C      1  0.5458180000000  0.5074300000000  0.4216130000000 1.0
C      1  0.5462230000000  0.4277090000000  0.4682720000000 1.0
C      1  0.5472350000000  0.4479100000000  0.5586990000000 1.0
C      1  0.4754000000000  0.5278510000000  0.4734390000000 1.0
C      1  0.4750980000000  0.4831780000000  0.4681670000000 1.0
C      1  0.4771480000000  0.4611470000000  0.5066920000000 1.0
C      1  0.4755220000000  0.4946600000000  0.5357920000000 1.0
C      1  0.4760510000000  0.5350700000000  0.5165090000000 1.0
C      1  0.4627610000000  0.5198100000000  0.5360580000000 1.0
C      1  0.4625610000000  0.5436420000000  0.4932030000000 1.0
C      1  0.4620850000000  0.5070000000000  0.4601990000000 1.0
C      1  0.4630050000000  0.4616650000000  0.4819710000000 1.0
C      1  0.4633980000000  0.4694350000000  0.5300380000000 1.0
C      1  0.5462060000000  0.4219230000000  0.5144540000000 1.0
C      1  0.5463550000000  0.4901780000000  0.5783360000000 1.0
C      1  0.5468790000000  0.5722090000000  0.5331790000000 1.0
C      1  0.5462330000000  0.5547440000000  0.4416360000000 1.0
C      1  0.5447760000000  0.4617370000000  0.4301420000000 1.0
C      1  0.4192630000000  0.4739640000000  0.5051300000000 1.0
END
