TITL C-123282-5707-2 0.12305422310256 125000 -290.221816316877 0 0 44 (C2) n - 1
REM
REM in /rds/project/t2_vol4/rds-t2-cs072/BORA/CARBON/from-Arr/AIRSS/Generating-Clusters/GAP-ML-2020/Higher-Symm/SD-CG/HFTN-CG
REM
REM
REM
REM
REM
REM ./C.cell (b20cbc046b6831c77cfcea5457e17084)
REM AIRSS Version 0.9.1 bugfix July 2018 build 013d7b7c2542+ Fri, 06 Jul 2018 19:26:36 +0100
REM compiler GCC version 9.3.0
REM options -cpp -mtune=generic -march=x86-64 -g -O0
REM seed 1689736373 361083741 -789532422 1475900018 -1571875885 -710167641 -1511950720 -898277213 -1132223083 1369264477 2138369524 -2093342093 -65134044 -1260385965 -1953344996 -764321045 -1144395209 2102233169 -205873210 -671392360 849839213 -284129766 -1577055346 230055194 1022916720 1705901805 -622989087 -871564873 904797222 452750584 -206144385 1746959420 510853516
REM
CELL 1.54180   50.00000   50.00000   50.00000   90.00000   90.00000   90.00000
LATT -1
SFAC C  
C      1  0.5279050000000  0.4381740000000  0.4860960000000 1.0
C      1  0.4721040000000  0.5618370000000  0.4861250000000 1.0
C      1  0.5212620000000  0.4931880000000  0.5363500000000 1.0
C      1  0.4787160000000  0.5067850000000  0.5363420000000 1.0
C      1  0.5549700000000  0.4769110000000  0.4701430000000 1.0
C      1  0.4450480000000  0.5231120000000  0.4701260000000 1.0
C      1  0.4986600000000  0.5706900000000  0.4817430000000 1.0
C      1  0.5013520000000  0.4293240000000  0.4816900000000 1.0
C      1  0.5135880000000  0.5444680000000  0.5417510000000 1.0
C      1  0.4863860000000  0.4555000000000  0.5417080000000 1.0
C      1  0.4680640000000  0.4831070000000  0.4608130000000 1.0
C      1  0.5319600000000  0.5169230000000  0.4608460000000 1.0
C      1  0.5129620000000  0.5528200000000  0.4975900000000 1.0
C      1  0.4870390000000  0.4471820000000  0.4975410000000 1.0
C      1  0.4979920000000  0.5583220000000  0.5233920000000 1.0
C      1  0.5019930000000  0.4416600000000  0.5233490000000 1.0
C      1  0.5284660000000  0.4482410000000  0.5142850000000 1.0
C      1  0.4715250000000  0.5517480000000  0.5143070000000 1.0
C      1  0.5016110000000  0.4753070000000  0.4923330000000 1.0
C      1  0.4983940000000  0.5246990000000  0.4923510000000 1.0
C      1  0.4517940000000  0.5016550000000  0.5485610000000 1.0
C      1  0.5481750000000  0.4983080000000  0.5485890000000 1.0
C      1  0.5566900000000  0.5223890000000  0.5461820000000 1.0
C      1  0.4432810000000  0.4775760000000  0.5461300000000 1.0
C      1  0.5270780000000  0.4783030000000  0.5093730000000 1.0
C      1  0.4729160000000  0.5216900000000  0.5093720000000 1.0
C      1  0.4977020000000  0.4846720000000  0.4652920000000 1.0
C      1  0.5023190000000  0.5153550000000  0.4653060000000 1.0
C      1  0.4585260000000  0.5074960000000  0.4492120000000 1.0
C      1  0.5415050000000  0.4925430000000  0.4492330000000 1.0
C      1  0.5397150000000  0.5415240000000  0.5034520000000 1.0
C      1  0.4602830000000  0.4584730000000  0.5033950000000 1.0
C      1  0.5418030000000  0.5407040000000  0.5314230000000 1.0
C      1  0.4581780000000  0.4592720000000  0.5313660000000 1.0
C      1  0.4502020000000  0.5084740000000  0.4944490000000 1.0
C      1  0.5498020000000  0.4915300000000  0.4944740000000 1.0
C      1  0.4798200000000  0.5282120000000  0.4499610000000 1.0
C      1  0.5202110000000  0.4718270000000  0.4499520000000 1.0
C      1  0.5041410000000  0.5189120000000  0.5445010000000 1.0
C      1  0.4958310000000  0.4810540000000  0.5444840000000 1.0
C      1  0.5455470000000  0.5191370000000  0.4868990000000 1.0
C      1  0.4544610000000  0.4808730000000  0.4868560000000 1.0
C      1  0.4628130000000  0.5456770000000  0.4663340000000 1.0
C      1  0.5372080000000  0.4543490000000  0.4663220000000 1.0
END
