TITL C-126559-4969-8 10.568452597433 125000 -771.943782875166 0 0 111 (C1) n - 1
REM
REM in /rds/project/t2_vol4/rds-t2-cs072/BORA/CARBON/from-Arr/AIRSS/Generating-Clusters/GAP-ML-2020/Higher-Symm/SD-CG/HFTN-CG
REM
REM
REM
REM
REM
REM ./C.cell (b20cbc046b6831c77cfcea5457e17084)
REM AIRSS Version 0.9.1 bugfix July 2018 build 013d7b7c2542+ Fri, 06 Jul 2018 19:26:36 +0100
REM compiler GCC version 9.3.0
REM options -cpp -mtune=generic -march=x86-64 -g -O0
REM seed -678139640 -1230955041 -840243317 -1554905788 1371374097 -1054863034 1369155868 980448519 -1508622480 2024171522 1363969801 110823313 106875886 -1850522405 223008993 1689184810 -704151336 -651593383 1509022286 1798734892 677915560 -1587052079 2126980510 205390047 -406214448 1759102103 753340198 1044588468 867487694 -691995133 -431540734 871801804 -710091504
REM
CELL 1.54180   50.00000   50.00000   50.00000   90.00000   90.00000   90.00000
LATT -1
SFAC C  
C      1  0.4655600000000  0.4441530000000  0.4299160000000 1.0
C      1  0.5388410000000  0.5261860000000  0.5049740000000 1.0
C      1  0.5076930000000  0.5512930000000  0.4106940000000 1.0
C      1  0.5832420000000  0.5409090000000  0.4881920000000 1.0
C      1  0.4549630000000  0.4898890000000  0.5789710000000 1.0
C      1  0.4635450000000  0.4356060000000  0.5360430000000 1.0
C      1  0.5277710000000  0.4165220000000  0.5144100000000 1.0
C      1  0.4495010000000  0.4656190000000  0.4411050000000 1.0
C      1  0.4892980000000  0.5200370000000  0.5028290000000 1.0
C      1  0.4195770000000  0.5138720000000  0.5276820000000 1.0
C      1  0.4665790000000  0.5307200000000  0.5617730000000 1.0
C      1  0.4666660000000  0.4226480000000  0.4710290000000 1.0
C      1  0.4518790000000  0.5040760000000  0.4663450000000 1.0
C      1  0.4831490000000  0.5081950000000  0.4049440000000 1.0
C      1  0.5718290000000  0.4902510000000  0.5248990000000 1.0
C      1  0.4240830000000  0.5343800000000  0.4804240000000 1.0
C      1  0.5541120000000  0.4768690000000  0.5665400000000 1.0
C      1  0.4622580000000  0.5116960000000  0.4237780000000 1.0
C      1  0.4274620000000  0.4676280000000  0.4609180000000 1.0
C      1  0.4467560000000  0.5317940000000  0.4380320000000 1.0
C      1  0.5121810000000  0.5275050000000  0.5205140000000 1.0
C      1  0.4247150000000  0.4630620000000  0.5171970000000 1.0
C      1  0.5618980000000  0.4436780000000  0.4566200000000 1.0
C      1  0.5833610000000  0.4658980000000  0.5139400000000 1.0
C      1  0.5349180000000  0.4775500000000  0.4869820000000 1.0
C      1  0.4804960000000  0.4521520000000  0.5516880000000 1.0
C      1  0.5484910000000  0.5487700000000  0.4620570000000 1.0
C      1  0.5097690000000  0.5052340000000  0.4590590000000 1.0
C      1  0.5314760000000  0.5088100000000  0.4093440000000 1.0
C      1  0.4646540000000  0.4899770000000  0.4449340000000 1.0
C      1  0.4737420000000  0.5649760000000  0.4964100000000 1.0
C      1  0.5067850000000  0.4506510000000  0.5631630000000 1.0
C      1  0.4659170000000  0.5370850000000  0.5106250000000 1.0
C      1  0.5076600000000  0.4727340000000  0.5821490000000 1.0
C      1  0.4192390000000  0.5253720000000  0.5739450000000 1.0
C      1  0.4940060000000  0.4810610000000  0.4044250000000 1.0
C      1  0.5544440000000  0.4270980000000  0.5070930000000 1.0
C      1  0.5230340000000  0.4808150000000  0.4086160000000 1.0
C      1  0.5461100000000  0.5673440000000  0.5422520000000 1.0
C      1  0.5181030000000  0.5886690000000  0.5031150000000 1.0
C      1  0.4732310000000  0.4808910000000  0.5374430000000 1.0
C      1  0.5668730000000  0.5461170000000  0.5379830000000 1.0
C      1  0.4554420000000  0.5537650000000  0.4551740000000 1.0
C      1  0.4869350000000  0.5679200000000  0.5412760000000 1.0
C      1  0.4829770000000  0.5571010000000  0.4676050000000 1.0
C      1  0.5329370000000  0.4861310000000  0.5834760000000 1.0
C      1  0.4931410000000  0.5773800000000  0.5149570000000 1.0
C      1  0.4223930000000  0.4869880000000  0.5345760000000 1.0
C      1  0.4842440000000  0.4116690000000  0.4906630000000 1.0
C      1  0.4156760000000  0.4919520000000  0.4530820000000 1.0
C      1  0.4836570000000  0.5043900000000  0.5526840000000 1.0
C      1  0.5207770000000  0.4537610000000  0.4217780000000 1.0
C      1  0.4128020000000  0.5329740000000  0.5479190000000 1.0
C      1  0.5665710000000  0.4450650000000  0.5255770000000 1.0
C      1  0.5408650000000  0.5504970000000  0.4346410000000 1.0
C      1  0.5643020000000  0.5253480000000  0.5578420000000 1.0
C      1  0.5354670000000  0.4406640000000  0.4429080000000 1.0
C      1  0.5684590000000  0.5395370000000  0.5106500000000 1.0
C      1  0.5431820000000  0.5337990000000  0.5755070000000 1.0
C      1  0.5688680000000  0.4972890000000  0.5523840000000 1.0
C      1  0.4774170000000  0.4907650000000  0.5052500000000 1.0
C      1  0.5070350000000  0.5248020000000  0.4040690000000 1.0
C      1  0.5308070000000  0.4286610000000  0.5602830000000 1.0
C      1  0.5107580000000  0.4428110000000  0.5148420000000 1.0
C      1  0.5024340000000  0.5610510000000  0.5652720000000 1.0
C      1  0.4904230000000  0.4847110000000  0.4583510000000 1.0
C      1  0.4788260000000  0.4331710000000  0.5111310000000 1.0
C      1  0.4500880000000  0.4952710000000  0.4935410000000 1.0
C      1  0.5220670000000  0.4878150000000  0.5293120000000 1.0
C      1  0.5431230000000  0.4947170000000  0.5098080000000 1.0
C      1  0.5776960000000  0.4675950000000  0.4630740000000 1.0
C      1  0.5170330000000  0.5915740000000  0.4747120000000 1.0
C      1  0.4881380000000  0.4699390000000  0.4832710000000 1.0
C      1  0.5493300000000  0.4516640000000  0.5495400000000 1.0
C      1  0.5102660000000  0.5097320000000  0.5416930000000 1.0
C      1  0.5122630000000  0.4093190000000  0.4875860000000 1.0
C      1  0.4387850000000  0.4666050000000  0.4905020000000 1.0
C      1  0.5248900000000  0.4310230000000  0.4705290000000 1.0
C      1  0.5310160000000  0.5581160000000  0.5651840000000 1.0
C      1  0.4270520000000  0.5170890000000  0.4564230000000 1.0
C      1  0.5296190000000  0.5378770000000  0.4805630000000 1.0
C      1  0.4618070000000  0.4203930000000  0.4442590000000 1.0
C      1  0.5147460000000  0.4563210000000  0.4888850000000 1.0
C      1  0.5506570000000  0.5249610000000  0.4237650000000 1.0
C      1  0.5749900000000  0.5381370000000  0.4627180000000 1.0
C      1  0.5285370000000  0.4085500000000  0.5424320000000 1.0
C      1  0.5169800000000  0.5657820000000  0.4313720000000 1.0
C      1  0.5900900000000  0.4650650000000  0.4875300000000 1.0
C      1  0.4141250000000  0.5585570000000  0.5359210000000 1.0
C      1  0.4883210000000  0.5410400000000  0.5792580000000 1.0
C      1  0.5207850000000  0.4602520000000  0.5368700000000 1.0
C      1  0.4905920000000  0.4552210000000  0.4169700000000 1.0
C      1  0.4447170000000  0.5166620000000  0.5776740000000 1.0
C      1  0.4351190000000  0.5594590000000  0.4753290000000 1.0
C      1  0.4633910000000  0.5504450000000  0.5386780000000 1.0
C      1  0.5634500000000  0.4915420000000  0.4529620000000 1.0
C      1  0.5712320000000  0.5163750000000  0.4424140000000 1.0
C      1  0.4445040000000  0.4776740000000  0.5516070000000 1.0
C      1  0.4454260000000  0.5722980000000  0.4988970000000 1.0
C      1  0.5276040000000  0.5140000000000  0.5885970000000 1.0
C      1  0.5379070000000  0.5840840000000  0.5222570000000 1.0
C      1  0.4652990000000  0.4492070000000  0.4878140000000 1.0
C      1  0.5044930000000  0.5771310000000  0.4556800000000 1.0
C      1  0.5360270000000  0.4918480000000  0.4627630000000 1.0
C      1  0.4376980000000  0.5655390000000  0.5255460000000 1.0
C      1  0.4392250000000  0.4500950000000  0.5378620000000 1.0
C      1  0.4373740000000  0.5210930000000  0.5045330000000 1.0
C      1  0.5538040000000  0.4286740000000  0.4794150000000 1.0
C      1  0.5016500000000  0.5296250000000  0.4744130000000 1.0
C      1  0.4859220000000  0.4932450000000  0.5815990000000 1.0
C      1  0.4998960000000  0.5183940000000  0.5912900000000 1.0
END
