TITL C-123181-8024-8 -130.68715564441 125000 -178.888205366593 0 0 27 (Cs) n - 1
REM
REM in /rds/project/t2_vol4/rds-t2-cs072/BORA/CARBON/from-Arr/AIRSS/Generating-Clusters/GAP-ML-2020/Higher-Symm/SD-CG/HFTN-CG
REM
REM
REM
REM
REM
REM ./C.cell (b20cbc046b6831c77cfcea5457e17084)
REM AIRSS Version 0.9.1 bugfix July 2018 build 013d7b7c2542+ Fri, 06 Jul 2018 19:26:36 +0100
REM compiler GCC version 9.3.0
REM options -cpp -mtune=generic -march=x86-64 -g -O0
REM seed 271666868 1992733998 -382631730 1829370405 1842879686 -985272895 543970863 -57947072 251476686 -2024641734 837329221 96885849 1180494780 -1835600034 785385515 -1836441420 1854441268 -147749658 -1978980248 927665655 1006819834 -518247739 -1497987404 -520286361 -1498070602 -1271167572 2071203822 2116624021 43374473 111336081 1329446992 -376461406 1535041648
REM
CELL 1.54180   50.00000   50.00000   50.00000   90.00000   90.00000   90.00000
LATT -1
SFAC C  
C      1  0.4649340000000  0.4848270000000  0.5223600000000 1.0
C      1  0.4868020000000  0.4848540000000  0.5394530000000 1.0
C      1  0.5144620000000  0.4863240000000  0.5372180000000 1.0
C      1  0.5348130000000  0.4868780000000  0.5182630000000 1.0
C      1  0.5398440000000  0.4855550000000  0.4909430000000 1.0
C      1  0.5258080000000  0.4846490000000  0.4670030000000 1.0
C      1  0.4991860000000  0.4854950000000  0.4591620000000 1.0
C      1  0.4738900000000  0.4867930000000  0.4706460000000 1.0
C      1  0.4604190000000  0.4862540000000  0.4949770000000 1.0
C      1  0.5643420000000  0.5020800000000  0.4857790000000 1.0
C      1  0.5412370000000  0.5010390000000  0.4472330000000 1.0
C      1  0.4982500000000  0.5019830000000  0.4341200000000 1.0
C      1  0.4571680000000  0.5035150000000  0.4521100000000 1.0
C      1  0.4356370000000  0.5028460000000  0.4914490000000 1.0
C      1  0.4436280000000  0.5012110000000  0.5356160000000 1.0
C      1  0.4790570000000  0.5012560000000  0.5633090000000 1.0
C      1  0.5238450000000  0.5029630000000  0.5603910000000 1.0
C      1  0.5568110000000  0.5036540000000  0.5299890000000 1.0
C      1  0.5640080000000  0.5112240000000  0.4595340000000 1.0
C      1  0.5237810000000  0.5111660000000  0.4280930000000 1.0
C      1  0.4727290000000  0.5124660000000  0.4309670000000 1.0
C      1  0.4348500000000  0.5129250000000  0.4656130000000 1.0
C      1  0.4267160000000  0.5116900000000  0.5162060000000 1.0
C      1  0.4531850000000  0.5108740000000  0.5598840000000 1.0
C      1  0.5019610000000  0.5117900000000  0.5750170000000 1.0
C      1  0.5490860000000  0.5130800000000  0.5548970000000 1.0
C      1  0.5735510000000  0.5126090000000  0.5097680000000 1.0
END
