TITL C-122883-6442-2 8.22699477138332 125000 -439.196998033358 0 0 63 (C1) n - 1
REM
REM in /rds/project/t2_vol4/rds-t2-cs072/BORA/CARBON/from-Arr/AIRSS/Generating-Clusters/GAP-ML-2020/Higher-Symm/SD-CG/HFTN-CG
REM
REM
REM
REM
REM
REM ./C.cell (b20cbc046b6831c77cfcea5457e17084)
REM AIRSS Version 0.9.1 bugfix July 2018 build 013d7b7c2542+ Fri, 06 Jul 2018 19:26:36 +0100
REM compiler GCC version 9.3.0
REM options -cpp -mtune=generic -march=x86-64 -g -O0
REM seed -1584786525 1305744144 803569259 -864678567 -1337443354 1569913361 -2060961644 1130313024 -1357196527 -1566230890 -653172368 -1664504915 1946998428 -1517400095 835439052 -1436665920 1115509439 1070044175 2087058733 18548073 2085189659 -1461562353 274846948 1629216880 -705032269 -897533312 -1971654540 1420016733 574007152 -1310224099 1480076204 958600816 -935215948
REM
CELL 1.54180   50.00000   50.00000   50.00000   90.00000   90.00000   90.00000
LATT -1
SFAC C  
C      1  0.5161220000000  0.4580030000000  0.4435460000000 1.0
C      1  0.5509300000000  0.4490240000000  0.5181310000000 1.0
C      1  0.5077870000000  0.4453040000000  0.5527250000000 1.0
C      1  0.4774040000000  0.4371300000000  0.5110020000000 1.0
C      1  0.4752340000000  0.4500480000000  0.4650880000000 1.0
C      1  0.4475610000000  0.4765120000000  0.4979180000000 1.0
C      1  0.4959730000000  0.4750150000000  0.4322300000000 1.0
C      1  0.5536590000000  0.4703560000000  0.4735620000000 1.0
C      1  0.5488690000000  0.4715560000000  0.5529640000000 1.0
C      1  0.4748650000000  0.4694100000000  0.5506780000000 1.0
C      1  0.5114200000000  0.5674030000000  0.4614070000000 1.0
C      1  0.5388410000000  0.5647860000000  0.4995090000000 1.0
C      1  0.5134180000000  0.5601750000000  0.5428130000000 1.0
C      1  0.4684040000000  0.5686310000000  0.5202640000000 1.0
C      1  0.4611510000000  0.5631680000000  0.4679190000000 1.0
C      1  0.4924060000000  0.5147920000000  0.5566010000000 1.0
C      1  0.4458590000000  0.5224910000000  0.5113560000000 1.0
C      1  0.4650050000000  0.5199570000000  0.4438060000000 1.0
C      1  0.5376010000000  0.5250710000000  0.4533860000000 1.0
C      1  0.5553580000000  0.5210010000000  0.5242090000000 1.0
C      1  0.5148450000000  0.5335700000000  0.5509790000000 1.0
C      1  0.4581740000000  0.5429260000000  0.5286690000000 1.0
C      1  0.4516670000000  0.5372570000000  0.4625140000000 1.0
C      1  0.5133460000000  0.5415210000000  0.4488410000000 1.0
C      1  0.5503200000000  0.5379250000000  0.5012950000000 1.0
C      1  0.5662060000000  0.4963140000000  0.5135420000000 1.0
C      1  0.5086800000000  0.4919770000000  0.5711500000000 1.0
C      1  0.4305560000000  0.5040970000000  0.5316270000000 1.0
C      1  0.4549800000000  0.4929840000000  0.4497590000000 1.0
C      1  0.5334660000000  0.5002280000000  0.4397360000000 1.0
C      1  0.5035180000000  0.4417570000000  0.4627960000000 1.0
C      1  0.5450990000000  0.4479560000000  0.4907250000000 1.0
C      1  0.5347210000000  0.4470550000000  0.5438350000000 1.0
C      1  0.4820920000000  0.4445650000000  0.5374960000000 1.0
C      1  0.4624840000000  0.4513650000000  0.4906030000000 1.0
C      1  0.4409620000000  0.5111430000000  0.5561770000000 1.0
C      1  0.4401570000000  0.4940570000000  0.4739080000000 1.0
C      1  0.5065820000000  0.5007500000000  0.4292080000000 1.0
C      1  0.5625450000000  0.4953480000000  0.4850810000000 1.0
C      1  0.5356590000000  0.4943840000000  0.5623220000000 1.0
C      1  0.5391300000000  0.5191390000000  0.5478590000000 1.0
C      1  0.4645110000000  0.5264390000000  0.5527810000000 1.0
C      1  0.4385790000000  0.5213780000000  0.4823130000000 1.0
C      1  0.4927100000000  0.5245580000000  0.4364610000000 1.0
C      1  0.5529450000000  0.5218670000000  0.4775000000000 1.0
C      1  0.5091890000000  0.4900600000000  0.4961080000000 1.0
C      1  0.5100630000000  0.4830630000000  0.5218960000000 1.0
C      1  0.4835340000000  0.4930880000000  0.5343160000000 1.0
C      1  0.4670300000000  0.4997830000000  0.5100670000000 1.0
C      1  0.4908510000000  0.5096480000000  0.4913190000000 1.0
C      1  0.4295780000000  0.4792470000000  0.5209580000000 1.0
C      1  0.4709040000000  0.4702980000000  0.4446740000000 1.0
C      1  0.5395380000000  0.4739270000000  0.4491530000000 1.0
C      1  0.5638830000000  0.4731640000000  0.5284850000000 1.0
C      1  0.4976590000000  0.4669120000000  0.5691150000000 1.0
C      1  0.4947790000000  0.5759660000000  0.5296140000000 1.0
C      1  0.4669370000000  0.5753090000000  0.4923960000000 1.0
C      1  0.4855560000000  0.5769970000000  0.4708050000000 1.0
C      1  0.5342530000000  0.5752840000000  0.4747520000000 1.0
C      1  0.5212890000000  0.5750930000000  0.5202870000000 1.0
C      1  0.5194830000000  0.4344520000000  0.4849860000000 1.0
C      1  0.5022610000000  0.4269770000000  0.5043740000000 1.0
C      1  0.4984320000000  0.5349560000000  0.4961580000000 1.0
END
