TITL C-121824-5053-8 0.000862569419496158 125000 -21.1237922406696 0 0 4 (C2v) n - 1
REM
REM in /rds/project/t2_vol4/rds-t2-cs072/BORA/CARBON/from-Arr/AIRSS/Generating-Clusters/GAP-ML-2020/Higher-Symm/SD-CG/HFTN-CG
REM
REM
REM
REM
REM
REM ./C.cell (b20cbc046b6831c77cfcea5457e17084)
REM AIRSS Version 0.9.1 bugfix July 2018 build 013d7b7c2542+ Fri, 06 Jul 2018 19:26:36 +0100
REM compiler GCC version 9.3.0
REM options -cpp -mtune=generic -march=x86-64 -g -O0
REM seed 1484576478 1999369311 684619157 -170650372 745229559 -1734760608 -1731564724 -273755393 -772712775 -633799771 1435837733 1119186330 2065612378 -42306923 16266794 789767901 778434163 -2118925531 1856255333 -2137373252 2026397164 957841067 1572809791 125999544 718664862 -1561839144 -1008180025 1801888651 -1583133069 -448711995 1798258046 -445977784 -1256306371
REM
CELL 1.54180   50.00000   50.00000   50.00000   90.00000   90.00000   90.00000
LATT -1
SFAC C  
C      1  0.4963250000000  0.4813390000000  0.5181480000000 1.0
C      1  0.4932630000000  0.5245330000000  0.4857300000000 1.0
C      1  0.4978890000000  0.4714210000000  0.4948840000000 1.0
C      1  0.4951950000000  0.5003210000000  0.4961810000000 1.0
END
