TITL C-126561-5126-9 -3.85480999604766 125000 -458.590327441827 0 0 72 (D3) n - 1
REM
REM in /rds/project/t2_vol4/rds-t2-cs072/BORA/CARBON/from-Arr/AIRSS/Generating-Clusters/GAP-ML-2020/Higher-Symm/SD-CG/HFTN-CG
REM
REM
REM
REM
REM
REM ./C.cell (b20cbc046b6831c77cfcea5457e17084)
REM AIRSS Version 0.9.1 bugfix July 2018 build 013d7b7c2542+ Fri, 06 Jul 2018 19:26:36 +0100
REM compiler GCC version 9.3.0
REM options -cpp -mtune=generic -march=x86-64 -g -O0
REM seed 439527872 1852387837 -1946594430 -1781108779 2139353599 1659401698 824368319 485477625 -2118530998 1550079768 -1294493444 1547134710 -1080546222 -154250152 -116931680 1880312619 1093983614 722711544 -1349382356 -470633653 151974398 -2051253549 -2030849082 1065084324 52506842 335137277 -671386362 -45957435 766614941 78062269 -1360898413 -646975473 -954359277
REM
CELL 1.54180   50.00000   50.00000   50.00000   90.00000   90.00000   90.00000
LATT -1
SFAC C  
C      1  0.5435850000000  0.5526720000000  0.5172240000000 1.0
C      1  0.5435850000000  0.4587480000000  0.5370040000000 1.0
C      1  0.5435860000000  0.4885800000000  0.4457730000000 1.0
C      1  0.4564150000000  0.4473280000000  0.5172230000000 1.0
C      1  0.4564140000000  0.5412520000000  0.5370030000000 1.0
C      1  0.4564150000000  0.5114200000000  0.4457720000000 1.0
C      1  0.5113820000000  0.4918470000000  0.5680850000000 1.0
C      1  0.5113840000000  0.4451130000000  0.4588970000000 1.0
C      1  0.5113830000000  0.5630400000000  0.4730180000000 1.0
C      1  0.4886160000000  0.5081530000000  0.5680850000000 1.0
C      1  0.4886170000000  0.5548870000000  0.4588970000000 1.0
C      1  0.4886180000000  0.4369600000000  0.4730180000000 1.0
C      1  0.5220700000000  0.4713890000000  0.4958780000000 1.0
C      1  0.5220700000000  0.5178760000000  0.4772840000000 1.0
C      1  0.5220700000000  0.5107350000000  0.5268390000000 1.0
C      1  0.4779300000000  0.5286110000000  0.4958770000000 1.0
C      1  0.4779300000000  0.4821240000000  0.4772830000000 1.0
C      1  0.4779300000000  0.4892650000000  0.5268390000000 1.0
C      1  0.4503980000000  0.4706870000000  0.4683290000000 1.0
C      1  0.4503970000000  0.5420840000000  0.4904490000000 1.0
C      1  0.4503970000000  0.4872280000000  0.5412210000000 1.0
C      1  0.5496030000000  0.5293130000000  0.4683300000000 1.0
C      1  0.5496030000000  0.4579160000000  0.4904500000000 1.0
C      1  0.5496020000000  0.5127720000000  0.5412220000000 1.0
C      1  0.5666490000000  0.4846740000000  0.4952750000000 1.0
C      1  0.5666490000000  0.5117560000000  0.4890900000000 1.0
C      1  0.5666490000000  0.5035710000000  0.5156370000000 1.0
C      1  0.4333510000000  0.5153260000000  0.4952740000000 1.0
C      1  0.4333510000000  0.4882440000000  0.4890890000000 1.0
C      1  0.4333510000000  0.4964290000000  0.5156350000000 1.0
C      1  0.5140740000000  0.5738660000000  0.5454330000000 1.0
C      1  0.5140750000000  0.4237210000000  0.5412530000000 1.0
C      1  0.5140760000000  0.5024130000000  0.4133140000000 1.0
C      1  0.4859250000000  0.4261340000000  0.5454330000000 1.0
C      1  0.4859240000000  0.5762790000000  0.5412530000000 1.0
C      1  0.4859260000000  0.4975870000000  0.4133140000000 1.0
C      1  0.5304040000000  0.4420210000000  0.5543700000000 1.0
C      1  0.5304050000000  0.4819040000000  0.4226040000000 1.0
C      1  0.5304030000000  0.5760760000000  0.5230270000000 1.0
C      1  0.4695950000000  0.5579790000000  0.5543700000000 1.0
C      1  0.4695970000000  0.5180960000000  0.4226030000000 1.0
C      1  0.4695960000000  0.4239240000000  0.5230260000000 1.0
C      1  0.5378260000000  0.4453950000000  0.4658660000000 1.0
C      1  0.5378250000000  0.5568640000000  0.4697780000000 1.0
C      1  0.5378250000000  0.4977410000000  0.5643570000000 1.0
C      1  0.4621750000000  0.5546050000000  0.4658650000000 1.0
C      1  0.4621750000000  0.4431360000000  0.4697770000000 1.0
C      1  0.4621740000000  0.5022590000000  0.5643570000000 1.0
C      1  0.4795460000000  0.4529100000000  0.5537980000000 1.0
C      1  0.4795470000000  0.4769540000000  0.4323200000000 1.0
C      1  0.4795460000000  0.5701350000000  0.5138820000000 1.0
C      1  0.5204530000000  0.5470900000000  0.5537980000000 1.0
C      1  0.5204540000000  0.5230460000000  0.4323200000000 1.0
C      1  0.5204540000000  0.4298650000000  0.5138820000000 1.0
C      1  0.4985230000000  0.4758130000000  0.5445730000000 1.0
C      1  0.4985240000000  0.4734920000000  0.4567670000000 1.0
C      1  0.4985230000000  0.5506950000000  0.4986590000000 1.0
C      1  0.5014760000000  0.5241870000000  0.5445730000000 1.0
C      1  0.5014770000000  0.5265080000000  0.4567670000000 1.0
C      1  0.5014770000000  0.4493050000000  0.4986590000000 1.0
C      1  0.4780870000000  0.5194360000000  0.5242230000000 1.0
C      1  0.4780880000000  0.4693040000000  0.5047200000000 1.0
C      1  0.4780880000000  0.5112600000000  0.4710560000000 1.0
C      1  0.5219120000000  0.4805640000000  0.5242230000000 1.0
C      1  0.5219120000000  0.5306960000000  0.5047210000000 1.0
C      1  0.5219130000000  0.4887400000000  0.4710570000000 1.0
C      1  0.5470990000000  0.4415190000000  0.5134430000000 1.0
C      1  0.5470990000000  0.5175990000000  0.4426330000000 1.0
C      1  0.5470980000000  0.5408830000000  0.5439260000000 1.0
C      1  0.4529010000000  0.5584810000000  0.5134420000000 1.0
C      1  0.4529020000000  0.4824010000000  0.4426320000000 1.0
C      1  0.4529020000000  0.4591170000000  0.5439250000000 1.0
END
