TITL C-126804-9230-4 -755.79846677319 125000 -939.334587302249 0 0 131 (C3) n - 1
REM
REM in /rds/project/t2_vol4/rds-t2-cs072/BORA/CARBON/from-Arr/AIRSS/Generating-Clusters/GAP-ML-2020/Higher-Symm/SD-CG/HFTN-CG
REM
REM
REM
REM
REM
REM ./C.cell (b20cbc046b6831c77cfcea5457e17084)
REM AIRSS Version 0.9.1 bugfix July 2018 build 013d7b7c2542+ Fri, 06 Jul 2018 19:26:36 +0100
REM compiler GCC version 9.3.0
REM options -cpp -mtune=generic -march=x86-64 -g -O0
REM seed 993251 -1379600249 -1059396434 -354820907 -228119139 1960897656 1760718030 -1731462166 -268846915 1411250785 182554519 1844065713 -321431032 1739110320 449211712 1782967193 308756851 794244771 486777192 1051375767 -292321418 -112682864 -290082560 1084893143 368954999 -458890628 1624573169 1847415519 -1848176760 -1033093775 -45704851 1342941440 -178803072
REM
CELL 1.54180   50.00000   50.00000   50.00000   90.00000   90.00000   90.00000
LATT -1
SFAC C  
C      1  0.4967760000000  0.5252010000000  0.4713080000000 1.0
C      1  0.5236300000000  0.4906710000000  0.4713370000000 1.0
C      1  0.4803010000000  0.4846800000000  0.4709000000000 1.0
C      1  0.4958800000000  0.5246860000000  0.5305440000000 1.0
C      1  0.5231380000000  0.4906700000000  0.5305800000000 1.0
C      1  0.4800520000000  0.4840730000000  0.5301410000000 1.0
C      1  0.5702030000000  0.4818120000000  0.4540710000000 1.0
C      1  0.4494920000000  0.4490840000000  0.4527520000000 1.0
C      1  0.4814990000000  0.5699910000000  0.4538110000000 1.0
C      1  0.5688860000000  0.4839970000000  0.5492290000000 1.0
C      1  0.4512490000000  0.4474710000000  0.5479140000000 1.0
C      1  0.4784300000000  0.5676140000000  0.5489240000000 1.0
C      1  0.5127480000000  0.4193710000000  0.4498080000000 1.0
C      1  0.4241710000000  0.5301250000000  0.4496920000000 1.0
C      1  0.5643680000000  0.5514540000000  0.4511190000000 1.0
C      1  0.5142480000000  0.4190180000000  0.5507230000000 1.0
C      1  0.4222730000000  0.5272400000000  0.5505600000000 1.0
C      1  0.5619770000000  0.5527780000000  0.5520080000000 1.0
C      1  0.5303680000000  0.5398590000000  0.5930600000000 1.0
C      1  0.5185180000000  0.4521290000000  0.5923960000000 1.0
C      1  0.4484680000000  0.5062620000000  0.5920930000000 1.0
C      1  0.5332400000000  0.5403080000000  0.4092980000000 1.0
C      1  0.5190030000000  0.4526280000000  0.4086130000000 1.0
C      1  0.4501900000000  0.5088010000000  0.4083340000000 1.0
C      1  0.4515460000000  0.5367620000000  0.4145410000000 1.0
C      1  0.5567250000000  0.5250470000000  0.4154360000000 1.0
C      1  0.4939950000000  0.4398140000000  0.4143190000000 1.0
C      1  0.4488870000000  0.5342280000000  0.5866460000000 1.0
C      1  0.5544240000000  0.5256100000000  0.5875640000000 1.0
C      1  0.4941980000000  0.4385190000000  0.5864590000000 1.0
C      1  0.5188330000000  0.5596000000000  0.5757770000000 1.0
C      1  0.5415240000000  0.4525500000000  0.5753090000000 1.0
C      1  0.4374740000000  0.4864290000000  0.5745650000000 1.0
C      1  0.5218290000000  0.5602740000000  0.4265210000000 1.0
C      1  0.5418560000000  0.4522250000000  0.4260230000000 1.0
C      1  0.4382720000000  0.4889110000000  0.4253000000000 1.0
C      1  0.4938560000000  0.4157270000000  0.5703160000000 1.0
C      1  0.4294530000000  0.5462010000000  0.5705480000000 1.0
C      1  0.5746420000000  0.5367330000000  0.5718260000000 1.0
C      1  0.4919320000000  0.4170330000000  0.4304680000000 1.0
C      1  0.4327130000000  0.5496560000000  0.4307610000000 1.0
C      1  0.5771710000000  0.5346240000000  0.4319960000000 1.0
C      1  0.5233780000000  0.5653170000000  0.5260400000000 1.0
C      1  0.5446190000000  0.4466250000000  0.5254850000000 1.0
C      1  0.4312110000000  0.4875810000000  0.5246990000000 1.0
C      1  0.5254880000000  0.5645560000000  0.4757980000000 1.0
C      1  0.5433240000000  0.4460550000000  0.4752130000000 1.0
C      1  0.4317850000000  0.4898650000000  0.4744630000000 1.0
C      1  0.5153920000000  0.4444880000000  0.4859300000000 1.0
C      1  0.4443000000000  0.5146470000000  0.4857190000000 1.0
C      1  0.5406010000000  0.5411330000000  0.4867730000000 1.0
C      1  0.5161140000000  0.4445610000000  0.5150910000000 1.0
C      1  0.4437590000000  0.5134770000000  0.5148600000000 1.0
C      1  0.5396140000000  0.5416780000000  0.5159220000000 1.0
C      1  0.4978170000000  0.5545040000000  0.4704060000000 1.0
C      1  0.5484950000000  0.4751350000000  0.4703710000000 1.0
C      1  0.4544250000000  0.4709340000000  0.4694770000000 1.0
C      1  0.4960420000000  0.5542700000000  0.5316700000000 1.0
C      1  0.5486690000000  0.4757200000000  0.5316580000000 1.0
C      1  0.4543330000000  0.4694210000000  0.5307490000000 1.0
C      1  0.5381980000000  0.4351700000000  0.5526810000000 1.0
C      1  0.4242730000000  0.4983930000000  0.5520310000000 1.0
C      1  0.5359820000000  0.5654430000000  0.5534850000000 1.0
C      1  0.5374130000000  0.4345030000000  0.4481180000000 1.0
C      1  0.4249600000000  0.5012320000000  0.4475040000000 1.0
C      1  0.5389690000000  0.5652530000000  0.4489600000000 1.0
C      1  0.5829830000000  0.5202690000000  0.5163110000000 1.0
C      1  0.4758910000000  0.4177050000000  0.5146760000000 1.0
C      1  0.4406100000000  0.5617390000000  0.5152610000000 1.0
C      1  0.5837580000000  0.5196940000000  0.4877140000000 1.0
C      1  0.4752440000000  0.4178210000000  0.4860700000000 1.0
C      1  0.4412730000000  0.5627410000000  0.4866740000000 1.0
C      1  0.4748450000000  0.5450550000000  0.5923800000000 1.0
C      1  0.5507770000000  0.4976210000000  0.5927800000000 1.0
C      1  0.4717370000000  0.4555790000000  0.5917860000000 1.0
C      1  0.4779500000000  0.5468770000000  0.4097270000000 1.0
C      1  0.5523270000000  0.4972100000000  0.4100980000000 1.0
C      1  0.4721310000000  0.4576320000000  0.4091090000000 1.0
C      1  0.4690020000000  0.4071890000000  0.5607310000000 1.0
C      1  0.4345620000000  0.5721570000000  0.5614570000000 1.0
C      1  0.5946440000000  0.5194910000000  0.5625980000000 1.0
C      1  0.4668080000000  0.4095230000000  0.4399990000000 1.0
C      1  0.4386880000000  0.5749980000000  0.4407860000000 1.0
C      1  0.5960490000000  0.5166060000000  0.4418670000000 1.0
C      1  0.5031340000000  0.4211810000000  0.5249000000000 1.0
C      1  0.4299180000000  0.5362330000000  0.5249530000000 1.0
C      1  0.5661580000000  0.5421100000000  0.5262450000000 1.0
C      1  0.5019830000000  0.4215210000000  0.4756830000000 1.0
C      1  0.4311980000000  0.5379190000000  0.4757670000000 1.0
C      1  0.5673880000000  0.5410170000000  0.4770410000000 1.0
C      1  0.5579010000000  0.4766700000000  0.5749290000000 1.0
C      1  0.4501800000000  0.4601970000000  0.5738320000000 1.0
C      1  0.4897690000000  0.5617250000000  0.5748390000000 1.0
C      1  0.5588560000000  0.4758890000000  0.4277420000000 1.0
C      1  0.4502540000000  0.4623300000000  0.4266560000000 1.0
C      1  0.4928080000000  0.5631650000000  0.4276860000000 1.0
C      1  0.3998180000000  0.4331130000000  0.4789650000000 1.0
C      1  0.4922790000000  0.6205290000000  0.4810020000000 1.0
C      1  0.6083570000000  0.4467360000000  0.4809720000000 1.0
C      1  0.4045190000000  0.4543340000000  0.4921450000000 1.0
C      1  0.5081980000000  0.6056200000000  0.4940570000000 1.0
C      1  0.5873780000000  0.4401780000000  0.4937400000000 1.0
C      1  0.5289460000000  0.4970480000000  0.3934640000000 1.0
C      1  0.4838160000000  0.4782490000000  0.3929290000000 1.0
C      1  0.4900990000000  0.5267340000000  0.3932930000000 1.0
C      1  0.5270570000000  0.4965450000000  0.6087590000000 1.0
C      1  0.4825300000000  0.4763770000000  0.6082220000000 1.0
C      1  0.4873250000000  0.5250250000000  0.6085730000000 1.0
C      1  0.5123430000000  0.4751560000000  0.3929290000000 1.0
C      1  0.4731600000000  0.5035790000000  0.3927470000000 1.0
C      1  0.5173650000000  0.5233010000000  0.3932790000000 1.0
C      1  0.5111420000000  0.4741440000000  0.6084860000000 1.0
C      1  0.4710860000000  0.5013620000000  0.6082890000000 1.0
C      1  0.5146830000000  0.5224410000000  0.6088240000000 1.0
C      1  0.4743520000000  0.5102810000000  0.5157830000000 1.0
C      1  0.5215470000000  0.5167690000000  0.5162590000000 1.0
C      1  0.5035700000000  0.4726520000000  0.5158140000000 1.0
C      1  0.4747530000000  0.5109000000000  0.4856450000000 1.0
C      1  0.5221330000000  0.5166390000000  0.4861170000000 1.0
C      1  0.5034160000000  0.4727360000000  0.4856670000000 1.0
C      1  0.4547080000000  0.5759740000000  0.4632290000000 1.0
C      1  0.5886990000000  0.5018540000000  0.4639950000000 1.0
C      1  0.4575220000000  0.4228760000000  0.4622870000000 1.0
C      1  0.4519720000000  0.5731630000000  0.5399890000000 1.0
C      1  0.5869920000000  0.5042880000000  0.5407980000000 1.0
C      1  0.4598420000000  0.4217960000000  0.5391050000000 1.0
C      1  0.5609430000000  0.4392510000000  0.4996080000000 1.0
C      1  0.4168810000000  0.4775860000000  0.4985230000000 1.0
C      1  0.5221030000000  0.5831800000000  0.5001600000000 1.0
C      1  0.5004110000000  0.5003040000000  0.4521710000000 1.0
C      1  0.4995150000000  0.4996890000000  0.5494110000000 1.0
END
