TITL C-127731-1851-1 -0.319516692366599 125000 -397.65709227238 0 0 59 (C3h) n - 1
REM
REM in /rds/project/t2_vol4/rds-t2-cs072/BORA/CARBON/from-Arr/AIRSS/Generating-Clusters/GAP-ML-2020/Higher-Symm/SD-CG/HFTN-CG
REM
REM
REM
REM
REM
REM ./C.cell (b20cbc046b6831c77cfcea5457e17084)
REM AIRSS Version 0.9.1 bugfix July 2018 build 013d7b7c2542+ Fri, 06 Jul 2018 19:26:36 +0100
REM compiler GCC version 9.3.0
REM options -cpp -mtune=generic -march=x86-64 -g -O0
REM seed 1634306194 423682508 -1341456417 -1589495194 255657574 1101922937 -119357978 1442391083 -367757421 265522256 -1658673412 670805035 -1324777058 17438216 1529687462 199833048 -609342730 -1130951847 -1239540541 -272477658 68954351 664913717 1804378746 -815086513 1730395722 -748257805 -240650094 -1454071890 661893667 556316845 -325840765 -628343692 -1225801448
REM
CELL 1.54180   50.00000   50.00000   50.00000   90.00000   90.00000   90.00000
LATT -1
SFAC C  
C      1  0.5251120000000  0.5150820000000  0.4491660000000 1.0
C      1  0.5321510000000  0.5149740000000  0.5467860000000 1.0
C      1  0.4440890000000  0.5150120000000  0.5040710000000 1.0
C      1  0.5251150000000  0.4870190000000  0.4491340000000 1.0
C      1  0.5321540000000  0.4869100000000  0.5467550000000 1.0
C      1  0.4440920000000  0.4869480000000  0.5040400000000 1.0
C      1  0.4349290000000  0.4457050000000  0.4819410000000 1.0
C      1  0.5488020000000  0.4457500000000  0.4521750000000 1.0
C      1  0.5176440000000  0.4456200000000  0.5656750000000 1.0
C      1  0.4349170000000  0.5563030000000  0.4820650000000 1.0
C      1  0.5487900000000  0.5563490000000  0.4522980000000 1.0
C      1  0.5176320000000  0.5562190000000  0.5657990000000 1.0
C      1  0.5136460000000  0.5284160000000  0.5644060000000 1.0
C      1  0.4380940000000  0.5285030000000  0.4792600000000 1.0
C      1  0.5496080000000  0.5285410000000  0.4564030000000 1.0
C      1  0.5136520000000  0.4734240000000  0.5643450000000 1.0
C      1  0.4381000000000  0.4735110000000  0.4791980000000 1.0
C      1  0.5496150000000  0.4735490000000  0.4563410000000 1.0
C      1  0.4882590000000  0.4857990000000  0.5127920000000 1.0
C      1  0.4954520000000  0.4858330000000  0.4830060000000 1.0
C      1  0.5176510000000  0.4858120000000  0.5041280000000 1.0
C      1  0.4882560000000  0.5161520000000  0.5128260000000 1.0
C      1  0.4954480000000  0.5161860000000  0.4830390000000 1.0
C      1  0.5176480000000  0.5161640000000  0.5041620000000 1.0
C      1  0.4649560000000  0.5316810000000  0.5218600000000 1.0
C      1  0.4992870000000  0.5317560000000  0.4583720000000 1.0
C      1  0.5371030000000  0.5316910000000  0.5198470000000 1.0
C      1  0.4649630000000  0.4702440000000  0.5217910000000 1.0
C      1  0.4992940000000  0.4703190000000  0.4583040000000 1.0
C      1  0.5371100000000  0.4702540000000  0.5197790000000 1.0
C      1  0.4498630000000  0.4870520000000  0.4561390000000 1.0
C      1  0.5637140000000  0.4870400000000  0.4780830000000 1.0
C      1  0.4877840000000  0.4869340000000  0.5657080000000 1.0
C      1  0.4498600000000  0.5150160000000  0.4561700000000 1.0
C      1  0.5637110000000  0.5150040000000  0.4781140000000 1.0
C      1  0.4877810000000  0.5148980000000  0.5657400000000 1.0
C      1  0.5067310000000  0.4416640000000  0.4710800000000 1.0
C      1  0.5223040000000  0.4416110000000  0.5197800000000 1.0
C      1  0.4723420000000  0.4416180000000  0.5089170000000 1.0
C      1  0.5067180000000  0.5603840000000  0.4712130000000 1.0
C      1  0.5222910000000  0.5603310000000  0.5199130000000 1.0
C      1  0.4723290000000  0.5603380000000  0.5090500000000 1.0
C      1  0.5213590000000  0.4304240000000  0.5451930000000 1.0
C      1  0.4507970000000  0.4304720000000  0.4953720000000 1.0
C      1  0.5292240000000  0.4305210000000  0.4591750000000 1.0
C      1  0.5213430000000  0.5714610000000  0.5453510000000 1.0
C      1  0.4507820000000  0.5715090000000  0.4955300000000 1.0
C      1  0.5292080000000  0.5715580000000  0.4593320000000 1.0
C      1  0.4753500000000  0.4786550000000  0.4420690000000 1.0
C      1  0.5631490000000  0.4785920000000  0.5071750000000 1.0
C      1  0.4628660000000  0.4785330000000  0.5506580000000 1.0
C      1  0.4753450000000  0.5234500000000  0.4421190000000 1.0
C      1  0.5631440000000  0.5233870000000  0.5072250000000 1.0
C      1  0.4628610000000  0.5233280000000  0.5507080000000 1.0
C      1  0.4465010000000  0.5009240000000  0.5545620000000 1.0
C      1  0.5746860000000  0.5009770000000  0.5194310000000 1.0
C      1  0.4801690000000  0.5010710000000  0.4259840000000 1.0
C      1  0.5004590000000  0.4383570000000  0.4999220000000 1.0
C      1  0.5004450000000  0.5636250000000  0.5000620000000 1.0
END
