TITL C-123176-8302-6 -0.0305122432629763 125000 -170.123573072681 0 0 25 (C5v) n - 1
REM
REM in /rds/project/t2_vol4/rds-t2-cs072/BORA/CARBON/from-Arr/AIRSS/Generating-Clusters/GAP-ML-2020/Higher-Symm/SD-CG/HFTN-CG
REM
REM
REM
REM
REM
REM ./C.cell (b20cbc046b6831c77cfcea5457e17084)
REM AIRSS Version 0.9.1 bugfix July 2018 build 013d7b7c2542+ Fri, 06 Jul 2018 19:26:36 +0100
REM compiler GCC version 9.3.0
REM options -cpp -mtune=generic -march=x86-64 -g -O0
REM seed -1689629280 -605630287 891877010 -1520152656 739358797 -1948537140 1827784882 164226069 -669444396 378586161 1027558200 1287738339 -1517848882 -1048973125 -1631709047 -1322771982 -555123038 -2138239802 2134161461 -162332384 -1091313750 1084131647 845364615 -510919117 742018956 558985411 228871512 -1654908742 472233832 -719344415 -616066458 805640391 1869723396
REM
CELL 1.54180   50.00000   50.00000   50.00000   90.00000   90.00000   90.00000
LATT -1
SFAC C  
C      1  0.5268150000000  0.4770530000000  0.5381410000000 1.0
C      1  0.4720140000000  0.4770420000000  0.5372840000000 1.0
C      1  0.4558950000000  0.4770400000000  0.4849010000000 1.0
C      1  0.5007330000000  0.4770490000000  0.4533840000000 1.0
C      1  0.5445640000000  0.4770570000000  0.4862880000000 1.0
C      1  0.4766510000000  0.5171690000000  0.4667880000000 1.0
C      1  0.5243690000000  0.5171780000000  0.4675340000000 1.0
C      1  0.5384050000000  0.5171800000000  0.5131470000000 1.0
C      1  0.4993620000000  0.5171720000000  0.5405920000000 1.0
C      1  0.4611960000000  0.5171660000000  0.5119400000000 1.0
C      1  0.5146580000000  0.5408310000000  0.4804650000000 1.0
C      1  0.5231040000000  0.5408330000000  0.5079120000000 1.0
C      1  0.4996100000000  0.5408280000000  0.5244260000000 1.0
C      1  0.4766450000000  0.5408240000000  0.5071850000000 1.0
C      1  0.4859450000000  0.5408260000000  0.4800160000000 1.0
C      1  0.5142170000000  0.4615340000000  0.5202150000000 1.0
C      1  0.4851720000000  0.4615280000000  0.5197610000000 1.0
C      1  0.4766290000000  0.4615270000000  0.4919970000000 1.0
C      1  0.5003940000000  0.4615320000000  0.4752920000000 1.0
C      1  0.5236240000000  0.4615360000000  0.4927320000000 1.0
C      1  0.5411800000000  0.5034270000000  0.4873280000000 1.0
C      1  0.5247770000000  0.5034230000000  0.5352490000000 1.0
C      1  0.4741320000000  0.5034130000000  0.5344570000000 1.0
C      1  0.4592350000000  0.5034110000000  0.4860460000000 1.0
C      1  0.5006730000000  0.5034190000000  0.4569190000000 1.0
END
