TITL C-126801-9250-2 -284.020848739122 125000 -515.656447276695 0 0 76 (C1) n - 1
REM
REM in /rds/project/t2_vol4/rds-t2-cs072/BORA/CARBON/from-Arr/AIRSS/Generating-Clusters/GAP-ML-2020/Higher-Symm/SD-CG/HFTN-CG
REM
REM
REM
REM
REM
REM ./C.cell (b20cbc046b6831c77cfcea5457e17084)
REM AIRSS Version 0.9.1 bugfix July 2018 build 013d7b7c2542+ Fri, 06 Jul 2018 19:26:36 +0100
REM compiler GCC version 9.3.0
REM options -cpp -mtune=generic -march=x86-64 -g -O0
REM seed 218104410 -290097987 -1937780593 42359259 -787831709 830816571 -1000202102 -315609384 918737897 -1081479385 1327031035 346129185 -919184550 -1243960417 -530404820 945937228 -304301595 -1435423565 445100142 170878198 1059826743 -2112133302 -637356200 -1308452414 -2085133330 1118139392 -603776398 -1705473232 -807616854 2038948027 -199115256 368847781 -492964709
REM
CELL 1.54180   50.00000   50.00000   50.00000   90.00000   90.00000   90.00000
LATT -1
SFAC C  
C      1  0.5216470000000  0.4842500000000  0.5949350000000 1.0
C      1  0.5211990000000  0.5128220000000  0.5951500000000 1.0
C      1  0.4935990000000  0.5216940000000  0.5950840000000 1.0
C      1  0.4763990000000  0.4981980000000  0.5955500000000 1.0
C      1  0.4940600000000  0.4750080000000  0.5946500000000 1.0
C      1  0.4795800000000  0.4848480000000  0.4053780000000 1.0
C      1  0.4821400000000  0.5137370000000  0.4030380000000 1.0
C      1  0.5106700000000  0.5202950000000  0.4024710000000 1.0
C      1  0.5253230000000  0.4957970000000  0.4037440000000 1.0
C      1  0.5064340000000  0.4742060000000  0.4057370000000 1.0
C      1  0.4147400000000  0.4904370000000  0.4721580000000 1.0
C      1  0.4839030000000  0.4164280000000  0.4800230000000 1.0
C      1  0.5726010000000  0.4602900000000  0.4781710000000 1.0
C      1  0.5570610000000  0.5567890000000  0.4773270000000 1.0
C      1  0.4753310000000  0.5681750000000  0.4806030000000 1.0
C      1  0.5818710000000  0.4858370000000  0.5202930000000 1.0
C      1  0.5114930000000  0.4154390000000  0.5227370000000 1.0
C      1  0.4282490000000  0.4682030000000  0.5178480000000 1.0
C      1  0.4442500000000  0.5627890000000  0.5242360000000 1.0
C      1  0.5411950000000  0.5739960000000  0.5221260000000 1.0
C      1  0.5199030000000  0.5040370000000  0.5226400000000 1.0
C      1  0.5021960000000  0.5254460000000  0.5317160000000 1.0
C      1  0.4749520000000  0.5130970000000  0.5309980000000 1.0
C      1  0.4802240000000  0.4818350000000  0.5304590000000 1.0
C      1  0.5100660000000  0.4771610000000  0.5301380000000 1.0
C      1  0.4710830000000  0.5061550000000  0.4697720000000 1.0
C      1  0.4946060000000  0.5273550000000  0.4705850000000 1.0
C      1  0.5176480000000  0.5104990000000  0.4762970000000 1.0
C      1  0.5090010000000  0.4813930000000  0.4795500000000 1.0
C      1  0.4823240000000  0.4781550000000  0.4702590000000 1.0
C      1  0.5164010000000  0.4587830000000  0.5561180000000 1.0
C      1  0.5503970000000  0.5001630000000  0.5603270000000 1.0
C      1  0.5144090000000  0.5404310000000  0.5575020000000 1.0
C      1  0.4631430000000  0.5241250000000  0.5579160000000 1.0
C      1  0.4654760000000  0.4724300000000  0.5570970000000 1.0
C      1  0.4830900000000  0.4594530000000  0.4446760000000 1.0
C      1  0.4562710000000  0.5054280000000  0.4420660000000 1.0
C      1  0.4914900000000  0.5424240000000  0.4412610000000 1.0
C      1  0.5417740000000  0.5236770000000  0.4380300000000 1.0
C      1  0.5368180000000  0.4691970000000  0.4407670000000 1.0
C      1  0.5541490000000  0.5330780000000  0.4638060000000 1.0
C      1  0.4811960000000  0.5658530000000  0.4542980000000 1.0
C      1  0.4333450000000  0.5083950000000  0.4613120000000 1.0
C      1  0.4744260000000  0.4378330000000  0.4666720000000 1.0
C      1  0.5478960000000  0.4587860000000  0.4660790000000 1.0
C      1  0.4453500000000  0.5387080000000  0.5384340000000 1.0
C      1  0.5210100000000  0.5624900000000  0.5360260000000 1.0
C      1  0.5646180000000  0.5019970000000  0.5340400000000 1.0
C      1  0.5232030000000  0.4371470000000  0.5342940000000 1.0
C      1  0.4466550000000  0.4603480000000  0.5356650000000 1.0
C      1  0.4655320000000  0.4620290000000  0.5136750000000 1.0
C      1  0.5248260000000  0.4573440000000  0.5136930000000 1.0
C      1  0.5465920000000  0.5109060000000  0.5132100000000 1.0
C      1  0.5028960000000  0.5499790000000  0.5169950000000 1.0
C      1  0.4553220000000  0.5268690000000  0.5113080000000 1.0
C      1  0.5271100000000  0.4606420000000  0.4862180000000 1.0
C      1  0.4673410000000  0.4586590000000  0.4857570000000 1.0
C      1  0.4471400000000  0.5089670000000  0.4895840000000 1.0
C      1  0.4960520000000  0.5506410000000  0.4898950000000 1.0
C      1  0.5442510000000  0.5168710000000  0.4852590000000 1.0
C      1  0.4894350000000  0.4599600000000  0.5713920000000 1.0
C      1  0.5361100000000  0.4756050000000  0.5717050000000 1.0
C      1  0.5349940000000  0.5223690000000  0.5718210000000 1.0
C      1  0.4879920000000  0.5372630000000  0.5724710000000 1.0
C      1  0.4593030000000  0.4979500000000  0.5728920000000 1.0
C      1  0.5107960000000  0.4604650000000  0.4303520000000 1.0
C      1  0.4652910000000  0.4781130000000  0.4287930000000 1.0
C      1  0.4704710000000  0.5257850000000  0.4255340000000 1.0
C      1  0.5179290000000  0.5360660000000  0.4251470000000 1.0
C      1  0.5420270000000  0.4958580000000  0.4274170000000 1.0
C      1  0.4260310000000  0.4869590000000  0.4974530000000 1.0
C      1  0.5829950000000  0.4709430000000  0.4992190000000 1.0
C      1  0.4569470000000  0.5566640000000  0.5005560000000 1.0
C      1  0.5521700000000  0.5705200000000  0.4985060000000 1.0
C      1  0.4972290000000  0.4101420000000  0.5015140000000 1.0
C      1  0.5041340000000  0.5006410000000  0.4994920000000 1.0
END
