TITL C-125337-1512-4 -0.0269706685068548 125000 -738.125232194039 0 0 106 (C1) n - 1
REM
REM in /rds/project/t2_vol4/rds-t2-cs072/BORA/CARBON/from-Arr/AIRSS/Generating-Clusters/GAP-ML-2020/Higher-Symm/SD-CG/HFTN-CG
REM
REM
REM
REM
REM
REM ./C.cell (b20cbc046b6831c77cfcea5457e17084)
REM AIRSS Version 0.9.1 bugfix July 2018 build 013d7b7c2542+ Fri, 06 Jul 2018 19:26:36 +0100
REM compiler GCC version 9.3.0
REM options -cpp -mtune=generic -march=x86-64 -g -O0
REM seed 221392296 -1521519392 -672024917 1819065866 445946492 225022568 -1596104679 2033583738 829440188 1557127137 -658516249 -2084548935 1535323353 -1397821616 -272679020 206899365 2065134171 816375140 -1304329835 1972780662 -1023418135 348428639 -906213812 1767045553 -1690455023 -845385102 -368695828 -1848811151 -189383889 1725780981 -850223053 -1384260663 -594917433
REM
CELL 1.54180   50.00000   50.00000   50.00000   90.00000   90.00000   90.00000
LATT -1
SFAC C  
C      1  0.5708080000000  0.5285520000000  0.4408880000000 1.0
C      1  0.5696370000000  0.5582430000000  0.5287660000000 1.0
C      1  0.5663400000000  0.4722960000000  0.5615200000000 1.0
C      1  0.5695320000000  0.4347430000000  0.4598610000000 1.0
C      1  0.4314380000000  0.5292480000000  0.4435090000000 1.0
C      1  0.4289880000000  0.5675890000000  0.5278930000000 1.0
C      1  0.4294480000000  0.4698780000000  0.5597330000000 1.0
C      1  0.4377960000000  0.4397480000000  0.4705010000000 1.0
C      1  0.4639680000000  0.4688180000000  0.4293750000000 1.0
C      1  0.4633420000000  0.5734640000000  0.4666130000000 1.0
C      1  0.4594010000000  0.5348690000000  0.5706920000000 1.0
C      1  0.4676910000000  0.4291500000000  0.5338210000000 1.0
C      1  0.5379960000000  0.4692600000000  0.4265910000000 1.0
C      1  0.5388750000000  0.5710220000000  0.4675100000000 1.0
C      1  0.5339820000000  0.5345370000000  0.5721850000000 1.0
C      1  0.5451620000000  0.4257190000000  0.5268380000000 1.0
C      1  0.5122500000000  0.5286150000000  0.5190510000000 1.0
C      1  0.5150820000000  0.4829860000000  0.5275960000000 1.0
C      1  0.5198700000000  0.4748530000000  0.4815470000000 1.0
C      1  0.5157660000000  0.5202930000000  0.4731280000000 1.0
C      1  0.4833760000000  0.5286080000000  0.5181370000000 1.0
C      1  0.4871110000000  0.4813640000000  0.5259210000000 1.0
C      1  0.4910460000000  0.4732060000000  0.4817410000000 1.0
C      1  0.4868160000000  0.5195780000000  0.4728610000000 1.0
C      1  0.4865060000000  0.5120330000000  0.4165650000000 1.0
C      1  0.4869120000000  0.5858850000000  0.5095760000000 1.0
C      1  0.4816310000000  0.4920300000000  0.5839940000000 1.0
C      1  0.4908070000000  0.4138340000000  0.4918950000000 1.0
C      1  0.5147290000000  0.5125050000000  0.4158030000000 1.0
C      1  0.5152210000000  0.5852650000000  0.5095910000000 1.0
C      1  0.5096630000000  0.4909710000000  0.5839970000000 1.0
C      1  0.5181930000000  0.4151180000000  0.4883770000000 1.0
C      1  0.4248840000000  0.5185440000000  0.4696950000000 1.0
C      1  0.4221340000000  0.5414600000000  0.5188720000000 1.0
C      1  0.4297570000000  0.4751050000000  0.5321650000000 1.0
C      1  0.4279440000000  0.4643390000000  0.4829270000000 1.0
C      1  0.5784210000000  0.5149740000000  0.4661160000000 1.0
C      1  0.5760690000000  0.5319690000000  0.5188620000000 1.0
C      1  0.5713150000000  0.4847960000000  0.5364560000000 1.0
C      1  0.5789490000000  0.4598560000000  0.4710720000000 1.0
C      1  0.4519010000000  0.5476870000000  0.4300300000000 1.0
C      1  0.4513430000000  0.5759850000000  0.5456480000000 1.0
C      1  0.4514050000000  0.4537650000000  0.5728530000000 1.0
C      1  0.4619200000000  0.4284240000000  0.4526130000000 1.0
C      1  0.5496990000000  0.5478400000000  0.4293510000000 1.0
C      1  0.5485140000000  0.5711330000000  0.5462960000000 1.0
C      1  0.5441010000000  0.4525000000000  0.5687590000000 1.0
C      1  0.5431780000000  0.4265740000000  0.4468940000000 1.0
C      1  0.4853180000000  0.5664670000000  0.4857160000000 1.0
C      1  0.4806270000000  0.5150350000000  0.5639320000000 1.0
C      1  0.4909270000000  0.4346150000000  0.5143220000000 1.0
C      1  0.4861000000000  0.4877950000000  0.4354030000000 1.0
C      1  0.5160690000000  0.5659380000000  0.4861660000000 1.0
C      1  0.5113450000000  0.5154310000000  0.5650550000000 1.0
C      1  0.5221900000000  0.4357410000000  0.5112790000000 1.0
C      1  0.5166490000000  0.4882880000000  0.4346790000000 1.0
C      1  0.5326120000000  0.4429090000000  0.4290800000000 1.0
C      1  0.5378040000000  0.5694150000000  0.4405640000000 1.0
C      1  0.5352130000000  0.5612610000000  0.5677090000000 1.0
C      1  0.5423600000000  0.4315590000000  0.5526840000000 1.0
C      1  0.4695770000000  0.4421280000000  0.4311210000000 1.0
C      1  0.4641870000000  0.5695870000000  0.4398330000000 1.0
C      1  0.4609130000000  0.5613580000000  0.5657510000000 1.0
C      1  0.4664710000000  0.4349460000000  0.5602460000000 1.0
C      1  0.4724070000000  0.5050100000000  0.5325900000000 1.0
C      1  0.4814040000000  0.4628070000000  0.5055070000000 1.0
C      1  0.4792270000000  0.4938120000000  0.4659770000000 1.0
C      1  0.4761410000000  0.5371020000000  0.4926910000000 1.0
C      1  0.5211000000000  0.5084560000000  0.5365190000000 1.0
C      1  0.5309460000000  0.4680700000000  0.5079550000000 1.0
C      1  0.5263690000000  0.4962930000000  0.4641070000000 1.0
C      1  0.5234760000000  0.5365690000000  0.4949600000000 1.0
C      1  0.5641050000000  0.4158480000000  0.4816940000000 1.0
C      1  0.5616110000000  0.5092700000000  0.4221290000000 1.0
C      1  0.5613780000000  0.5744550000000  0.5069890000000 1.0
C      1  0.5553780000000  0.4922580000000  0.5780470000000 1.0
C      1  0.4455690000000  0.4212800000000  0.4906090000000 1.0
C      1  0.4403030000000  0.5082670000000  0.4265280000000 1.0
C      1  0.4398750000000  0.5819340000000  0.5059490000000 1.0
C      1  0.4358080000000  0.4933860000000  0.5751020000000 1.0
C      1  0.4273500000000  0.4884160000000  0.4667530000000 1.0
C      1  0.4248850000000  0.5400640000000  0.4895570000000 1.0
C      1  0.4258880000000  0.5213670000000  0.5376590000000 1.0
C      1  0.4284430000000  0.4570810000000  0.5113510000000 1.0
C      1  0.5778510000000  0.4853780000000  0.4580770000000 1.0
C      1  0.5759030000000  0.5329760000000  0.4888470000000 1.0
C      1  0.5730400000000  0.5129900000000  0.5400600000000 1.0
C      1  0.5766040000000  0.4540660000000  0.4992890000000 1.0
C      1  0.5395010000000  0.5865440000000  0.5222960000000 1.0
C      1  0.5319920000000  0.4748170000000  0.5845700000000 1.0
C      1  0.5378760000000  0.4095270000000  0.4702220000000 1.0
C      1  0.5390030000000  0.5253500000000  0.4130670000000 1.0
C      1  0.4631140000000  0.5908220000000  0.5222500000000 1.0
C      1  0.4579180000000  0.4786760000000  0.5876360000000 1.0
C      1  0.4687110000000  0.4116920000000  0.4757470000000 1.0
C      1  0.4619250000000  0.5242440000000  0.4146830000000 1.0
C      1  0.4345000000000  0.5195390000000  0.5653570000000 1.0
C      1  0.4438530000000  0.4322790000000  0.5158750000000 1.0
C      1  0.4395650000000  0.4837260000000  0.4388230000000 1.0
C      1  0.4384690000000  0.5669720000000  0.4825960000000 1.0
C      1  0.5582380000000  0.5177760000000  0.5663540000000 1.0
C      1  0.5674590000000  0.4275140000000  0.5061510000000 1.0
C      1  0.5631320000000  0.4836870000000  0.4321620000000 1.0
C      1  0.5628570000000  0.5609600000000  0.4829900000000 1.0
C      1  0.5610390000000  0.4719440000000  0.5139930000000 1.0
C      1  0.4426490000000  0.5004170000000  0.5282380000000 1.0
END
