TITL C-126793-9262-7 0.457346967346907 125000 -991.284719614652 0 0 139 (C1) n - 1
REM
REM in /rds/project/t2_vol4/rds-t2-cs072/BORA/CARBON/from-Arr/AIRSS/Generating-Clusters/GAP-ML-2020/Higher-Symm/SD-CG/HFTN-CG
REM
REM
REM
REM
REM
REM ./C.cell (b20cbc046b6831c77cfcea5457e17084)
REM AIRSS Version 0.9.1 bugfix July 2018 build 013d7b7c2542+ Fri, 06 Jul 2018 19:26:36 +0100
REM compiler GCC version 9.3.0
REM options -cpp -mtune=generic -march=x86-64 -g -O0
REM seed 410110230 594000019 116191108 -201104459 -2115650195 -1291839581 1127797507 -1283112360 356928017 -1847319693 -917451921 162359256 -1397157613 -762009083 -2105823203 2095248222 -731638624 -1292137549 1046121551 -1910902088 -681291537 1410514949 -1420140430 -719023855 -1636339331 816368596 1837391093 -903863291 -1538313942 -501181925 501654931 -1568388894 -1310701420
REM
CELL 1.54180   50.00000   50.00000   50.00000   90.00000   90.00000   90.00000
LATT -1
SFAC C  
C      1  0.5421800000000  0.4274520000000  0.5508180000000 1.0
C      1  0.5423790000000  0.5718470000000  0.5497930000000 1.0
C      1  0.5766170000000  0.5136790000000  0.5658770000000 1.0
C      1  0.5765490000000  0.4855400000000  0.5667850000000 1.0
C      1  0.5003460000000  0.4866360000000  0.4848520000000 1.0
C      1  0.4993070000000  0.5144830000000  0.4843670000000 1.0
C      1  0.4374950000000  0.5685300000000  0.5425680000000 1.0
C      1  0.4374320000000  0.4317270000000  0.5423390000000 1.0
C      1  0.5195720000000  0.4160040000000  0.4608450000000 1.0
C      1  0.5182230000000  0.5852170000000  0.4603410000000 1.0
C      1  0.5138200000000  0.4860500000000  0.4073170000000 1.0
C      1  0.5127630000000  0.5159410000000  0.4062940000000 1.0
C      1  0.5520030000000  0.5813060000000  0.5231950000000 1.0
C      1  0.5524950000000  0.4173200000000  0.5247330000000 1.0
C      1  0.4486350000000  0.4461180000000  0.4126150000000 1.0
C      1  0.4468170000000  0.5544480000000  0.4126480000000 1.0
C      1  0.5830320000000  0.4460530000000  0.5426600000000 1.0
C      1  0.5825860000000  0.5524520000000  0.5404930000000 1.0
C      1  0.5490920000000  0.4737880000000  0.5001270000000 1.0
C      1  0.5473190000000  0.5202820000000  0.4955830000000 1.0
C      1  0.4207620000000  0.4675950000000  0.4551390000000 1.0
C      1  0.4201130000000  0.5328650000000  0.4552230000000 1.0
C      1  0.4303670000000  0.5589720000000  0.4682640000000 1.0
C      1  0.4313050000000  0.4417140000000  0.4679900000000 1.0
C      1  0.4544600000000  0.4862050000000  0.5857610000000 1.0
C      1  0.4546100000000  0.5138100000000  0.5857030000000 1.0
C      1  0.5057440000000  0.5156070000000  0.5902780000000 1.0
C      1  0.5055860000000  0.4842850000000  0.5904640000000 1.0
C      1  0.4051030000000  0.5146320000000  0.4724630000000 1.0
C      1  0.4054380000000  0.4856640000000  0.4723800000000 1.0
C      1  0.4446190000000  0.4461300000000  0.5658940000000 1.0
C      1  0.4449080000000  0.5539890000000  0.5659510000000 1.0
C      1  0.5621840000000  0.4486660000000  0.4442610000000 1.0
C      1  0.5605730000000  0.5540440000000  0.4418610000000 1.0
C      1  0.4631170000000  0.4706670000000  0.5107580000000 1.0
C      1  0.4628870000000  0.5306670000000  0.5108510000000 1.0
C      1  0.4526030000000  0.5743220000000  0.4573350000000 1.0
C      1  0.4539140000000  0.4266360000000  0.4572770000000 1.0
C      1  0.4913120000000  0.4315420000000  0.5624480000000 1.0
C      1  0.4917110000000  0.5679350000000  0.5618100000000 1.0
C      1  0.4346790000000  0.5277750000000  0.5699430000000 1.0
C      1  0.4344140000000  0.4723230000000  0.5700150000000 1.0
C      1  0.4564360000000  0.4151190000000  0.5297200000000 1.0
C      1  0.4563190000000  0.5852400000000  0.5298690000000 1.0
C      1  0.4396680000000  0.4844670000000  0.4387390000000 1.0
C      1  0.4390870000000  0.5160730000000  0.4386010000000 1.0
C      1  0.5767630000000  0.4313020000000  0.5187720000000 1.0
C      1  0.5753330000000  0.5660920000000  0.5164170000000 1.0
C      1  0.4692880000000  0.5243250000000  0.5361170000000 1.0
C      1  0.4687480000000  0.4761190000000  0.5363700000000 1.0
C      1  0.4789000000000  0.4714910000000  0.5886350000000 1.0
C      1  0.4791630000000  0.5284250000000  0.5884840000000 1.0
C      1  0.5156130000000  0.4669580000000  0.5322100000000 1.0
C      1  0.5169380000000  0.5320240000000  0.5308090000000 1.0
C      1  0.5233780000000  0.5339190000000  0.4531310000000 1.0
C      1  0.5247050000000  0.4685040000000  0.4547560000000 1.0
C      1  0.5529600000000  0.4775340000000  0.4409850000000 1.0
C      1  0.5516760000000  0.5260850000000  0.4380100000000 1.0
C      1  0.4822350000000  0.4124820000000  0.5425170000000 1.0
C      1  0.4823660000000  0.5873950000000  0.5423970000000 1.0
C      1  0.5913910000000  0.4728910000000  0.5442040000000 1.0
C      1  0.5912830000000  0.5259440000000  0.5427310000000 1.0
C      1  0.4908270000000  0.5580500000000  0.4259420000000 1.0
C      1  0.4928350000000  0.4432790000000  0.4264800000000 1.0
C      1  0.4108360000000  0.4699760000000  0.5264420000000 1.0
C      1  0.4107470000000  0.5303040000000  0.5266240000000 1.0
C      1  0.4673300000000  0.5893760000000  0.4774900000000 1.0
C      1  0.4683900000000  0.4115920000000  0.4774720000000 1.0
C      1  0.5267750000000  0.5333340000000  0.5794060000000 1.0
C      1  0.5265810000000  0.4662550000000  0.5802760000000 1.0
C      1  0.5004200000000  0.3993950000000  0.5273080000000 1.0
C      1  0.5004940000000  0.6005380000000  0.5272380000000 1.0
C      1  0.5628130000000  0.4423070000000  0.5623190000000 1.0
C      1  0.5631370000000  0.5568550000000  0.5607370000000 1.0
C      1  0.5665690000000  0.4335530000000  0.4690400000000 1.0
C      1  0.5648170000000  0.5660600000000  0.4676900000000 1.0
C      1  0.4548140000000  0.4852780000000  0.4656580000000 1.0
C      1  0.4543460000000  0.5158410000000  0.4655390000000 1.0
C      1  0.5092350000000  0.4536210000000  0.5057730000000 1.0
C      1  0.5101290000000  0.5462250000000  0.5051900000000 1.0
C      1  0.4812120000000  0.4744790000000  0.4664490000000 1.0
C      1  0.4805830000000  0.5265980000000  0.4660310000000 1.0
C      1  0.5389360000000  0.4848430000000  0.5239210000000 1.0
C      1  0.5388840000000  0.5130560000000  0.5216980000000 1.0
C      1  0.4940890000000  0.4861960000000  0.5387630000000 1.0
C      1  0.4945320000000  0.5137410000000  0.5381050000000 1.0
C      1  0.4999370000000  0.4846740000000  0.4452130000000 1.0
C      1  0.4991940000000  0.5169470000000  0.4446390000000 1.0
C      1  0.5902790000000  0.5275030000000  0.4924270000000 1.0
C      1  0.5958950000000  0.4666660000000  0.4964840000000 1.0
C      1  0.5103330000000  0.6006340000000  0.5025200000000 1.0
C      1  0.5108650000000  0.3998470000000  0.5027830000000 1.0
C      1  0.5162400000000  0.5641110000000  0.4389910000000 1.0
C      1  0.5180390000000  0.4374210000000  0.4397290000000 1.0
C      1  0.4129840000000  0.5155720000000  0.5012540000000 1.0
C      1  0.4131550000000  0.4848630000000  0.5011920000000 1.0
C      1  0.5808380000000  0.5553740000000  0.4905760000000 1.0
C      1  0.5843990000000  0.4400490000000  0.4929440000000 1.0
C      1  0.5991980000000  0.4846580000000  0.5190120000000 1.0
C      1  0.5981700000000  0.5138100000000  0.5174720000000 1.0
C      1  0.4293060000000  0.5671980000000  0.4962260000000 1.0
C      1  0.4299160000000  0.4334060000000  0.4958760000000 1.0
C      1  0.5358680000000  0.5318360000000  0.4132120000000 1.0
C      1  0.5377610000000  0.4712870000000  0.4156510000000 1.0
C      1  0.4721350000000  0.4461340000000  0.5762100000000 1.0
C      1  0.4725170000000  0.5538050000000  0.5760840000000 1.0
C      1  0.4842020000000  0.5386270000000  0.4946020000000 1.0
C      1  0.4843270000000  0.4627900000000  0.4944750000000 1.0
C      1  0.5561160000000  0.5330210000000  0.5751700000000 1.0
C      1  0.5558580000000  0.4663910000000  0.5763900000000 1.0
C      1  0.5178260000000  0.5542840000000  0.5575700000000 1.0
C      1  0.5174560000000  0.4452140000000  0.5582880000000 1.0
C      1  0.4176400000000  0.5147080000000  0.5504100000000 1.0
C      1  0.4176130000000  0.4854690000000  0.5503600000000 1.0
C      1  0.5747980000000  0.4821660000000  0.4879600000000 1.0
C      1  0.5725290000000  0.5086380000000  0.4776710000000 1.0
C      1  0.5389570000000  0.4067790000000  0.5020980000000 1.0
C      1  0.5383140000000  0.5931480000000  0.5013860000000 1.0
C      1  0.4206610000000  0.5567180000000  0.5224330000000 1.0
C      1  0.4208730000000  0.4436340000000  0.5220840000000 1.0
C      1  0.4637650000000  0.5673830000000  0.4311180000000 1.0
C      1  0.4657140000000  0.4336010000000  0.4313150000000 1.0
C      1  0.4978370000000  0.4060180000000  0.4774900000000 1.0
C      1  0.4967930000000  0.5951250000000  0.4773520000000 1.0
C      1  0.4898250000000  0.4714910000000  0.4193250000000 1.0
C      1  0.4883670000000  0.5297080000000  0.4187040000000 1.0
C      1  0.5432140000000  0.5841010000000  0.4748400000000 1.0
C      1  0.5443790000000  0.4161630000000  0.4755660000000 1.0
C      1  0.4571490000000  0.4712110000000  0.4180660000000 1.0
C      1  0.4559240000000  0.5294220000000  0.4176150000000 1.0
C      1  0.5417440000000  0.4429230000000  0.4231360000000 1.0
C      1  0.5395200000000  0.5600940000000  0.4213920000000 1.0
C      1  0.4438270000000  0.4851520000000  0.4947840000000 1.0
C      1  0.4436390000000  0.5158690000000  0.4947800000000 1.0
C      1  0.5247090000000  0.5310010000000  0.4832090000000 1.0
C      1  0.5253840000000  0.4694960000000  0.4848730000000 1.0
C      1  0.4517200000000  0.4151050000000  0.5011900000000 1.0
C      1  0.4509970000000  0.5856660000000  0.5013910000000 1.0
C      1  0.5654900000000  0.5032170000000  0.4489940000000 1.0
END
