TITL C-121818-5043-5 -417.067037743742 125000 -459.385149788208 0 0 68 (C1) n - 1
REM
REM in /rds/project/t2_vol4/rds-t2-cs072/BORA/CARBON/from-Arr/AIRSS/Generating-Clusters/GAP-ML-2020/Higher-Symm/SD-CG/HFTN-CG
REM
REM
REM
REM
REM
REM ./C.cell (b20cbc046b6831c77cfcea5457e17084)
REM AIRSS Version 0.9.1 bugfix July 2018 build 013d7b7c2542+ Fri, 06 Jul 2018 19:26:36 +0100
REM compiler GCC version 9.3.0
REM options -cpp -mtune=generic -march=x86-64 -g -O0
REM seed -308053915 -694444552 561063367 1300513228 -1059986524 106000491 1172906252 -839700818 414440251 831074238 626069320 -1475994973 -295868048 -1295735599 210551892 2025582379 175578670 -715212756 588106302 -1582262624 1277186037 1258997051 1424649574 -1643325536 -1013495350 1513476309 -1006666311 -829498033 -254932280 1622252598 -771173793 -2068533167 -1091826964
REM
CELL 1.54180   50.00000   50.00000   50.00000   90.00000   90.00000   90.00000
LATT -1
SFAC C  
C      1  0.4350150000000  0.4933220000000  0.5478640000000 1.0
C      1  0.4781850000000  0.5397510000000  0.5260300000000 1.0
C      1  0.5479660000000  0.5306750000000  0.5425380000000 1.0
C      1  0.5472260000000  0.4728380000000  0.5461880000000 1.0
C      1  0.4935770000000  0.4535760000000  0.5360360000000 1.0
C      1  0.5007560000000  0.5726740000000  0.5022550000000 1.0
C      1  0.5688720000000  0.5052750000000  0.5022510000000 1.0
C      1  0.5297480000000  0.4340800000000  0.4968510000000 1.0
C      1  0.4411070000000  0.4610470000000  0.4973750000000 1.0
C      1  0.4320760000000  0.5359840000000  0.5015940000000 1.0
C      1  0.5062160000000  0.4737910000000  0.5736840000000 1.0
C      1  0.4806960000000  0.4862650000000  0.5705150000000 1.0
C      1  0.4845140000000  0.5137570000000  0.5666460000000 1.0
C      1  0.5131770000000  0.5180170000000  0.5643700000000 1.0
C      1  0.5259720000000  0.4943510000000  0.5752060000000 1.0
C      1  0.4760380000000  0.4889740000000  0.4387240000000 1.0
C      1  0.4996450000000  0.5466510000000  0.4258250000000 1.0
C      1  0.5157440000000  0.5257430000000  0.4343670000000 1.0
C      1  0.5143760000000  0.4727250000000  0.4349720000000 1.0
C      1  0.4871990000000  0.4618630000000  0.4338880000000 1.0
C      1  0.5236390000000  0.5144200000000  0.5346000000000 1.0
C      1  0.5313560000000  0.4867820000000  0.5256520000000 1.0
C      1  0.5060510000000  0.4738670000000  0.5157190000000 1.0
C      1  0.4603800000000  0.4986240000000  0.5314200000000 1.0
C      1  0.5034760000000  0.5251200000000  0.5157540000000 1.0
C      1  0.4752470000000  0.4404830000000  0.4470080000000 1.0
C      1  0.4545670000000  0.4911340000000  0.4573690000000 1.0
C      1  0.4840800000000  0.5646720000000  0.4351460000000 1.0
C      1  0.5395600000000  0.5314940000000  0.4513440000000 1.0
C      1  0.5367810000000  0.4656360000000  0.4508710000000 1.0
C      1  0.5066550000000  0.5434440000000  0.4919470000000 1.0
C      1  0.5475040000000  0.4866800000000  0.5011360000000 1.0
C      1  0.5114480000000  0.4584390000000  0.4915370000000 1.0
C      1  0.4607890000000  0.4793050000000  0.4843580000000 1.0
C      1  0.4617540000000  0.5330670000000  0.5007080000000 1.0
C      1  0.5533330000000  0.4435610000000  0.4518920000000 1.0
C      1  0.4697830000000  0.4344240000000  0.4722880000000 1.0
C      1  0.4333340000000  0.5090480000000  0.4592630000000 1.0
C      1  0.4787330000000  0.5663870000000  0.4625200000000 1.0
C      1  0.5666030000000  0.5268770000000  0.4551510000000 1.0
C      1  0.4226500000000  0.5346860000000  0.5270950000000 1.0
C      1  0.4929880000000  0.5667680000000  0.5297170000000 1.0
C      1  0.5707380000000  0.5179020000000  0.5284340000000 1.0
C      1  0.5377680000000  0.4352290000000  0.5220550000000 1.0
C      1  0.4499670000000  0.4438770000000  0.5178290000000 1.0
C      1  0.4666160000000  0.5239540000000  0.5466930000000 1.0
C      1  0.5274400000000  0.5446280000000  0.5609720000000 1.0
C      1  0.5527460000000  0.4902840000000  0.5667610000000 1.0
C      1  0.5114530000000  0.4509560000000  0.5580200000000 1.0
C      1  0.4594060000000  0.4764500000000  0.5530850000000 1.0
C      1  0.4358450000000  0.5217100000000  0.5474050000000 1.0
C      1  0.5121280000000  0.5618640000000  0.5476530000000 1.0
C      1  0.5662130000000  0.5124620000000  0.5543400000000 1.0
C      1  0.5378270000000  0.4460860000000  0.5465980000000 1.0
C      1  0.4655360000000  0.4513680000000  0.5397140000000 1.0
C      1  0.5307860000000  0.4792000000000  0.4774770000000 1.0
C      1  0.4841550000000  0.4583980000000  0.4814710000000 1.0
C      1  0.4658270000000  0.5022590000000  0.5028410000000 1.0
C      1  0.4790550000000  0.5428230000000  0.4797780000000 1.0
C      1  0.5229410000000  0.5289460000000  0.4739030000000 1.0
C      1  0.5458350000000  0.4332120000000  0.4739980000000 1.0
C      1  0.4485620000000  0.4342040000000  0.4916080000000 1.0
C      1  0.4236470000000  0.5258140000000  0.4756210000000 1.0
C      1  0.4878710000000  0.5852370000000  0.4827230000000 1.0
C      1  0.5746480000000  0.5170220000000  0.4775850000000 1.0
C      1  0.5117140000000  0.5015850000000  0.4742780000000 1.0
C      1  0.5035140000000  0.4998110000000  0.4432910000000 1.0
C      1  0.4952030000000  0.4997780000000  0.5022440000000 1.0
END
