TITL C-123167-9302-3 0.119771370890453 125000 -731.816183989309 0 0 106 (C1) n - 1
REM
REM in /rds/project/t2_vol4/rds-t2-cs072/BORA/CARBON/from-Arr/AIRSS/Generating-Clusters/GAP-ML-2020/Higher-Symm/SD-CG/HFTN-CG
REM
REM
REM
REM
REM
REM ./C.cell (b20cbc046b6831c77cfcea5457e17084)
REM AIRSS Version 0.9.1 bugfix July 2018 build 013d7b7c2542+ Fri, 06 Jul 2018 19:26:36 +0100
REM compiler GCC version 9.3.0
REM options -cpp -mtune=generic -march=x86-64 -g -O0
REM seed 1440336552 -2143420434 -1429845432 -999044005 -1248209999 -451817624 -1979392015 1146120525 1869513542 -47143839 974411886 -2088461141 967007516 514436759 -1794000542 -1828179630 2109830250 653075735 48045858 1172386178 601782508 1675368637 1254779371 1179243290 1611683598 -163151302 929940980 413909912 -237550408 249655953 238602529 -1773149880 363740462
REM
CELL 1.54180   50.00000   50.00000   50.00000   90.00000   90.00000   90.00000
LATT -1
SFAC C  
C      1  0.5028350000000  0.4692730000000  0.5045460000000 1.0
C      1  0.5250050000000  0.5176110000000  0.5031940000000 1.0
C      1  0.4728140000000  0.5129840000000  0.5034220000000 1.0
C      1  0.4760160000000  0.4839290000000  0.5860660000000 1.0
C      1  0.5269930000000  0.4934240000000  0.5860640000000 1.0
C      1  0.4949520000000  0.5304250000000  0.5841700000000 1.0
C      1  0.5246030000000  0.5714310000000  0.5099360000000 1.0
C      1  0.4263540000000  0.4857960000000  0.5110710000000 1.0
C      1  0.5499370000000  0.4428640000000  0.5107720000000 1.0
C      1  0.4850330000000  0.5082970000000  0.4278050000000 1.0
C      1  0.5002460000000  0.4822230000000  0.4280280000000 1.0
C      1  0.5153490000000  0.5083710000000  0.4276970000000 1.0
C      1  0.5508840000000  0.4862690000000  0.5703100000000 1.0
C      1  0.4868380000000  0.5537470000000  0.5691830000000 1.0
C      1  0.4613510000000  0.4635570000000  0.5705190000000 1.0
C      1  0.5465560000000  0.4957950000000  0.5001930000000 1.0
C      1  0.4805160000000  0.5424730000000  0.4996820000000 1.0
C      1  0.4734320000000  0.4617000000000  0.5004080000000 1.0
C      1  0.4829810000000  0.4586490000000  0.4235840000000 1.0
C      1  0.5444330000000  0.5052780000000  0.4233830000000 1.0
C      1  0.4732010000000  0.5349620000000  0.4232630000000 1.0
C      1  0.5025070000000  0.4833970000000  0.5304460000000 1.0
C      1  0.5128070000000  0.5101660000000  0.5278450000000 1.0
C      1  0.4859220000000  0.5068380000000  0.5280310000000 1.0
C      1  0.5482090000000  0.5517600000000  0.5485490000000 1.0
C      1  0.4323070000000  0.5170590000000  0.5489080000000 1.0
C      1  0.5196090000000  0.4311820000000  0.5469930000000 1.0
C      1  0.4590610000000  0.5512550000000  0.5633650000000 1.0
C      1  0.4761650000000  0.4392760000000  0.5645510000000 1.0
C      1  0.5629950000000  0.5111690000000  0.5640520000000 1.0
C      1  0.5368530000000  0.4213300000000  0.4949600000000 1.0
C      1  0.5496110000000  0.5712500000000  0.4944260000000 1.0
C      1  0.4139250000000  0.5072390000000  0.4951000000000 1.0
C      1  0.4265160000000  0.4751520000000  0.4584280000000 1.0
C      1  0.5584030000000  0.4482070000000  0.4583060000000 1.0
C      1  0.5157700000000  0.5759790000000  0.4574030000000 1.0
C      1  0.4987940000000  0.5647540000000  0.5459240000000 1.0
C      1  0.4460070000000  0.4677830000000  0.5472340000000 1.0
C      1  0.5550170000000  0.4694390000000  0.5471630000000 1.0
C      1  0.5628120000000  0.4582970000000  0.4305560000000 1.0
C      1  0.5048470000000  0.5743910000000  0.4296600000000 1.0
C      1  0.4330560000000  0.4662820000000  0.4305910000000 1.0
C      1  0.5094060000000  0.4245790000000  0.4597460000000 1.0
C      1  0.5605800000000  0.5452050000000  0.4598650000000 1.0
C      1  0.4307580000000  0.5293050000000  0.4600320000000 1.0
C      1  0.4686100000000  0.4532830000000  0.4696700000000 1.0
C      1  0.5562780000000  0.4956720000000  0.4694780000000 1.0
C      1  0.4757880000000  0.5504790000000  0.4690100000000 1.0
C      1  0.4303480000000  0.4900890000000  0.5393500000000 1.0
C      1  0.5443640000000  0.4439770000000  0.5388190000000 1.0
C      1  0.5260240000000  0.5667010000000  0.5382910000000 1.0
C      1  0.5112540000000  0.5445200000000  0.4953890000000 1.0
C      1  0.4564210000000  0.4874180000000  0.4960660000000 1.0
C      1  0.5330280000000  0.4682520000000  0.4958130000000 1.0
C      1  0.4545680000000  0.4498410000000  0.5238620000000 1.0
C      1  0.5660940000000  0.4858800000000  0.5239960000000 1.0
C      1  0.4791510000000  0.5651060000000  0.5226850000000 1.0
C      1  0.5060700000000  0.4695280000000  0.5576110000000 1.0
C      1  0.5226020000000  0.5216890000000  0.5846310000000 1.0
C      1  0.4718930000000  0.5121460000000  0.5846680000000 1.0
C      1  0.4927090000000  0.4108430000000  0.4797470000000 1.0
C      1  0.5803670000000  0.5377460000000  0.4804740000000 1.0
C      1  0.4273600000000  0.5504610000000  0.4802720000000 1.0
C      1  0.4884100000000  0.5576470000000  0.4191530000000 1.0
C      1  0.4556380000000  0.4604860000000  0.4197330000000 1.0
C      1  0.5565060000000  0.4807250000000  0.4196540000000 1.0
C      1  0.5960110000000  0.5142500000000  0.4762390000000 1.0
C      1  0.4398200000000  0.5757160000000  0.4755590000000 1.0
C      1  0.4645170000000  0.4094680000000  0.4753190000000 1.0
C      1  0.4989800000000  0.5836200000000  0.5034960000000 1.0
C      1  0.4287070000000  0.4573600000000  0.5049680000000 1.0
C      1  0.5729980000000  0.4592140000000  0.5047540000000 1.0
C      1  0.4490130000000  0.4320310000000  0.4713370000000 1.0
C      1  0.5845170000000  0.4895520000000  0.4714700000000 1.0
C      1  0.4669030000000  0.5780210000000  0.4704680000000 1.0
C      1  0.5501570000000  0.5198500000000  0.4501440000000 1.0
C      1  0.4578800000000  0.5328500000000  0.4501430000000 1.0
C      1  0.4926210000000  0.4463980000000  0.4503210000000 1.0
C      1  0.4931960000000  0.5885670000000  0.4778050000000 1.0
C      1  0.4270310000000  0.4497000000000  0.4792350000000 1.0
C      1  0.5803780000000  0.4616870000000  0.4791010000000 1.0
C      1  0.4849100000000  0.5065850000000  0.4780270000000 1.0
C      1  0.5022120000000  0.4828120000000  0.4786230000000 1.0
C      1  0.5136600000000  0.5098600000000  0.4778340000000 1.0
C      1  0.5455690000000  0.5329730000000  0.5704740000000 1.0
C      1  0.4497070000000  0.5255350000000  0.5706650000000 1.0
C      1  0.5037210000000  0.4430640000000  0.5674030000000 1.0
C      1  0.5445100000000  0.5688430000000  0.4668250000000 1.0
C      1  0.4183920000000  0.5036600000000  0.4675240000000 1.0
C      1  0.5377370000000  0.4269210000000  0.4674430000000 1.0
C      1  0.4305540000000  0.5392470000000  0.5297150000000 1.0
C      1  0.5002080000000  0.4195000000000  0.5294190000000 1.0
C      1  0.5683190000000  0.5412220000000  0.5298700000000 1.0
C      1  0.5396460000000  0.4695760000000  0.4653760000000 1.0
C      1  0.5067070000000  0.5491400000000  0.4649360000000 1.0
C      1  0.4544010000000  0.4807400000000  0.4656080000000 1.0
C      1  0.5707690000000  0.5532860000000  0.5037250000000 1.0
C      1  0.4187990000000  0.5347090000000  0.5037880000000 1.0
C      1  0.5103710000000  0.4117280000000  0.5033860000000 1.0
C      1  0.4691730000000  0.5050610000000  0.4535840000000 1.0
C      1  0.5110540000000  0.4700030000000  0.4537960000000 1.0
C      1  0.5204360000000  0.5239830000000  0.4532900000000 1.0
C      1  0.4520100000000  0.5587680000000  0.5372620000000 1.0
C      1  0.4725660000000  0.4292450000000  0.5383820000000 1.0
C      1  0.5736750000000  0.5127910000000  0.5381740000000 1.0
C      1  0.5037940000000  0.4775400000000  0.5850320000000 1.0
END
