TITL C-123189-8040-3 -0.0748791826157218 125000 -517.603480834489 0 0 72 (C2) n - 1
REM
REM in /rds/project/t2_vol4/rds-t2-cs072/BORA/CARBON/from-Arr/AIRSS/Generating-Clusters/GAP-ML-2020/Higher-Symm/SD-CG/HFTN-CG
REM
REM
REM
REM
REM
REM ./C.cell (b20cbc046b6831c77cfcea5457e17084)
REM AIRSS Version 0.9.1 bugfix July 2018 build 013d7b7c2542+ Fri, 06 Jul 2018 19:26:36 +0100
REM compiler GCC version 9.3.0
REM options -cpp -mtune=generic -march=x86-64 -g -O0
REM seed -1739793085 1149626562 -86898783 961454274 608132614 -200824704 1563207012 1497892208 1860776945 1201490860 -340445750 197702634 -1609884898 -514029836 2085843242 -239195344 -1888022352 -109497210 -275837808 1932376629 -1102519135 590525296 1095154599 -849978089 2053527547 1080876640 -1069812105 351773202 -671895664 -1631353796 1588571454 548726813 1955339199
REM
CELL 1.54180   50.00000   50.00000   50.00000   90.00000   90.00000   90.00000
LATT -1
SFAC C  
C      1  0.5676970000000  0.4909850000000  0.5030920000000 1.0
C      1  0.4579290000000  0.4461610000000  0.5070750000000 1.0
C      1  0.4735100000000  0.5645390000000  0.5035810000000 1.0
C      1  0.5661530000000  0.5172090000000  0.4931960000000 1.0
C      1  0.4512770000000  0.5498630000000  0.4955730000000 1.0
C      1  0.4814600000000  0.4342470000000  0.4974610000000 1.0
C      1  0.5599370000000  0.4689750000000  0.4866400000000 1.0
C      1  0.4426660000000  0.4632520000000  0.4900480000000 1.0
C      1  0.4958090000000  0.5680150000000  0.4858830000000 1.0
C      1  0.5563980000000  0.5381720000000  0.5099420000000 1.0
C      1  0.4391250000000  0.5309520000000  0.5133850000000 1.0
C      1  0.5046300000000  0.4328170000000  0.5140860000000 1.0
C      1  0.5259680000000  0.4967530000000  0.5570320000000 1.0
C      1  0.4789400000000  0.4707100000000  0.5689980000000 1.0
C      1  0.4842590000000  0.5381030000000  0.5706660000000 1.0
C      1  0.5357070000000  0.5070120000000  0.4311670000000 1.0
C      1  0.4717400000000  0.5288240000000  0.4288390000000 1.0
C      1  0.4930730000000  0.4742850000000  0.4431820000000 1.0
C      1  0.5536170000000  0.4992000000000  0.4494020000000 1.0
C      1  0.4734610000000  0.4545960000000  0.4536770000000 1.0
C      1  0.4707930000000  0.5472660000000  0.4501670000000 1.0
C      1  0.5518890000000  0.5068450000000  0.5466080000000 1.0
C      1  0.4678490000000  0.5460620000000  0.5491430000000 1.0
C      1  0.4791350000000  0.4509830000000  0.5509670000000 1.0
C      1  0.5268130000000  0.4352100000000  0.4958310000000 1.0
C      1  0.4309450000000  0.5094510000000  0.4965260000000 1.0
C      1  0.5418980000000  0.5557650000000  0.4927570000000 1.0
C      1  0.5186770000000  0.5671770000000  0.5029080000000 1.0
C      1  0.4321460000000  0.4837140000000  0.5069510000000 1.0
C      1  0.5488210000000  0.4497470000000  0.5050200000000 1.0
C      1  0.5203190000000  0.5291550000000  0.4277560000000 1.0
C      1  0.5153100000000  0.4606430000000  0.4286570000000 1.0
C      1  0.4595170000000  0.5025290000000  0.4285980000000 1.0
C      1  0.5295780000000  0.4710820000000  0.5718480000000 1.0
C      1  0.5132420000000  0.5389040000000  0.5710950000000 1.0
C      1  0.4646890000000  0.4936480000000  0.5720760000000 1.0
C      1  0.4821430000000  0.5619540000000  0.5304490000000 1.0
C      1  0.5613440000000  0.4857540000000  0.5302220000000 1.0
C      1  0.4570630000000  0.4556710000000  0.5336760000000 1.0
C      1  0.4889640000000  0.4377250000000  0.4703440000000 1.0
C      1  0.5579460000000  0.5214990000000  0.4664930000000 1.0
C      1  0.4504110000000  0.5406360000000  0.4687920000000 1.0
C      1  0.4959170000000  0.5193770000000  0.4179220000000 1.0
C      1  0.5033520000000  0.4686960000000  0.4053370000000 1.0
C      1  0.4865570000000  0.4906020000000  0.4178380000000 1.0
C      1  0.5267670000000  0.4854930000000  0.5950020000000 1.0
C      1  0.5134000000000  0.5094650000000  0.5821610000000 1.0
C      1  0.4832730000000  0.5122760000000  0.5818440000000 1.0
C      1  0.5269210000000  0.5480220000000  0.5481990000000 1.0
C      1  0.5298430000000  0.4514110000000  0.5513440000000 1.0
C      1  0.4459700000000  0.5008970000000  0.5514350000000 1.0
C      1  0.5331240000000  0.4528140000000  0.4493650000000 1.0
C      1  0.5209450000000  0.5494260000000  0.4481930000000 1.0
C      1  0.4455690000000  0.4938220000000  0.4514920000000 1.0
C      1  0.5177320000000  0.4383030000000  0.4690410000000 1.0
C      1  0.4380550000000  0.5147510000000  0.4692100000000 1.0
C      1  0.5424230000000  0.5456870000000  0.4661510000000 1.0
C      1  0.5108060000000  0.5630320000000  0.5302140000000 1.0
C      1  0.4410100000000  0.4795130000000  0.5336630000000 1.0
C      1  0.5494000000000  0.4595860000000  0.5317140000000 1.0
C      1  0.4855610000000  0.4966020000000  0.5305410000000 1.0
C      1  0.5021110000000  0.5072880000000  0.5124360000000 1.0
C      1  0.5110780000000  0.4894720000000  0.5322690000000 1.0
C      1  0.4925570000000  0.5008220000000  0.4875040000000 1.0
C      1  0.5054930000000  0.4853240000000  0.4679170000000 1.0
C      1  0.5090510000000  0.5115930000000  0.4693990000000 1.0
C      1  0.5528610000000  0.4716290000000  0.4594470000000 1.0
C      1  0.4497730000000  0.4675230000000  0.4630490000000 1.0
C      1  0.4958380000000  0.5587090000000  0.4593310000000 1.0
C      1  0.5494760000000  0.5336190000000  0.5369430000000 1.0
C      1  0.4474770000000  0.5275110000000  0.5400320000000 1.0
C      1  0.5048130000000  0.4406450000000  0.5412010000000 1.0
END
