TITL C-122890-6724-4 -0.409181131916716 125000 -785.353532705608 0 0 113 (C1) n - 1
REM
REM in /rds/project/t2_vol4/rds-t2-cs072/BORA/CARBON/from-Arr/AIRSS/Generating-Clusters/GAP-ML-2020/Higher-Symm/SD-CG/HFTN-CG
REM
REM
REM
REM
REM
REM ./C.cell (b20cbc046b6831c77cfcea5457e17084)
REM AIRSS Version 0.9.1 bugfix July 2018 build 013d7b7c2542+ Fri, 06 Jul 2018 19:26:36 +0100
REM compiler GCC version 9.3.0
REM options -cpp -mtune=generic -march=x86-64 -g -O0
REM seed 2055718494 -932326019 1965780675 -858529268 1931897423 -791993929 -1468608136 -1281030011 -239333107 -1542161033 -1267517646 -528790653 1300485201 -1629372343 1779099759 1704944086 -1244378905 -1930046977 -2084133425 -497472754 -2104493916 -380188920 -612290881 -1836265877 -449340878 1118490062 -433586077 1632180066 434439258 -1858803317 -979700269 -1201181565 -584632368
REM
CELL 1.54180   50.00000   50.00000   50.00000   90.00000   90.00000   90.00000
LATT -1
SFAC C  
C      1  0.4680940000000  0.5185100000000  0.5063310000000 1.0
C      1  0.4531180000000  0.4793680000000  0.5731160000000 1.0
C      1  0.4719000000000  0.4598880000000  0.5791310000000 1.0
C      1  0.4362970000000  0.4931550000000  0.4336760000000 1.0
C      1  0.5372500000000  0.4913010000000  0.5844450000000 1.0
C      1  0.4738270000000  0.5523500000000  0.5751100000000 1.0
C      1  0.5381300000000  0.4507770000000  0.5641660000000 1.0
C      1  0.5073800000000  0.4554580000000  0.4439820000000 1.0
C      1  0.5252800000000  0.5541700000000  0.4440360000000 1.0
C      1  0.5211650000000  0.5620550000000  0.4926080000000 1.0
C      1  0.5536820000000  0.4948580000000  0.4230550000000 1.0
C      1  0.5159800000000  0.5714840000000  0.4643560000000 1.0
C      1  0.4955390000000  0.5601870000000  0.5367420000000 1.0
C      1  0.4836680000000  0.4653620000000  0.5232760000000 1.0
C      1  0.4970190000000  0.4423870000000  0.4688910000000 1.0
C      1  0.4944730000000  0.5300920000000  0.4766000000000 1.0
C      1  0.4462210000000  0.5584360000000  0.5377860000000 1.0
C      1  0.5197560000000  0.5316010000000  0.4914220000000 1.0
C      1  0.5246070000000  0.4661180000000  0.5844890000000 1.0
C      1  0.5133260000000  0.5387870000000  0.6048490000000 1.0
C      1  0.4838140000000  0.4750100000000  0.4939320000000 1.0
C      1  0.5640030000000  0.5138840000000  0.4991480000000 1.0
C      1  0.5039790000000  0.6112800000000  0.5084690000000 1.0
C      1  0.4350400000000  0.5572080000000  0.5110690000000 1.0
C      1  0.5611750000000  0.5145040000000  0.5473210000000 1.0
C      1  0.5274530000000  0.4927290000000  0.4675830000000 1.0
C      1  0.4642520000000  0.5238840000000  0.4373540000000 1.0
C      1  0.4206980000000  0.4933250000000  0.5327740000000 1.0
C      1  0.4589900000000  0.5010550000000  0.4179360000000 1.0
C      1  0.4783360000000  0.4826710000000  0.4093850000000 1.0
C      1  0.4300320000000  0.4443510000000  0.5103840000000 1.0
C      1  0.4752930000000  0.5116240000000  0.5320750000000 1.0
C      1  0.5593710000000  0.4922440000000  0.5649000000000 1.0
C      1  0.4407380000000  0.4746110000000  0.5460200000000 1.0
C      1  0.4685160000000  0.4847870000000  0.5379660000000 1.0
C      1  0.5338710000000  0.4108910000000  0.5051790000000 1.0
C      1  0.4991920000000  0.4219210000000  0.5351320000000 1.0
C      1  0.5810070000000  0.4932090000000  0.4611730000000 1.0
C      1  0.5030140000000  0.4117580000000  0.4670340000000 1.0
C      1  0.5643610000000  0.5426010000000  0.5391070000000 1.0
C      1  0.4553680000000  0.5307440000000  0.5765990000000 1.0
C      1  0.5440600000000  0.5872660000000  0.5280300000000 1.0
C      1  0.5444210000000  0.4378050000000  0.4679700000000 1.0
C      1  0.5234490000000  0.6054460000000  0.5246780000000 1.0
C      1  0.5132330000000  0.5310220000000  0.5647030000000 1.0
C      1  0.5603430000000  0.4644940000000  0.5527550000000 1.0
C      1  0.4684260000000  0.5681220000000  0.4564360000000 1.0
C      1  0.4637900000000  0.5047670000000  0.5848290000000 1.0
C      1  0.4939620000000  0.4137340000000  0.4399530000000 1.0
C      1  0.4296330000000  0.5320420000000  0.4706750000000 1.0
C      1  0.5185830000000  0.5181380000000  0.5181420000000 1.0
C      1  0.4362150000000  0.5197880000000  0.4464460000000 1.0
C      1  0.5817770000000  0.4912160000000  0.4904190000000 1.0
C      1  0.5107180000000  0.4690250000000  0.5338930000000 1.0
C      1  0.4708000000000  0.5653350000000  0.5501140000000 1.0
C      1  0.4708440000000  0.4545950000000  0.4135780000000 1.0
C      1  0.5513320000000  0.5374090000000  0.4532760000000 1.0
C      1  0.5235930000000  0.4887120000000  0.5172320000000 1.0
C      1  0.4763850000000  0.5502960000000  0.4347400000000 1.0
C      1  0.5050110000000  0.4885730000000  0.4479620000000 1.0
C      1  0.5678040000000  0.5573520000000  0.4654240000000 1.0
C      1  0.4163190000000  0.5363510000000  0.5139690000000 1.0
C      1  0.5106250000000  0.5229370000000  0.4112170000000 1.0
C      1  0.5171210000000  0.4786790000000  0.4905500000000 1.0
C      1  0.5165390000000  0.5130660000000  0.5893220000000 1.0
C      1  0.4720620000000  0.4992850000000  0.4857990000000 1.0
C      1  0.5703770000000  0.4499270000000  0.4751110000000 1.0
C      1  0.4343330000000  0.4643640000000  0.4411300000000 1.0
C      1  0.4658690000000  0.4183730000000  0.5029210000000 1.0
C      1  0.5015420000000  0.5522880000000  0.5828540000000 1.0
C      1  0.4435570000000  0.4502750000000  0.4188340000000 1.0
C      1  0.5664350000000  0.5113510000000  0.4426930000000 1.0
C      1  0.4993180000000  0.5266350000000  0.5386370000000 1.0
C      1  0.5767140000000  0.4672270000000  0.4529460000000 1.0
C      1  0.4885200000000  0.4038570000000  0.4931410000000 1.0
C      1  0.5326400000000  0.4122080000000  0.4764770000000 1.0
C      1  0.4490280000000  0.5538490000000  0.4817240000000 1.0
C      1  0.5473920000000  0.5066880000000  0.5229610000000 1.0
C      1  0.5308800000000  0.5040240000000  0.4084280000000 1.0
C      1  0.4148400000000  0.5185530000000  0.4921000000000 1.0
C      1  0.5454220000000  0.5758060000000  0.5020510000000 1.0
C      1  0.5682870000000  0.5624860000000  0.4922400000000 1.0
C      1  0.5410060000000  0.5185250000000  0.4761180000000 1.0
C      1  0.4906340000000  0.4374640000000  0.4255150000000 1.0
C      1  0.4436300000000  0.4462730000000  0.5347240000000 1.0
C      1  0.5044850000000  0.4944470000000  0.4172000000000 1.0
C      1  0.5457170000000  0.5647820000000  0.5470610000000 1.0
C      1  0.4838790000000  0.5084270000000  0.4602360000000 1.0
C      1  0.4906100000000  0.4976360000000  0.5919400000000 1.0
C      1  0.5772670000000  0.4636380000000  0.4999460000000 1.0
C      1  0.4447100000000  0.4307520000000  0.4889930000000 1.0
C      1  0.5651030000000  0.4529750000000  0.5249200000000 1.0
C      1  0.5724510000000  0.5408500000000  0.5110240000000 1.0
C      1  0.4939020000000  0.5664070000000  0.5074200000000 1.0
C      1  0.4193750000000  0.5213490000000  0.5387990000000 1.0
C      1  0.4958880000000  0.4699610000000  0.5885490000000 1.0
C      1  0.5192630000000  0.4509020000000  0.4854160000000 1.0
C      1  0.4154010000000  0.4912110000000  0.5042810000000 1.0
C      1  0.4359300000000  0.5371120000000  0.5552630000000 1.0
C      1  0.5044890000000  0.5461980000000  0.4261820000000 1.0
C      1  0.5226010000000  0.4400580000000  0.5406320000000 1.0
C      1  0.5074850000000  0.4047780000000  0.5142730000000 1.0
C      1  0.5565730000000  0.4674510000000  0.4323250000000 1.0
C      1  0.4898420000000  0.5832810000000  0.4661320000000 1.0
C      1  0.4896600000000  0.5925930000000  0.4945550000000 1.0
C      1  0.4408540000000  0.4552510000000  0.4703820000000 1.0
C      1  0.4224800000000  0.4659610000000  0.4932660000000 1.0
C      1  0.5189680000000  0.5597810000000  0.5564280000000 1.0
C      1  0.4755130000000  0.5447060000000  0.4941570000000 1.0
C      1  0.4721610000000  0.4349430000000  0.5278120000000 1.0
C      1  0.5365110000000  0.4501360000000  0.4427040000000 1.0
C      1  0.4714950000000  0.4563120000000  0.4759250000000 1.0
C      1  0.5447070000000  0.4318390000000  0.5228580000000 1.0
END
