TITL C-129385-2346-3 -330.513673255319 125000 -1157.95618302226 0 0 164 (C1) n - 1
REM
REM in /rds/project/t2_vol4/rds-t2-cs072/BORA/CARBON/from-Arr/AIRSS/Generating-Clusters/GAP-ML-2020/Higher-Symm/SD-CG/HFTN-CG/C160-200
REM
REM
REM
REM
REM
REM ./C.cell (6b4489405718ea1b717e0baf1da4c2d9)
REM AIRSS Version 0.9.1 bugfix July 2018 build 013d7b7c2542+ Fri, 06 Jul 2018 19:26:36 +0100
REM compiler GCC version 9.3.0
REM options -cpp -mtune=generic -march=x86-64 -g -O0
REM seed 771743655 -1203748166 1444256541 1169137292 1850183222 1498672373 1771473086 1718737065 1809111468 -1020118123 2066918687 48664473 -1738417863 -1710001968 1671739750 -620123799 -1299895402 1458345413 133834398 647143483 2037987853 855370661 -1689511348 -677781513 -68528269 265042877 -171059766 628179714 -1423083918 837675880 -524269427 1685017560 -973800843
REM
CELL 1.54180   50.00000   50.00000   50.00000   90.00000   90.00000   90.00000
LATT -1
SFAC C  
C      1  0.5468580000000  0.4884320000000  0.4756070000000 1.0
C      1  0.5467180000000  0.4720210000000  0.5022870000000 1.0
C      1  0.5456430000000  0.4924480000000  0.5261000000000 1.0
C      1  0.5460460000000  0.5210500000000  0.5137210000000 1.0
C      1  0.5470180000000  0.5189030000000  0.4825520000000 1.0
C      1  0.4373790000000  0.5830790000000  0.5177560000000 1.0
C      1  0.4529200000000  0.5496840000000  0.4119640000000 1.0
C      1  0.4380790000000  0.4325530000000  0.4445600000000 1.0
C      1  0.4521240000000  0.4092630000000  0.5370090000000 1.0
C      1  0.4450110000000  0.5373020000000  0.6058510000000 1.0
C      1  0.5062500000000  0.4919880000000  0.4795860000000 1.0
C      1  0.4989580000000  0.4755050000000  0.5001860000000 1.0
C      1  0.4963670000000  0.4913130000000  0.5246040000000 1.0
C      1  0.4953320000000  0.5192340000000  0.5152870000000 1.0
C      1  0.4728680000000  0.5219130000000  0.4674910000000 1.0
C      1  0.5737610000000  0.5628380000000  0.5052130000000 1.0
C      1  0.5734170000000  0.5235560000000  0.4392270000000 1.0
C      1  0.5718270000000  0.4485170000000  0.4563010000000 1.0
C      1  0.5723890000000  0.4411760000000  0.5328560000000 1.0
C      1  0.5737490000000  0.5119930000000  0.5633260000000 1.0
C      1  0.5083100000000  0.3886790000000  0.5318760000000 1.0
C      1  0.5104800000000  0.4999780000000  0.6143430000000 1.0
C      1  0.5120830000000  0.6080440000000  0.5359850000000 1.0
C      1  0.5100940000000  0.5657130000000  0.4082660000000 1.0
C      1  0.5069740000000  0.4307130000000  0.4069870000000 1.0
C      1  0.4984720000000  0.5818250000000  0.4675760000000 1.0
C      1  0.5003840000000  0.4929340000000  0.4095980000000 1.0
C      1  0.4997160000000  0.4142910000000  0.4773730000000 1.0
C      1  0.5099580000000  0.4440610000000  0.5768900000000 1.0
C      1  0.5028490000000  0.5572830000000  0.5701340000000 1.0
C      1  0.4662870000000  0.4897400000000  0.5897170000000 1.0
C      1  0.4803810000000  0.5720360000000  0.5522350000000 1.0
C      1  0.4778960000000  0.5682630000000  0.4472930000000 1.0
C      1  0.4768640000000  0.4712550000000  0.4179760000000 1.0
C      1  0.4779080000000  0.4162860000000  0.4997650000000 1.0
C      1  0.5282800000000  0.4498190000000  0.3991140000000 1.0
C      1  0.5285180000000  0.3878030000000  0.5112250000000 1.0
C      1  0.5283090000000  0.4780560000000  0.6082420000000 1.0
C      1  0.5330760000000  0.5967700000000  0.5531410000000 1.0
C      1  0.5300590000000  0.5796440000000  0.4247020000000 1.0
C      1  0.5953520000000  0.5184660000000  0.5110100000000 1.0
C      1  0.5956500000000  0.5149090000000  0.4829580000000 1.0
C      1  0.5957170000000  0.4870480000000  0.4776730000000 1.0
C      1  0.5952490000000  0.4735300000000  0.5025920000000 1.0
C      1  0.5950500000000  0.4928970000000  0.5232190000000 1.0
C      1  0.5119340000000  0.5285950000000  0.4445500000000 1.0
C      1  0.5090860000000  0.4579230000000  0.4550390000000 1.0
C      1  0.5079940000000  0.4446870000000  0.5252110000000 1.0
C      1  0.5065650000000  0.5078550000000  0.5610140000000 1.0
C      1  0.5091260000000  0.5586390000000  0.5115280000000 1.0
C      1  0.4250370000000  0.5263610000000  0.4350080000000 1.0
C      1  0.4329580000000  0.4578680000000  0.4597800000000 1.0
C      1  0.4320720000000  0.4458670000000  0.5254790000000 1.0
C      1  0.4290130000000  0.5222430000000  0.5624010000000 1.0
C      1  0.4223760000000  0.5671070000000  0.4994750000000 1.0
C      1  0.5105930000000  0.5921650000000  0.4415780000000 1.0
C      1  0.5097740000000  0.4705170000000  0.3919330000000 1.0
C      1  0.5091760000000  0.3893160000000  0.4906020000000 1.0
C      1  0.5062940000000  0.4606240000000  0.6009190000000 1.0
C      1  0.5147280000000  0.5853850000000  0.5715420000000 1.0
C      1  0.4698130000000  0.5336800000000  0.5257280000000 1.0
C      1  0.4522660000000  0.5327730000000  0.4837680000000 1.0
C      1  0.4587220000000  0.4989370000000  0.4568720000000 1.0
C      1  0.4702400000000  0.4688580000000  0.4955740000000 1.0
C      1  0.4689900000000  0.4838230000000  0.5386550000000 1.0
C      1  0.5212180000000  0.4541010000000  0.5015240000000 1.0
C      1  0.5192020000000  0.4873480000000  0.5438970000000 1.0
C      1  0.5202050000000  0.5355930000000  0.5250110000000 1.0
C      1  0.5208720000000  0.5343470000000  0.4719260000000 1.0
C      1  0.5221210000000  0.4835590000000  0.4573130000000 1.0
C      1  0.4877120000000  0.4819780000000  0.6069660000000 1.0
C      1  0.4937200000000  0.5980860000000  0.5555410000000 1.0
C      1  0.4904160000000  0.5799170000000  0.4235820000000 1.0
C      1  0.4887160000000  0.4514670000000  0.3989670000000 1.0
C      1  0.4882330000000  0.3907950000000  0.5119810000000 1.0
C      1  0.4527210000000  0.5655490000000  0.5586340000000 1.0
C      1  0.4490060000000  0.5686380000000  0.4526020000000 1.0
C      1  0.4477920000000  0.4777010000000  0.4174670000000 1.0
C      1  0.4518290000000  0.4127860000000  0.4882310000000 1.0
C      1  0.4395860000000  0.4922720000000  0.5932230000000 1.0
C      1  0.5731610000000  0.4605040000000  0.5535950000000 1.0
C      1  0.5755070000000  0.5376300000000  0.5511450000000 1.0
C      1  0.5751600000000  0.5592850000000  0.4772800000000 1.0
C      1  0.5742460000000  0.4956380000000  0.4340380000000 1.0
C      1  0.5736320000000  0.4350920000000  0.4809700000000 1.0
C      1  0.5596290000000  0.5074720000000  0.5874250000000 1.0
C      1  0.5594190000000  0.5841900000000  0.5168890000000 1.0
C      1  0.5596860000000  0.5421510000000  0.4225100000000 1.0
C      1  0.5562430000000  0.4384280000000  0.4347460000000 1.0
C      1  0.5585250000000  0.4163600000000  0.5351470000000 1.0
C      1  0.5392500000000  0.4355520000000  0.5756720000000 1.0
C      1  0.5507250000000  0.5542360000000  0.5865490000000 1.0
C      1  0.5485340000000  0.5976960000000  0.4733930000000 1.0
C      1  0.5477840000000  0.5039450000000  0.3968840000000 1.0
C      1  0.5464210000000  0.4016570000000  0.4617190000000 1.0
C      1  0.5401410000000  0.4143980000000  0.5575320000000 1.0
C      1  0.5442030000000  0.5302310000000  0.5976650000000 1.0
C      1  0.5407680000000  0.5997600000000  0.4991270000000 1.0
C      1  0.5418780000000  0.5300590000000  0.4018720000000 1.0
C      1  0.5372860000000  0.4151480000000  0.4401770000000 1.0
C      1  0.4562550000000  0.4150000000000  0.4581280000000 1.0
C      1  0.4658210000000  0.4252820000000  0.5548690000000 1.0
C      1  0.4699280000000  0.5426350000000  0.6046720000000 1.0
C      1  0.4651440000000  0.5803870000000  0.5027630000000 1.0
C      1  0.4689190000000  0.5272900000000  0.4168720000000 1.0
C      1  0.5608920000000  0.4098250000000  0.4839350000000 1.0
C      1  0.5581750000000  0.4570710000000  0.5772530000000 1.0
C      1  0.5635830000000  0.5604880000000  0.5629610000000 1.0
C      1  0.5623620000000  0.5778030000000  0.4599270000000 1.0
C      1  0.5606200000000  0.4843070000000  0.4115590000000 1.0
C      1  0.4746520000000  0.5030030000000  0.5631470000000 1.0
C      1  0.4802940000000  0.5623530000000  0.5219650000000 1.0
C      1  0.4828390000000  0.5371020000000  0.4436690000000 1.0
C      1  0.4813620000000  0.4620450000000  0.4467100000000 1.0
C      1  0.4779990000000  0.4440710000000  0.5151850000000 1.0
C      1  0.4465270000000  0.5630000000000  0.4816350000000 1.0
C      1  0.4473650000000  0.5063370000000  0.4293860000000 1.0
C      1  0.4612460000000  0.4707630000000  0.4664410000000 1.0
C      1  0.4593970000000  0.4522680000000  0.5387840000000 1.0
C      1  0.4572740000000  0.5297970000000  0.5545580000000 1.0
C      1  0.3959010000000  0.5261800000000  0.4796800000000 1.0
C      1  0.4011620000000  0.4905920000000  0.4501260000000 1.0
C      1  0.4010950000000  0.4777920000000  0.4961140000000 1.0
C      1  0.4072410000000  0.4835800000000  0.5419720000000 1.0
C      1  0.3970150000000  0.5228940000000  0.5211660000000 1.0
C      1  0.4923520000000  0.4212680000000  0.5662380000000 1.0
C      1  0.4961510000000  0.5448110000000  0.5976390000000 1.0
C      1  0.4887800000000  0.5981400000000  0.4913860000000 1.0
C      1  0.4923020000000  0.5199060000000  0.3998120000000 1.0
C      1  0.4863260000000  0.4109360000000  0.4512880000000 1.0
C      1  0.5747910000000  0.4527680000000  0.5051240000000 1.0
C      1  0.5751840000000  0.4889020000000  0.5442790000000 1.0
C      1  0.5757510000000  0.5373980000000  0.5215980000000 1.0
C      1  0.5756560000000  0.5309090000000  0.4685890000000 1.0
C      1  0.5759000000000  0.4784070000000  0.4580710000000 1.0
C      1  0.4373360000000  0.4189110000000  0.5141690000000 1.0
C      1  0.4308620000000  0.5181710000000  0.5904420000000 1.0
C      1  0.4364790000000  0.5820240000000  0.5449790000000 1.0
C      1  0.4357640000000  0.5529350000000  0.4327520000000 1.0
C      1  0.4348810000000  0.4556070000000  0.4295080000000 1.0
C      1  0.5156050000000  0.4399120000000  0.4763040000000 1.0
C      1  0.5147200000000  0.4590850000000  0.5489650000000 1.0
C      1  0.5153510000000  0.5342270000000  0.5543690000000 1.0
C      1  0.5144300000000  0.5602630000000  0.4833800000000 1.0
C      1  0.5170370000000  0.5017560000000  0.4350210000000 1.0
C      1  0.5517920000000  0.4563940000000  0.4131770000000 1.0
C      1  0.5526490000000  0.4020680000000  0.5108090000000 1.0
C      1  0.5518200000000  0.4803350000000  0.5929800000000 1.0
C      1  0.5556170000000  0.5824210000000  0.5450620000000 1.0
C      1  0.5541160000000  0.5680530000000  0.4336040000000 1.0
C      1  0.5168400000000  0.5267490000000  0.6078400000000 1.0
C      1  0.5119040000000  0.6061870000000  0.5077900000000 1.0
C      1  0.5134720000000  0.5394580000000  0.3983010000000 1.0
C      1  0.5076410000000  0.4146970000000  0.4305210000000 1.0
C      1  0.5126030000000  0.4038660000000  0.5548790000000 1.0
C      1  0.4112380000000  0.4660380000000  0.5215150000000 1.0
C      1  0.4080350000000  0.5110970000000  0.5455690000000 1.0
C      1  0.4027420000000  0.5452030000000  0.5014160000000 1.0
C      1  0.4032950000000  0.5182330000000  0.4524090000000 1.0
C      1  0.4087040000000  0.4718160000000  0.4690250000000 1.0
C      1  0.3923240000000  0.5046990000000  0.4990140000000 1.0
C      1  0.4527330000000  0.5185300000000  0.5080210000000 1.0
C      1  0.4977560000000  0.5178900000000  0.4846110000000 1.0
C      1  0.4561250000000  0.4905520000000  0.5129040000000 1.0
END
