TITL C-126796-9189-4 0.0327716510585391 125000 -281.281817261633 0 0 44 (C1) n - 1
REM
REM in /rds/project/t2_vol4/rds-t2-cs072/BORA/CARBON/from-Arr/AIRSS/Generating-Clusters/GAP-ML-2020/Higher-Symm/SD-CG/HFTN-CG
REM
REM
REM
REM
REM
REM ./C.cell (b20cbc046b6831c77cfcea5457e17084)
REM AIRSS Version 0.9.1 bugfix July 2018 build 013d7b7c2542+ Fri, 06 Jul 2018 19:26:36 +0100
REM compiler GCC version 9.3.0
REM options -cpp -mtune=generic -march=x86-64 -g -O0
REM seed -1582621599 1122086693 -2114199703 830879268 -1095012764 -1365811603 1461332388 2092704619 1017982872 227652700 1077140977 -893860429 1472986322 -1630142724 -698363092 573778499 1935984487 -1154783580 2113279572 -2128320772 -940790155 -98065947 431945770 -1392650533 1297619571 868200701 -809229722 499926548 -276603368 -161482318 -1194055254 -1293353457 -386971710
REM
CELL 1.54180   50.00000   50.00000   50.00000   90.00000   90.00000   90.00000
LATT -1
SFAC C  
C      1  0.4665700000000  0.5181010000000  0.5541150000000 1.0
C      1  0.5524880000000  0.4660710000000  0.5152760000000 1.0
C      1  0.5170630000000  0.5555230000000  0.4654320000000 1.0
C      1  0.5123960000000  0.4698050000000  0.5478210000000 1.0
C      1  0.5268580000000  0.5329940000000  0.4519320000000 1.0
C      1  0.4756150000000  0.4747680000000  0.4532070000000 1.0
C      1  0.4522280000000  0.5285900000000  0.5311850000000 1.0
C      1  0.4540630000000  0.4804580000000  0.4703480000000 1.0
C      1  0.5425100000000  0.5185080000000  0.4713750000000 1.0
C      1  0.4758360000000  0.4618130000000  0.4792530000000 1.0
C      1  0.4694610000000  0.5451340000000  0.5161130000000 1.0
C      1  0.5288480000000  0.4533720000000  0.5322000000000 1.0
C      1  0.4809750000000  0.5281300000000  0.4575510000000 1.0
C      1  0.5463010000000  0.4712230000000  0.4654950000000 1.0
C      1  0.5255430000000  0.5561650000000  0.5137860000000 1.0
C      1  0.5261030000000  0.4768020000000  0.4475310000000 1.0
C      1  0.5389720000000  0.5352430000000  0.5262060000000 1.0
C      1  0.4652210000000  0.4596490000000  0.5429470000000 1.0
C      1  0.4453220000000  0.5288270000000  0.4770810000000 1.0
C      1  0.4546980000000  0.4812210000000  0.5277490000000 1.0
C      1  0.5602770000000  0.5168400000000  0.5212540000000 1.0
C      1  0.4739690000000  0.4405380000000  0.5251050000000 1.0
C      1  0.4642560000000  0.5476960000000  0.4695510000000 1.0
C      1  0.5373600000000  0.4577150000000  0.4907020000000 1.0
C      1  0.4447690000000  0.5040690000000  0.4873980000000 1.0
C      1  0.4877700000000  0.4432840000000  0.5021130000000 1.0
C      1  0.5022250000000  0.4887790000000  0.4442570000000 1.0
C      1  0.5595420000000  0.4953740000000  0.4761320000000 1.0
C      1  0.5617480000000  0.4932400000000  0.5069040000000 1.0
C      1  0.4419610000000  0.5036150000000  0.5165800000000 1.0
C      1  0.5078020000000  0.5589290000000  0.4909970000000 1.0
C      1  0.5163740000000  0.4430180000000  0.5061220000000 1.0
C      1  0.4776500000000  0.5595320000000  0.4931300000000 1.0
C      1  0.5027500000000  0.5180710000000  0.4425440000000 1.0
C      1  0.4867900000000  0.4711450000000  0.5603770000000 1.0
C      1  0.4789350000000  0.4987910000000  0.5644280000000 1.0
C      1  0.4816600000000  0.4934210000000  0.5174790000000 1.0
C      1  0.5175480000000  0.4827990000000  0.4978130000000 1.0
C      1  0.4927140000000  0.5142480000000  0.4822960000000 1.0
C      1  0.5155360000000  0.5184790000000  0.5184800000000 1.0
C      1  0.5100750000000  0.4895940000000  0.5263900000000 1.0
C      1  0.4868980000000  0.5225900000000  0.5108570000000 1.0
C      1  0.5215840000000  0.5110050000000  0.4895100000000 1.0
C      1  0.4896000000000  0.4853130000000  0.4903180000000 1.0
END
