TITL C-123189-8040-8 -8.72703084743399 125000 -29.795987804562 0 0 5 (D(inf)h) n - 1
REM
REM in /rds/project/t2_vol4/rds-t2-cs072/BORA/CARBON/from-Arr/AIRSS/Generating-Clusters/GAP-ML-2020/Higher-Symm/SD-CG/HFTN-CG
REM
REM
REM
REM
REM
REM ./C.cell (b20cbc046b6831c77cfcea5457e17084)
REM AIRSS Version 0.9.1 bugfix July 2018 build 013d7b7c2542+ Fri, 06 Jul 2018 19:26:36 +0100
REM compiler GCC version 9.3.0
REM options -cpp -mtune=generic -march=x86-64 -g -O0
REM seed 1196365121 119550304 140736200 -1098994308 -999354027 -951275603 1165948242 2052533725 1661383136 -1638097677 -1739687943 -561469098 2111793193 1614464313 1681395479 -1497454909 350629692 1218276127 1432081880 -165802947 295446802 505213979 -485109481 -2032830946 304743592 -1403570576 -361120663 -46354887 1923758743 1781945480 -830711187 477846164 -1237738418
REM
CELL 1.54180   50.00000   50.00000   50.00000   90.00000   90.00000   90.00000
LATT -1
SFAC C  
C      1  0.4539960000000  0.4851400000000  0.5047140000000 1.0
C      1  0.5270110000000  0.5094990000000  0.4952380000000 1.0
C      1  0.4783440000000  0.4932620000000  0.5015540000000 1.0
C      1  0.5513590000000  0.5176220000000  0.4920780000000 1.0
C      1  0.5026770000000  0.5013810000000  0.4983960000000 1.0
END
