TITL C-126819-9175-8 -0.0228913809883734 125000 -43.2318204282361 0 0 8 (Td) n - 1
REM
REM in /rds/project/t2_vol4/rds-t2-cs072/BORA/CARBON/from-Arr/AIRSS/Generating-Clusters/GAP-ML-2020/Higher-Symm/SD-CG/HFTN-CG
REM
REM
REM
REM
REM
REM ./C.cell (b20cbc046b6831c77cfcea5457e17084)
REM AIRSS Version 0.9.1 bugfix July 2018 build 013d7b7c2542+ Fri, 06 Jul 2018 19:26:36 +0100
REM compiler GCC version 9.3.0
REM options -cpp -mtune=generic -march=x86-64 -g -O0
REM seed -1782270976 1878152301 -165069136 -1631329415 1977699980 1246194975 159445765 -1346019848 -277827222 -1658867614 -1043498279 871345977 -432458509 815162992 -543434550 -218148683 -426289793 -504154114 1121061151 162406147 1636009389 672957640 -305017533 1215103595 1367814193 -527994450 -1090911525 -989443176 1396184262 -1707466661 1281116769 414402324 676416857
REM
CELL 1.54180   50.00000   50.00000   50.00000   90.00000   90.00000   90.00000
LATT -1
SFAC C  
C      1  0.4962070000000  0.5095210000000  0.4709150000000 1.0
C      1  0.4806480000000  0.4915630000000  0.4911680000000 1.0
C      1  0.4853150000000  0.5095250000000  0.5162750000000 1.0
C      1  0.5106320000000  0.4915630000000  0.5196230000000 1.0
C      1  0.5300440000000  0.5095210000000  0.5030270000000 1.0
C      1  0.5202830000000  0.4915600000000  0.4794290000000 1.0
C      1  0.5038560000000  0.5253130000000  0.4967380000000 1.0
C      1  0.5038530000000  0.4714330000000  0.4967410000000 1.0
END
