TITL C-127498-304-9 -22.8848324450317 125000 -974.716153454609 0 0 142 (C1) n - 1
REM
REM in /rds/project/t2_vol4/rds-t2-cs072/BORA/CARBON/from-Arr/AIRSS/Generating-Clusters/GAP-ML-2020/Higher-Symm/SD-CG/HFTN-CG
REM
REM
REM
REM
REM
REM ./C.cell (b20cbc046b6831c77cfcea5457e17084)
REM AIRSS Version 0.9.1 bugfix July 2018 build 013d7b7c2542+ Fri, 06 Jul 2018 19:26:36 +0100
REM compiler GCC version 9.3.0
REM options -cpp -mtune=generic -march=x86-64 -g -O0
REM seed 78870542 395471407 -1987267551 -1714907536 -803952332 844322925 1180993061 -693101071 1147304355 -1842031918 -175355011 853487105 -136191451 1143449144 -404314613 1252177197 44843266 -361763016 2003286151 -153996290 -1574596547 1899191253 1272091736 -1382024546 308593431 1602253317 -1099425639 -1128493723 -535081204 -776251854 324820305 -1638320166 -1814302234
REM
CELL 1.54180   50.00000   50.00000   50.00000   90.00000   90.00000   90.00000
LATT -1
SFAC C  
C      1  0.5381790000000  0.4559460000000  0.4218280000000 1.0
C      1  0.4892430000000  0.4432150000000  0.4218720000000 1.0
C      1  0.4492880000000  0.4745480000000  0.4247870000000 1.0
C      1  0.4481160000000  0.5204880000000  0.4235760000000 1.0
C      1  0.4843010000000  0.5534600000000  0.4232000000000 1.0
C      1  0.5348070000000  0.5444740000000  0.4254100000000 1.0
C      1  0.5575680000000  0.5003570000000  0.4249770000000 1.0
C      1  0.4508550000000  0.4351360000000  0.5627600000000 1.0
C      1  0.4186310000000  0.4987620000000  0.5640760000000 1.0
C      1  0.4456630000000  0.5648030000000  0.5651590000000 1.0
C      1  0.5150740000000  0.5814330000000  0.5626380000000 1.0
C      1  0.5714070000000  0.5383530000000  0.5625270000000 1.0
C      1  0.5772380000000  0.4678980000000  0.5662320000000 1.0
C      1  0.5198230000000  0.4208790000000  0.5622660000000 1.0
C      1  0.4583560000000  0.4792890000000  0.5206020000000 1.0
C      1  0.4526040000000  0.5101590000000  0.5212010000000 1.0
C      1  0.4838100000000  0.5547110000000  0.5179880000000 1.0
C      1  0.5316130000000  0.5350860000000  0.5213520000000 1.0
C      1  0.5481110000000  0.5058530000000  0.5204880000000 1.0
C      1  0.5420520000000  0.4500690000000  0.5127330000000 1.0
C      1  0.4906230000000  0.4420530000000  0.5164140000000 1.0
C      1  0.5807980000000  0.5412430000000  0.4990320000000 1.0
C      1  0.5881740000000  0.4647630000000  0.4992940000000 1.0
C      1  0.5173850000000  0.4084080000000  0.4986920000000 1.0
C      1  0.4441780000000  0.4295280000000  0.4990950000000 1.0
C      1  0.4101770000000  0.4990650000000  0.4992430000000 1.0
C      1  0.4408330000000  0.5701740000000  0.5010540000000 1.0
C      1  0.5177110000000  0.5862120000000  0.5001820000000 1.0
C      1  0.4970560000000  0.4107910000000  0.5477110000000 1.0
C      1  0.4313110000000  0.4483520000000  0.5464520000000 1.0
C      1  0.4148540000000  0.5223770000000  0.5481220000000 1.0
C      1  0.4620050000000  0.5815820000000  0.5487560000000 1.0
C      1  0.5383060000000  0.5777710000000  0.5463350000000 1.0
C      1  0.5848900000000  0.5182970000000  0.5470920000000 1.0
C      1  0.5707950000000  0.4480320000000  0.5475440000000 1.0
C      1  0.5852350000000  0.4989200000000  0.4354530000000 1.0
C      1  0.5527070000000  0.4351760000000  0.4364950000000 1.0
C      1  0.4803410000000  0.4185780000000  0.4337640000000 1.0
C      1  0.4229960000000  0.4660710000000  0.4363520000000 1.0
C      1  0.4270880000000  0.5348890000000  0.4361010000000 1.0
C      1  0.4796310000000  0.5788160000000  0.4356340000000 1.0
C      1  0.5533130000000  0.5648870000000  0.4363510000000 1.0
C      1  0.5763770000000  0.5606850000000  0.4549620000000 1.0
C      1  0.5956880000000  0.4786290000000  0.4549020000000 1.0
C      1  0.5341360000000  0.4253860000000  0.4590330000000 1.0
C      1  0.4623750000000  0.4250060000000  0.4569750000000 1.0
C      1  0.4058130000000  0.4810620000000  0.4554940000000 1.0
C      1  0.4387480000000  0.5475510000000  0.4615370000000 1.0
C      1  0.4983470000000  0.5800450000000  0.4593960000000 1.0
C      1  0.4610750000000  0.5521670000000  0.5888110000000 1.0
C      1  0.5147240000000  0.5628880000000  0.5877870000000 1.0
C      1  0.5561460000000  0.5272970000000  0.5873000000000 1.0
C      1  0.5555010000000  0.4728080000000  0.5889260000000 1.0
C      1  0.5126100000000  0.4374740000000  0.5869060000000 1.0
C      1  0.4600520000000  0.4520050000000  0.5874830000000 1.0
C      1  0.4378100000000  0.5024490000000  0.5879880000000 1.0
C      1  0.4649340000000  0.5775810000000  0.5188000000000 1.0
C      1  0.5384110000000  0.5703740000000  0.5171730000000 1.0
C      1  0.5812720000000  0.5154050000000  0.5164630000000 1.0
C      1  0.5711780000000  0.4522650000000  0.5191610000000 1.0
C      1  0.4938790000000  0.4128650000000  0.5169380000000 1.0
C      1  0.4346330000000  0.4539220000000  0.5166560000000 1.0
C      1  0.4213800000000  0.5210290000000  0.5183040000000 1.0
C      1  0.4916330000000  0.4004510000000  0.4542750000000 1.0
C      1  0.4197300000000  0.4445440000000  0.4570390000000 1.0
C      1  0.4059630000000  0.5289180000000  0.4559970000000 1.0
C      1  0.4607300000000  0.5901450000000  0.4559320000000 1.0
C      1  0.5457270000000  0.5846700000000  0.4576740000000 1.0
C      1  0.5968100000000  0.5184470000000  0.4557040000000 1.0
C      1  0.5736060000000  0.4347480000000  0.4592890000000 1.0
C      1  0.5253130000000  0.4669390000000  0.4923910000000 1.0
C      1  0.4958240000000  0.4596840000000  0.4942130000000 1.0
C      1  0.4745230000000  0.4837240000000  0.4955680000000 1.0
C      1  0.4686330000000  0.5150060000000  0.4948560000000 1.0
C      1  0.4895570000000  0.5373320000000  0.4949620000000 1.0
C      1  0.5171790000000  0.5264450000000  0.4971770000000 1.0
C      1  0.5330590000000  0.4962870000000  0.4961940000000 1.0
C      1  0.5663260000000  0.5779040000000  0.4757680000000 1.0
C      1  0.6043320000000  0.4983900000000  0.4741990000000 1.0
C      1  0.5568510000000  0.4199820000000  0.4773590000000 1.0
C      1  0.4712000000000  0.4026400000000  0.4741430000000 1.0
C      1  0.4057310000000  0.4604850000000  0.4756780000000 1.0
C      1  0.4127330000000  0.5466580000000  0.4766170000000 1.0
C      1  0.4798890000000  0.5967390000000  0.4760540000000 1.0
C      1  0.4686590000000  0.5131070000000  0.4033090000000 1.0
C      1  0.4918520000000  0.5329240000000  0.4036320000000 1.0
C      1  0.5222370000000  0.5276540000000  0.4041400000000 1.0
C      1  0.5362340000000  0.5004940000000  0.4039780000000 1.0
C      1  0.5232780000000  0.4728370000000  0.4035230000000 1.0
C      1  0.4932360000000  0.4650230000000  0.4026610000000 1.0
C      1  0.4688480000000  0.4834780000000  0.4030220000000 1.0
C      1  0.4676050000000  0.5130100000000  0.4467000000000 1.0
C      1  0.4906350000000  0.5336350000000  0.4456880000000 1.0
C      1  0.5204530000000  0.5276000000000  0.4460700000000 1.0
C      1  0.5353220000000  0.4993360000000  0.4460010000000 1.0
C      1  0.5229780000000  0.4714360000000  0.4440770000000 1.0
C      1  0.4936120000000  0.4632980000000  0.4433650000000 1.0
C      1  0.4693550000000  0.4830290000000  0.4459020000000 1.0
C      1  0.4888470000000  0.5509710000000  0.4690850000000 1.0
C      1  0.5319340000000  0.5322550000000  0.4730790000000 1.0
C      1  0.5458310000000  0.5066080000000  0.4728610000000 1.0
C      1  0.5319260000000  0.4562910000000  0.4667070000000 1.0
C      1  0.4826760000000  0.4497970000000  0.4684420000000 1.0
C      1  0.4625490000000  0.4723730000000  0.4721760000000 1.0
C      1  0.4529840000000  0.5204770000000  0.4710530000000 1.0
C      1  0.5547740000000  0.5617710000000  0.5634500000000 1.0
C      1  0.5829150000000  0.4960040000000  0.5654800000000 1.0
C      1  0.5420490000000  0.4408310000000  0.5569250000000 1.0
C      1  0.4754760000000  0.4201220000000  0.5640890000000 1.0
C      1  0.4246910000000  0.4706120000000  0.5635500000000 1.0
C      1  0.4275740000000  0.5420210000000  0.5649120000000 1.0
C      1  0.4862150000000  0.5835820000000  0.5641910000000 1.0
C      1  0.5396820000000  0.5507950000000  0.5881130000000 1.0
C      1  0.5628240000000  0.5005680000000  0.5887110000000 1.0
C      1  0.5365730000000  0.4532410000000  0.5856190000000 1.0
C      1  0.4847600000000  0.4374910000000  0.5879660000000 1.0
C      1  0.4436300000000  0.4742930000000  0.5876410000000 1.0
C      1  0.4431900000000  0.5297540000000  0.5889370000000 1.0
C      1  0.4861930000000  0.5642060000000  0.5886040000000 1.0
C      1  0.4442050000000  0.5739070000000  0.4726410000000 1.0
C      1  0.5224110000000  0.5890230000000  0.4722450000000 1.0
C      1  0.5882390000000  0.5404150000000  0.4706200000000 1.0
C      1  0.5883710000000  0.4562810000000  0.4710910000000 1.0
C      1  0.5141180000000  0.4064420000000  0.4703010000000 1.0
C      1  0.4374700000000  0.4285410000000  0.4710740000000 1.0
C      1  0.4046340000000  0.5048790000000  0.4710090000000 1.0
C      1  0.5145880000000  0.5304630000000  0.5439480000000 1.0
C      1  0.5347810000000  0.4895380000000  0.5415000000000 1.0
C      1  0.5286840000000  0.4605950000000  0.5380070000000 1.0
C      1  0.4992940000000  0.4573700000000  0.5384120000000 1.0
C      1  0.4791410000000  0.4756360000000  0.5415860000000 1.0
C      1  0.4709220000000  0.5181000000000  0.5435250000000 1.0
C      1  0.4883420000000  0.5399040000000  0.5413630000000 1.0
C      1  0.5645390000000  0.5656220000000  0.5014030000000 1.0
C      1  0.5956340000000  0.4933060000000  0.5005030000000 1.0
C      1  0.5428770000000  0.4214890000000  0.5028760000000 1.0
C      1  0.4675940000000  0.4110980000000  0.5007750000000 1.0
C      1  0.4135320000000  0.4700510000000  0.5012290000000 1.0
C      1  0.4206270000000  0.5483300000000  0.5032530000000 1.0
C      1  0.4876730000000  0.5915490000000  0.5025270000000 1.0
C      1  0.4865460000000  0.4975370000000  0.5557650000000 1.0
C      1  0.5146730000000  0.5043340000000  0.5542620000000 1.0
END
