TITL C-125335-8850-5 -11.4989349369895 125000 -54.6756161190823 0 0 9 (C2v) n - 1
REM
REM in /rds/project/t2_vol4/rds-t2-cs072/BORA/CARBON/from-Arr/AIRSS/Generating-Clusters/GAP-ML-2020/Higher-Symm/SD-CG/HFTN-CG
REM
REM
REM
REM
REM
REM ./C.cell (b20cbc046b6831c77cfcea5457e17084)
REM AIRSS Version 0.9.1 bugfix July 2018 build 013d7b7c2542+ Fri, 06 Jul 2018 19:26:36 +0100
REM compiler GCC version 9.3.0
REM options -cpp -mtune=generic -march=x86-64 -g -O0
REM seed 846548050 1111187606 -2091084618 -1010980945 2063603455 -1292869633 143494954 -843283869 255908527 -1307475226 -1744277248 -2014607949 -1971267453 56916612 895140650 1904124765 1146792960 1387871588 508236430 1505977086 524530292 1426271832 876217275 660302144 1565152500 1399056448 2061572781 -2126430098 731261253 2012294023 294234401 -377584128 -892703999
REM
CELL 1.54180   50.00000   50.00000   50.00000   90.00000   90.00000   90.00000
LATT -1
SFAC C  
C      1  0.4825120000000  0.4981760000000  0.4831350000000 1.0
C      1  0.4749810000000  0.4961370000000  0.5233590000000 1.0
C      1  0.5249010000000  0.4979960000000  0.5285360000000 1.0
C      1  0.5256440000000  0.4997840000000  0.4876080000000 1.0
C      1  0.4765880000000  0.4782570000000  0.5020740000000 1.0
C      1  0.4750210000000  0.5158420000000  0.5036860000000 1.0
C      1  0.5274430000000  0.5177950000000  0.5091230000000 1.0
C      1  0.5290110000000  0.4802100000000  0.5075100000000 1.0
C      1  0.5057120000000  0.4997360000000  0.4693440000000 1.0
END
