TITL C-126549-4082-4 -127.272697304614 125000 -141.583794612875 0 0 22 (D2) n - 1
REM
REM in /rds/project/t2_vol4/rds-t2-cs072/BORA/CARBON/from-Arr/AIRSS/Generating-Clusters/GAP-ML-2020/Higher-Symm/SD-CG/HFTN-CG
REM
REM
REM
REM
REM
REM ./C.cell (b20cbc046b6831c77cfcea5457e17084)
REM AIRSS Version 0.9.1 bugfix July 2018 build 013d7b7c2542+ Fri, 06 Jul 2018 19:26:36 +0100
REM compiler GCC version 9.3.0
REM options -cpp -mtune=generic -march=x86-64 -g -O0
REM seed 1671158562 1150946070 -1264343887 223480903 599180311 876975133 -392933666 -859008596 -1094257741 285603930 -511104986 1866737696 940442781 1211829164 1175945970 1350870444 -563230913 -433167009 -1158943677 1841883798 -1051275029 1712938028 -1080598465 1660733440 325348518 2117113229 1603445701 396404977 1532725867 555281135 90376274 1208203378 1450566047
REM
CELL 1.54180   50.00000   50.00000   50.00000   90.00000   90.00000   90.00000
LATT -1
SFAC C  
C      1  0.5137570000000  0.5547440000000  0.4761220000000 1.0
C      1  0.5191670000000  0.4781960000000  0.4527880000000 1.0
C      1  0.5124020000000  0.4453710000000  0.5235330000000 1.0
C      1  0.5168970000000  0.5219030000000  0.5471130000000 1.0
C      1  0.4911220000000  0.5540630000000  0.5245940000000 1.0
C      1  0.4855190000000  0.4768770000000  0.5456760000000 1.0
C      1  0.4922030000000  0.4461220000000  0.4739980000000 1.0
C      1  0.4879020000000  0.5233230000000  0.4526710000000 1.0
C      1  0.5277900000000  0.4904480000000  0.4327310000000 1.0
C      1  0.5209440000000  0.4230060000000  0.5159160000000 1.0
C      1  0.5244750000000  0.5096250000000  0.5675710000000 1.0
C      1  0.5219830000000  0.5770810000000  0.4841550000000 1.0
C      1  0.4769270000000  0.4885580000000  0.5660830000000 1.0
C      1  0.4836040000000  0.4235660000000  0.4809570000000 1.0
C      1  0.4802950000000  0.5116690000000  0.4318620000000 1.0
C      1  0.4829530000000  0.5766460000000  0.5172190000000 1.0
C      1  0.5012580000000  0.5304130000000  0.4756220000000 1.0
C      1  0.5046930000000  0.4704480000000  0.4748310000000 1.0
C      1  0.4999730000000  0.4697420000000  0.5234140000000 1.0
C      1  0.5035600000000  0.5296960000000  0.5243800000000 1.0
C      1  0.5023890000000  0.5147290000000  0.4997770000000 1.0
C      1  0.5023530000000  0.4854210000000  0.4993470000000 1.0
END
