TITL C-122876-6429-6 -0.00468363161704143 125000 -29.7959809905744 0 0 5 (D(inf)h) n - 1
REM
REM in /rds/project/t2_vol4/rds-t2-cs072/BORA/CARBON/from-Arr/AIRSS/Generating-Clusters/GAP-ML-2020/Higher-Symm/SD-CG/HFTN-CG
REM
REM
REM
REM
REM
REM ./C.cell (b20cbc046b6831c77cfcea5457e17084)
REM AIRSS Version 0.9.1 bugfix July 2018 build 013d7b7c2542+ Fri, 06 Jul 2018 19:26:36 +0100
REM compiler GCC version 9.3.0
REM options -cpp -mtune=generic -march=x86-64 -g -O0
REM seed 2009693340 1402178400 -202918105 1966073069 -810060313 -1666129795 1111491725 -786838223 1828893972 -1770436491 -55185810 223161835 119035153 -122809464 1314302759 -1696398813 -365507277 1630037459 57272356 -1909481496 -541978165 -383305405 -1909847186 1608088794 -1252575911 1193370869 1510654849 -1940731538 -1378346479 -1979090424 1454043414 386792296 -272154505
REM
CELL 1.54180   50.00000   50.00000   50.00000   90.00000   90.00000   90.00000
LATT -1
SFAC C  
C      1  0.5004360000000  0.5258460000000  0.4994070000000 1.0
C      1  0.5004360000000  0.4741540000000  0.4994070000000 1.0
C      1  0.5004360000000  0.4482930000000  0.4994070000000 1.0
C      1  0.5004360000000  0.5517070000000  0.4994070000000 1.0
C      1  0.5004360000000  0.5000000000000  0.4994070000000 1.0
END
