TITL C-126815-9219-4 -148.381731392734 125000 -230.982742341754 0 0 34 (C3) n - 1
REM
REM in /rds/project/t2_vol4/rds-t2-cs072/BORA/CARBON/from-Arr/AIRSS/Generating-Clusters/GAP-ML-2020/Higher-Symm/SD-CG/HFTN-CG
REM
REM
REM
REM
REM
REM ./C.cell (b20cbc046b6831c77cfcea5457e17084)
REM AIRSS Version 0.9.1 bugfix July 2018 build 013d7b7c2542+ Fri, 06 Jul 2018 19:26:36 +0100
REM compiler GCC version 9.3.0
REM options -cpp -mtune=generic -march=x86-64 -g -O0
REM seed 756818227 1260320894 -1294060284 1522774615 1687023621 -402626654 723344230 -1037106138 1363546869 -2101418076 -1940870048 1237124384 1453831586 -825441403 -1466293844 361382613 -996800828 1358771586 -498622542 88985535 824967950 1818641887 1257313980 -901440095 788595052 -735898460 -2052152949 -1856775524 705070146 702974221 -866060919 -600813060 793991387
REM
CELL 1.54180   50.00000   50.00000   50.00000   90.00000   90.00000   90.00000
LATT -1
SFAC C  
C      1  0.5112010000000  0.5380480000000  0.5498620000000 1.0
C      1  0.5356720000000  0.5385550000000  0.4676670000000 1.0
C      1  0.4522530000000  0.5388910000000  0.4875750000000 1.0
C      1  0.4425690000000  0.4520710000000  0.5043590000000 1.0
C      1  0.5304050000000  0.4512020000000  0.5483790000000 1.0
C      1  0.5246140000000  0.4520150000000  0.4503000000000 1.0
C      1  0.4995620000000  0.4594930000000  0.4445980000000 1.0
C      1  0.4501700000000  0.4591150000000  0.5290290000000 1.0
C      1  0.5479840000000  0.4585320000000  0.5295850000000 1.0
C      1  0.5539570000000  0.4835650000000  0.5212190000000 1.0
C      1  0.4893810000000  0.4845590000000  0.4440350000000 1.0
C      1  0.4548220000000  0.4840130000000  0.5385530000000 1.0
C      1  0.4656490000000  0.4994910000000  0.4544350000000 1.0
C      1  0.4757240000000  0.4986400000000  0.5541590000000 1.0
C      1  0.5570510000000  0.4986240000000  0.4955680000000 1.0
C      1  0.4448890000000  0.5131510000000  0.4958010000000 1.0
C      1  0.5219550000000  0.5122520000000  0.5516880000000 1.0
C      1  0.5318260000000  0.5129440000000  0.4570020000000 1.0
C      1  0.5464580000000  0.5228120000000  0.5085400000000 1.0
C      1  0.4822280000000  0.5235970000000  0.4575340000000 1.0
C      1  0.4701670000000  0.5230240000000  0.5386640000000 1.0
C      1  0.4499160000000  0.5090030000000  0.5232990000000 1.0
C      1  0.5432480000000  0.5083700000000  0.5335180000000 1.0
C      1  0.5054360000000  0.5092750000000  0.4475810000000 1.0
C      1  0.4419850000000  0.4655790000000  0.4827030000000 1.0
C      1  0.5119680000000  0.4645520000000  0.5599410000000 1.0
C      1  0.5438700000000  0.4651510000000  0.4607120000000 1.0
C      1  0.4475850000000  0.4918380000000  0.4747100000000 1.0
C      1  0.5022990000000  0.4908420000000  0.5595340000000 1.0
C      1  0.5484050000000  0.4912820000000  0.4697360000000 1.0
C      1  0.4917110000000  0.5399620000000  0.5295800000000 1.0
C      1  0.5278550000000  0.5400250000000  0.4947140000000 1.0
C      1  0.4795890000000  0.5404200000000  0.4808480000000 1.0
C      1  0.4997440000000  0.5444660000000  0.5017490000000 1.0
END
