TITL C-127499-426-8 0.120426428185028 125000 -691.970524710648 0 0 99 (C1) n - 1
REM
REM in /rds/project/t2_vol4/rds-t2-cs072/BORA/CARBON/from-Arr/AIRSS/Generating-Clusters/GAP-ML-2020/Higher-Symm/SD-CG/HFTN-CG
REM
REM
REM
REM
REM
REM ./C.cell (b20cbc046b6831c77cfcea5457e17084)
REM AIRSS Version 0.9.1 bugfix July 2018 build 013d7b7c2542+ Fri, 06 Jul 2018 19:26:36 +0100
REM compiler GCC version 9.3.0
REM options -cpp -mtune=generic -march=x86-64 -g -O0
REM seed -956499687 2061150713 1771190594 -785473549 1438539067 -128867596 -1297800480 -1819992858 959221303 934080804 -802277863 1753640696 -1914181197 563627415 541615042 1684270934 524713178 -384897335 -1874151559 -763173325 1999098486 -1075131170 1792276247 -320560249 -690051889 -275583131 478826695 -259954364 2107966223 87638500 -1771269304 2031993197 1985591813
REM
CELL 1.54180   50.00000   50.00000   50.00000   90.00000   90.00000   90.00000
LATT -1
SFAC C  
C      1  0.5136530000000  0.4916120000000  0.4633550000000 1.0
C      1  0.4988960000000  0.5140870000000  0.5555470000000 1.0
C      1  0.5008860000000  0.4861900000000  0.5647550000000 1.0
C      1  0.4878310000000  0.5101530000000  0.4669590000000 1.0
C      1  0.5057920000000  0.4650710000000  0.4725290000000 1.0
C      1  0.5001630000000  0.5403900000000  0.5109380000000 1.0
C      1  0.4981230000000  0.5373970000000  0.4806600000000 1.0
C      1  0.4931730000000  0.4551550000000  0.5124970000000 1.0
C      1  0.4671580000000  0.5558460000000  0.5638830000000 1.0
C      1  0.4573080000000  0.4632750000000  0.4362870000000 1.0
C      1  0.5432590000000  0.5366550000000  0.4325400000000 1.0
C      1  0.5294550000000  0.4447490000000  0.5624320000000 1.0
C      1  0.4589060000000  0.5732790000000  0.5390120000000 1.0
C      1  0.4573830000000  0.4387160000000  0.4537350000000 1.0
C      1  0.5371950000000  0.4282760000000  0.5376780000000 1.0
C      1  0.5403470000000  0.5607750000000  0.4505620000000 1.0
C      1  0.5293500000000  0.5039080000000  0.4851180000000 1.0
C      1  0.5251580000000  0.4728670000000  0.5537570000000 1.0
C      1  0.4706890000000  0.5284830000000  0.5528740000000 1.0
C      1  0.4735610000000  0.4954770000000  0.4890550000000 1.0
C      1  0.5205950000000  0.4670070000000  0.5219250000000 1.0
C      1  0.5268840000000  0.5319250000000  0.4798150000000 1.0
C      1  0.4710920000000  0.5357590000000  0.5227630000000 1.0
C      1  0.4844940000000  0.4693340000000  0.4899020000000 1.0
C      1  0.5846600000000  0.4902180000000  0.4705510000000 1.0
C      1  0.5795260000000  0.5140930000000  0.5295410000000 1.0
C      1  0.4192410000000  0.4855020000000  0.5298100000000 1.0
C      1  0.4151950000000  0.5098450000000  0.4713860000000 1.0
C      1  0.5808410000000  0.4703490000000  0.4920400000000 1.0
C      1  0.5813720000000  0.5336160000000  0.5075110000000 1.0
C      1  0.4179040000000  0.5303850000000  0.4920480000000 1.0
C      1  0.4172030000000  0.4659230000000  0.5083270000000 1.0
C      1  0.5185030000000  0.4103370000000  0.5319610000000 1.0
C      1  0.5193750000000  0.5772410000000  0.4501670000000 1.0
C      1  0.4794310000000  0.4233500000000  0.4548750000000 1.0
C      1  0.4788650000000  0.5897480000000  0.5328320000000 1.0
C      1  0.5209350000000  0.5207990000000  0.4235430000000 1.0
C      1  0.5156080000000  0.4387170000000  0.5845770000000 1.0
C      1  0.4796670000000  0.4787440000000  0.4269450000000 1.0
C      1  0.4828110000000  0.5606850000000  0.5848790000000 1.0
C      1  0.5249250000000  0.4921740000000  0.4318200000000 1.0
C      1  0.5194260000000  0.5297450000000  0.5708080000000 1.0
C      1  0.4790900000000  0.4708240000000  0.5725690000000 1.0
C      1  0.4758650000000  0.5083270000000  0.4350640000000 1.0
C      1  0.5203600000000  0.4395610000000  0.4712600000000 1.0
C      1  0.5173020000000  0.5662390000000  0.5151800000000 1.0
C      1  0.4804650000000  0.5623300000000  0.4743970000000 1.0
C      1  0.4789040000000  0.4299900000000  0.5139310000000 1.0
C      1  0.5660700000000  0.4532340000000  0.4728610000000 1.0
C      1  0.5637760000000  0.5517040000000  0.5228830000000 1.0
C      1  0.4337490000000  0.4469890000000  0.5233370000000 1.0
C      1  0.4333250000000  0.5474510000000  0.4729760000000 1.0
C      1  0.5696630000000  0.4733210000000  0.4520760000000 1.0
C      1  0.5637110000000  0.5331990000000  0.5452470000000 1.0
C      1  0.4303170000000  0.5268950000000  0.4526760000000 1.0
C      1  0.4355050000000  0.4662610000000  0.5453460000000 1.0
C      1  0.4937380000000  0.5284420000000  0.4202160000000 1.0
C      1  0.4875200000000  0.4438190000000  0.5822960000000 1.0
C      1  0.5108420000000  0.5554630000000  0.5821060000000 1.0
C      1  0.5062280000000  0.4712250000000  0.4194240000000 1.0
C      1  0.4907220000000  0.4105650000000  0.5318650000000 1.0
C      1  0.4915480000000  0.5776910000000  0.4524820000000 1.0
C      1  0.5065770000000  0.5868110000000  0.5327560000000 1.0
C      1  0.5066760000000  0.4227610000000  0.4523330000000 1.0
C      1  0.5496480000000  0.5525930000000  0.4783600000000 1.0
C      1  0.5454110000000  0.4481960000000  0.5155920000000 1.0
C      1  0.4494490000000  0.5542680000000  0.5164530000000 1.0
C      1  0.4410470000000  0.4397650000000  0.4781980000000 1.0
C      1  0.5480540000000  0.4914320000000  0.5553110000000 1.0
C      1  0.5635410000000  0.5175450000000  0.4389410000000 1.0
C      1  0.4491430000000  0.5089010000000  0.5560760000000 1.0
C      1  0.4369500000000  0.4826640000000  0.4406440000000 1.0
C      1  0.4263810000000  0.5342050000000  0.5185210000000 1.0
C      1  0.4220090000000  0.4609870000000  0.4807250000000 1.0
C      1  0.5755480000000  0.5377380000000  0.4803390000000 1.0
C      1  0.5698380000000  0.4664830000000  0.5179110000000 1.0
C      1  0.4275900000000  0.5119230000000  0.5363500000000 1.0
C      1  0.4194420000000  0.4823690000000  0.4630510000000 1.0
C      1  0.5698430000000  0.4879170000000  0.5362920000000 1.0
C      1  0.5808880000000  0.5176330000000  0.4620450000000 1.0
C      1  0.4742530000000  0.4186840000000  0.5777600000000 1.0
C      1  0.4852540000000  0.5538950000000  0.4122560000000 1.0
C      1  0.5131110000000  0.4451650000000  0.4120950000000 1.0
C      1  0.5239620000000  0.5811430000000  0.5780020000000 1.0
C      1  0.4817290000000  0.5757940000000  0.4247260000000 1.0
C      1  0.4778890000000  0.4049400000000  0.5569360000000 1.0
C      1  0.5159930000000  0.4225940000000  0.4237770000000 1.0
C      1  0.5207480000000  0.5945020000000  0.5568330000000 1.0
C      1  0.5442530000000  0.5635950000000  0.5057810000000 1.0
C      1  0.5446580000000  0.4399210000000  0.4860710000000 1.0
C      1  0.4541940000000  0.5609200000000  0.4863420000000 1.0
C      1  0.4507250000000  0.4324210000000  0.5052960000000 1.0
C      1  0.5446690000000  0.5194550000000  0.5621720000000 1.0
C      1  0.5547770000000  0.4906760000000  0.4344870000000 1.0
C      1  0.4539890000000  0.4807600000000  0.5621830000000 1.0
C      1  0.4458770000000  0.5096200000000  0.4358350000000 1.0
C      1  0.4757190000000  0.5065800000000  0.5145500000000 1.0
C      1  0.5230250000000  0.4947880000000  0.5109490000000 1.0
C      1  0.5042040000000  0.5114100000000  0.5237980000000 1.0
END
