TITL C-122879-6459-4 380.730543700989 125000 -777.399806366947 0 0 114 (C1) n - 1
REM
REM in /rds/project/t2_vol4/rds-t2-cs072/BORA/CARBON/from-Arr/AIRSS/Generating-Clusters/GAP-ML-2020/Higher-Symm/SD-CG/HFTN-CG
REM
REM
REM
REM
REM
REM ./C.cell (b20cbc046b6831c77cfcea5457e17084)
REM AIRSS Version 0.9.1 bugfix July 2018 build 013d7b7c2542+ Fri, 06 Jul 2018 19:26:36 +0100
REM compiler GCC version 9.3.0
REM options -cpp -mtune=generic -march=x86-64 -g -O0
REM seed 108404673 -1895876554 1779501735 -211844165 2125925410 -1900958926 1622558681 242080362 1638161735 -828762991 -1007030019 129149569 773264420 1998271881 -1106835452 -2047968461 947348304 464434400 767214288 1408235746 -1948529503 -1262402314 290231138 -818867844 -1492487467 -1152047772 1488670818 -391118699 -921153676 -822607301 -410974226 -378153713 -25487780
REM
CELL 1.54180   50.00000   50.00000   50.00000   90.00000   90.00000   90.00000
LATT -1
SFAC C  
C      1  0.5662430000000  0.5305600000000  0.5106620000000 1.0
C      1  0.5252810000000  0.5238290000000  0.5780090000000 1.0
C      1  0.5082910000000  0.5838760000000  0.5194530000000 1.0
C      1  0.4176000000000  0.5165130000000  0.4938220000000 1.0
C      1  0.4316360000000  0.4760280000000  0.5194850000000 1.0
C      1  0.5667510000000  0.4714910000000  0.4753360000000 1.0
C      1  0.4823500000000  0.5060000000000  0.4189310000000 1.0
C      1  0.4784510000000  0.4729880000000  0.5745750000000 1.0
C      1  0.5234010000000  0.4782670000000  0.4292490000000 1.0
C      1  0.4807190000000  0.5763330000000  0.4785010000000 1.0
C      1  0.4846620000000  0.4342600000000  0.5289070000000 1.0
C      1  0.5235570000000  0.4192580000000  0.4742670000000 1.0
C      1  0.5607810000000  0.4797190000000  0.5173060000000 1.0
C      1  0.5073980000000  0.4801780000000  0.5769890000000 1.0
C      1  0.5072700000000  0.4202310000000  0.5181100000000 1.0
C      1  0.4293270000000  0.4759210000000  0.4761510000000 1.0
C      1  0.4335840000000  0.5277910000000  0.5161920000000 1.0
C      1  0.5789350000000  0.5163190000000  0.4885000000000 1.0
C      1  0.4718400000000  0.4812580000000  0.4306710000000 1.0
C      1  0.4830620000000  0.5204320000000  0.5794760000000 1.0
C      1  0.5250300000000  0.5224010000000  0.4305540000000 1.0
C      1  0.4789730000000  0.4255350000000  0.4762130000000 1.0
C      1  0.4868990000000  0.5679160000000  0.5309270000000 1.0
C      1  0.5248850000000  0.5825900000000  0.4758980000000 1.0
C      1  0.4779540000000  0.5484840000000  0.5859250000000 1.0
C      1  0.5524950000000  0.5883870000000  0.4749490000000 1.0
C      1  0.5729550000000  0.4790570000000  0.5438790000000 1.0
C      1  0.5267740000000  0.5492640000000  0.4214670000000 1.0
C      1  0.5186120000000  0.4527890000000  0.5849540000000 1.0
C      1  0.4745810000000  0.4545860000000  0.4156320000000 1.0
C      1  0.4590680000000  0.5794920000000  0.5269480000000 1.0
C      1  0.4515700000000  0.4184740000000  0.4729060000000 1.0
C      1  0.5372500000000  0.4201660000000  0.5229320000000 1.0
C      1  0.4181830000000  0.4725220000000  0.4500950000000 1.0
C      1  0.4228870000000  0.5246290000000  0.5440860000000 1.0
C      1  0.5827800000000  0.5223010000000  0.4592940000000 1.0
C      1  0.4719840000000  0.4465820000000  0.5831400000000 1.0
C      1  0.5512420000000  0.4134230000000  0.4733740000000 1.0
C      1  0.5768120000000  0.5284480000000  0.5382050000000 1.0
C      1  0.5243280000000  0.4513770000000  0.4176740000000 1.0
C      1  0.5268180000000  0.5518210000000  0.5843090000000 1.0
C      1  0.4763780000000  0.5360810000000  0.4204070000000 1.0
C      1  0.4568720000000  0.4211990000000  0.5239530000000 1.0
C      1  0.4529360000000  0.5809240000000  0.4762350000000 1.0
C      1  0.5379090000000  0.5875130000000  0.5239290000000 1.0
C      1  0.4165940000000  0.5213380000000  0.4642310000000 1.0
C      1  0.4207850000000  0.4745450000000  0.5465210000000 1.0
C      1  0.5799980000000  0.4737210000000  0.4498800000000 1.0
C      1  0.5487470000000  0.4332410000000  0.5455830000000 1.0
C      1  0.4320650000000  0.5469030000000  0.5597130000000 1.0
C      1  0.5522330000000  0.5599810000000  0.4317710000000 1.0
C      1  0.4398690000000  0.4273560000000  0.4481650000000 1.0
C      1  0.4449140000000  0.5698550000000  0.5495030000000 1.0
C      1  0.5647120000000  0.5727040000000  0.4536050000000 1.0
C      1  0.5730790000000  0.5470340000000  0.4471740000000 1.0
C      1  0.5629840000000  0.4554290000000  0.5566640000000 1.0
C      1  0.4275280000000  0.4499010000000  0.4360450000000 1.0
C      1  0.4539000000000  0.5584340000000  0.5735440000000 1.0
C      1  0.4517330000000  0.4402580000000  0.4261540000000 1.0
C      1  0.5416190000000  0.4441010000000  0.5703860000000 1.0
C      1  0.5532570000000  0.5752030000000  0.5445240000000 1.0
C      1  0.4274430000000  0.4502340000000  0.5592980000000 1.0
C      1  0.5482930000000  0.4378860000000  0.4265900000000 1.0
C      1  0.4429790000000  0.5652020000000  0.4536680000000 1.0
C      1  0.4407240000000  0.4283560000000  0.5459220000000 1.0
C      1  0.5614770000000  0.4260460000000  0.4491490000000 1.0
C      1  0.5714320000000  0.4494770000000  0.4374920000000 1.0
C      1  0.5670890000000  0.5519040000000  0.5516150000000 1.0
C      1  0.4294560000000  0.5416450000000  0.4484090000000 1.0
C      1  0.4482440000000  0.4360190000000  0.5718790000000 1.0
C      1  0.4529970000000  0.5473430000000  0.4338180000000 1.0
C      1  0.5484700000000  0.5634560000000  0.5695330000000 1.0
C      1  0.5337260000000  0.4741260000000  0.5081640000000 1.0
C      1  0.4770390000000  0.5123780000000  0.5519570000000 1.0
C      1  0.5186020000000  0.5554910000000  0.4723500000000 1.0
C      1  0.4589730000000  0.4820780000000  0.4813510000000 1.0
C      1  0.4622280000000  0.5262390000000  0.5112870000000 1.0
C      1  0.5315760000000  0.5315270000000  0.4788660000000 1.0
C      1  0.5296470000000  0.5136740000000  0.4576730000000 1.0
C      1  0.5190130000000  0.4886170000000  0.5499740000000 1.0
C      1  0.4749870000000  0.4724990000000  0.4586960000000 1.0
C      1  0.4857970000000  0.5347800000000  0.5293530000000 1.0
C      1  0.4895870000000  0.4490110000000  0.4652450000000 1.0
C      1  0.5117820000000  0.4755630000000  0.5256240000000 1.0
C      1  0.5369260000000  0.5304610000000  0.5067540000000 1.0
C      1  0.4723440000000  0.4844230000000  0.5496540000000 1.0
C      1  0.5171560000000  0.4463470000000  0.4694590000000 1.0
C      1  0.4684180000000  0.5116080000000  0.4867780000000 1.0
C      1  0.4584630000000  0.4714810000000  0.5095770000000 1.0
C      1  0.5354550000000  0.4679440000000  0.4786050000000 1.0
C      1  0.5284100000000  0.4858630000000  0.4566030000000 1.0
C      1  0.5264930000000  0.5153670000000  0.5501940000000 1.0
C      1  0.4825970000000  0.5254270000000  0.4691590000000 1.0
C      1  0.4824220000000  0.4656080000000  0.5261370000000 1.0
C      1  0.4915070000000  0.5516100000000  0.4711800000000 1.0
C      1  0.5167360000000  0.5297230000000  0.5271770000000 1.0
C      1  0.4970810000000  0.4363420000000  0.5897240000000 1.0
C      1  0.4993880000000  0.5528890000000  0.4181860000000 1.0
C      1  0.5534360000000  0.4156100000000  0.5005500000000 1.0
C      1  0.4477970000000  0.5853430000000  0.5026910000000 1.0
C      1  0.4154400000000  0.5003820000000  0.5541980000000 1.0
C      1  0.5860800000000  0.4995380000000  0.4435590000000 1.0
C      1  0.4464200000000  0.4156810000000  0.4993820000000 1.0
C      1  0.5018050000000  0.5621590000000  0.5908520000000 1.0
C      1  0.5532520000000  0.5923820000000  0.5014190000000 1.0
C      1  0.5814370000000  0.5040740000000  0.5504520000000 1.0
C      1  0.4135380000000  0.4990150000000  0.4485160000000 1.0
C      1  0.4990520000000  0.4438680000000  0.4099810000000 1.0
C      1  0.5065010000000  0.5064420000000  0.5897790000000 1.0
C      1  0.5102350000000  0.5015630000000  0.4186570000000 1.0
C      1  0.5016250000000  0.4146180000000  0.4909970000000 1.0
C      1  0.4172200000000  0.4889170000000  0.4983570000000 1.0
C      1  0.5027600000000  0.5894220000000  0.4922170000000 1.0
C      1  0.5744480000000  0.4896170000000  0.4947090000000 1.0
END
