TITL C-122785-4640-9 -0.0904491157779325 125000 -1001.44562913715 0 0 142 (C3) n - 1
REM
REM in /rds/project/t2_vol4/rds-t2-cs072/BORA/CARBON/from-Arr/AIRSS/Generating-Clusters/GAP-ML-2020/Higher-Symm/SD-CG/HFTN-CG
REM
REM
REM
REM
REM
REM ./C.cell (b20cbc046b6831c77cfcea5457e17084)
REM AIRSS Version 0.9.1 bugfix July 2018 build 013d7b7c2542+ Fri, 06 Jul 2018 19:26:36 +0100
REM compiler GCC version 9.3.0
REM options -cpp -mtune=generic -march=x86-64 -g -O0
REM seed -882167150 -629449420 1931192336 -1400737248 184776598 -962717164 -997991054 -465912151 -793705474 -1885072725 -445192468 2140965945 11500741 1448242847 1628332594 -35414675 -396420268 -218799209 -966002011 -1514434681 1895860150 1620348018 1494155501 -1198254834 1505982147 1537620993 776898865 -608859901 -1314690979 -2111285600 1615925105 103786950 1392329957
REM
CELL 1.54180   50.00000   50.00000   50.00000   90.00000   90.00000   90.00000
LATT -1
SFAC C  
C      1  0.4555590000000  0.5146360000000  0.4604330000000 1.0
C      1  0.4741640000000  0.4461870000000  0.5226810000000 1.0
C      1  0.5224060000000  0.4689340000000  0.4539770000000 1.0
C      1  0.4692760000000  0.4832220000000  0.5342600000000 1.0
C      1  0.5464460000000  0.4786810000000  0.4686760000000 1.0
C      1  0.5537100000000  0.5234830000000  0.5263770000000 1.0
C      1  0.4655010000000  0.5307990000000  0.4829580000000 1.0
C      1  0.5390270000000  0.5451380000000  0.5147990000000 1.0
C      1  0.5319780000000  0.4544100000000  0.4781930000000 1.0
C      1  0.5165440000000  0.5348300000000  0.5307920000000 1.0
C      1  0.4773000000000  0.5262950000000  0.4459440000000 1.0
C      1  0.4854770000000  0.4608520000000  0.5444880000000 1.0
C      1  0.4364430000000  0.5744520000000  0.5125650000000 1.0
C      1  0.5100310000000  0.4396670000000  0.5934000000000 1.0
C      1  0.5842190000000  0.5248700000000  0.4491340000000 1.0
C      1  0.4343830000000  0.4270550000000  0.4816270000000 1.0
C      1  0.5517410000000  0.4165470000000  0.5242130000000 1.0
C      1  0.5601580000000  0.5940830000000  0.4902650000000 1.0
C      1  0.5179850000000  0.5666690000000  0.4272690000000 1.0
C      1  0.4864140000000  0.5632520000000  0.5745070000000 1.0
C      1  0.4767830000000  0.4489100000000  0.4157720000000 1.0
C      1  0.5726650000000  0.4827370000000  0.5665590000000 1.0
C      1  0.4070240000000  0.4896740000000  0.4388600000000 1.0
C      1  0.4250950000000  0.5126600000000  0.5626860000000 1.0
C      1  0.4542610000000  0.5149230000000  0.5060570000000 1.0
C      1  0.5152510000000  0.4215330000000  0.5119290000000 1.0
C      1  0.5135430000000  0.5198490000000  0.4228730000000 1.0
C      1  0.4518780000000  0.4866970000000  0.4722690000000 1.0
C      1  0.5772200000000  0.4875480000000  0.5197900000000 1.0
C      1  0.5789010000000  0.5127160000000  0.4856210000000 1.0
C      1  0.5272740000000  0.5488750000000  0.4868320000000 1.0
C      1  0.4933900000000  0.5459160000000  0.5148880000000 1.0
C      1  0.4811780000000  0.4229990000000  0.4866190000000 1.0
C      1  0.5132920000000  0.4728950000000  0.5484310000000 1.0
C      1  0.4886290000000  0.4855020000000  0.4210620000000 1.0
C      1  0.4848660000000  0.5064780000000  0.5455750000000 1.0
C      1  0.5458400000000  0.5039190000000  0.4847610000000 1.0
C      1  0.4936610000000  0.5223540000000  0.4963280000000 1.0
C      1  0.5230190000000  0.4800040000000  0.5226530000000 1.0
C      1  0.5484720000000  0.4963410000000  0.5149910000000 1.0
C      1  0.4777330000000  0.4772140000000  0.4794290000000 1.0
C      1  0.4779490000000  0.4965230000000  0.5061370000000 1.0
C      1  0.4856110000000  0.4517390000000  0.4956280000000 1.0
C      1  0.5157750000000  0.4546620000000  0.5033610000000 1.0
C      1  0.5204510000000  0.5230050000000  0.4771420000000 1.0
C      1  0.5044570000000  0.5151180000000  0.4515410000000 1.0
C      1  0.5035330000000  0.5065780000000  0.5220960000000 1.0
C      1  0.4970540000000  0.4848490000000  0.4542240000000 1.0
C      1  0.5815270000000  0.4494140000000  0.5292640000000 1.0
C      1  0.5200590000000  0.5950800000000  0.4633430000000 1.0
C      1  0.4631130000000  0.5243480000000  0.5887090000000 1.0
C      1  0.5907890000000  0.5595950000000  0.4863040000000 1.0
C      1  0.4108030000000  0.5360630000000  0.5238780000000 1.0
C      1  0.4057530000000  0.4629250000000  0.4790670000000 1.0
C      1  0.5144940000000  0.4093190000000  0.5587230000000 1.0
C      1  0.4719240000000  0.4188450000000  0.4484130000000 1.0
C      1  0.4749820000000  0.5890230000000  0.5362410000000 1.0
C      1  0.4418840000000  0.4858120000000  0.4086400000000 1.0
C      1  0.5364910000000  0.4800610000000  0.5947910000000 1.0
C      1  0.5516590000000  0.5295640000000  0.4189550000000 1.0
C      1  0.5430490000000  0.5728880000000  0.5234410000000 1.0
C      1  0.5193270000000  0.5440960000000  0.5584670000000 1.0
C      1  0.5708970000000  0.5295520000000  0.5494940000000 1.0
C      1  0.5433230000000  0.4275830000000  0.4735680000000 1.0
C      1  0.4512170000000  0.4286980000000  0.5285290000000 1.0
C      1  0.4560800000000  0.5583970000000  0.4799450000000 1.0
C      1  0.5272790000000  0.4578260000000  0.4270950000000 1.0
C      1  0.4767580000000  0.4565430000000  0.5721700000000 1.0
C      1  0.4712700000000  0.5492930000000  0.4285840000000 1.0
C      1  0.5734310000000  0.4741890000000  0.4576570000000 1.0
C      1  0.4415940000000  0.4800620000000  0.5433810000000 1.0
C      1  0.4277980000000  0.5230690000000  0.4560570000000 1.0
C      1  0.5574930000000  0.5006800000000  0.4201990000000 1.0
C      1  0.4109620000000  0.5376110000000  0.4954580000000 1.0
C      1  0.4848670000000  0.4118040000000  0.5625070000000 1.0
C      1  0.5388590000000  0.5080270000000  0.5862600000000 1.0
C      1  0.4377530000000  0.5153760000000  0.4113090000000 1.0
C      1  0.4617600000000  0.4959180000000  0.5886620000000 1.0
C      1  0.4141850000000  0.4604630000000  0.5070550000000 1.0
C      1  0.5804790000000  0.4437630000000  0.5003360000000 1.0
C      1  0.5879420000000  0.5634940000000  0.5158840000000 1.0
C      1  0.4921790000000  0.5863480000000  0.4606970000000 1.0
C      1  0.5033940000000  0.5891770000000  0.5379170000000 1.0
C      1  0.5008630000000  0.4202600000000  0.4429010000000 1.0
C      1  0.5264430000000  0.4074290000000  0.5330730000000 1.0
C      1  0.5270990000000  0.5423910000000  0.4150220000000 1.0
C      1  0.4115470000000  0.5110980000000  0.5373770000000 1.0
C      1  0.5325280000000  0.5995850000000  0.4885080000000 1.0
C      1  0.4616040000000  0.5882980000000  0.5112100000000 1.0
C      1  0.4588450000000  0.4149340000000  0.4728440000000 1.0
C      1  0.5114490000000  0.4672770000000  0.5990970000000 1.0
C      1  0.4676770000000  0.4741670000000  0.4067860000000 1.0
C      1  0.4879930000000  0.5380140000000  0.5881870000000 1.0
C      1  0.4012200000000  0.4880030000000  0.4664340000000 1.0
C      1  0.5851230000000  0.4739290000000  0.5422750000000 1.0
C      1  0.5929880000000  0.5339050000000  0.4744940000000 1.0
C      1  0.4402270000000  0.5344420000000  0.5735430000000 1.0
C      1  0.5647710000000  0.4321260000000  0.5439770000000 1.0
C      1  0.5357640000000  0.5817870000000  0.4430760000000 1.0
C      1  0.4230830000000  0.4710430000000  0.4248230000000 1.0
C      1  0.5569940000000  0.4646770000000  0.5814840000000 1.0
C      1  0.5686550000000  0.5444690000000  0.4358390000000 1.0
C      1  0.5744590000000  0.5783120000000  0.4715900000000 1.0
C      1  0.4256620000000  0.5590510000000  0.5341950000000 1.0
C      1  0.4193610000000  0.4426790000000  0.4636050000000 1.0
C      1  0.5289380000000  0.4256860000000  0.5776170000000 1.0
C      1  0.4570990000000  0.4355500000000  0.4311730000000 1.0
C      1  0.4647320000000  0.5738920000000  0.5590800000000 1.0
C      1  0.5878980000000  0.5476640000000  0.5385760000000 1.0
C      1  0.5191040000000  0.5871380000000  0.5133500000000 1.0
C      1  0.5138460000000  0.5230390000000  0.5787380000000 1.0
C      1  0.5875790000000  0.4648700000000  0.4816700000000 1.0
C      1  0.4213550000000  0.4854560000000  0.5222700000000 1.0
C      1  0.4133450000000  0.5129890000000  0.4798850000000 1.0
C      1  0.5195140000000  0.4132280000000  0.4640440000000 1.0
C      1  0.4622470000000  0.4116980000000  0.5465750000000 1.0
C      1  0.4769360000000  0.5788360000000  0.4855720000000 1.0
C      1  0.5365960000000  0.4818390000000  0.4129450000000 1.0
C      1  0.4865120000000  0.4805030000000  0.5866280000000 1.0
C      1  0.4534270000000  0.5381760000000  0.4114280000000 1.0
C      1  0.4306060000000  0.4361870000000  0.5085750000000 1.0
C      1  0.5040680000000  0.4404910000000  0.4231670000000 1.0
C      1  0.4171780000000  0.5156180000000  0.4314220000000 1.0
C      1  0.4291230000000  0.5600570000000  0.4894830000000 1.0
C      1  0.5675950000000  0.5838370000000  0.5161740000000 1.0
C      1  0.5604200000000  0.4238770000000  0.4969910000000 1.0
C      1  0.5094750000000  0.5709320000000  0.5602660000000 1.0
C      1  0.4909550000000  0.5700770000000  0.4363040000000 1.0
C      1  0.4842550000000  0.4320060000000  0.5829860000000 1.0
C      1  0.4395620000000  0.4897090000000  0.5702750000000 1.0
C      1  0.5771730000000  0.4975610000000  0.4404970000000 1.0
C      1  0.5633090000000  0.5096400000000  0.5701090000000 1.0
C      1  0.5021180000000  0.4973340000000  0.5667250000000 1.0
C      1  0.5908630000000  0.4890160000000  0.4955080000000 1.0
C      1  0.5025870000000  0.5670510000000  0.4976450000000 1.0
C      1  0.5123960000000  0.4954970000000  0.4093240000000 1.0
C      1  0.4333490000000  0.4974950000000  0.4967000000000 1.0
C      1  0.5056070000000  0.4096220000000  0.4881040000000 1.0
C      1  0.5531090000000  0.4386510000000  0.5698560000000 1.0
C      1  0.4415170000000  0.5577820000000  0.5575980000000 1.0
C      1  0.5618230000000  0.5703540000000  0.4473090000000 1.0
C      1  0.4310610000000  0.4468740000000  0.4376590000000 1.0
END
