TITL C-123307-4005-5 128.010300796302 125000 -1012.85504213521 0 0 146 (C1) n - 1
REM
REM in /rds/project/t2_vol4/rds-t2-cs072/BORA/CARBON/from-Arr/AIRSS/Generating-Clusters/GAP-ML-2020/Higher-Symm/SD-CG/HFTN-CG
REM
REM
REM
REM
REM
REM ./C.cell (b20cbc046b6831c77cfcea5457e17084)
REM AIRSS Version 0.9.1 bugfix July 2018 build 013d7b7c2542+ Fri, 06 Jul 2018 19:26:36 +0100
REM compiler GCC version 9.3.0
REM options -cpp -mtune=generic -march=x86-64 -g -O0
REM seed -1320436450 -326170070 -835189233 1545918610 1020287987 1615176252 -1113368686 -1529206636 450798258 198119533 -1321329530 -709682892 -298231239 171577276 -250527285 1209877675 -216847373 19057860 -1576324403 1436951399 -16207274 -1438977846 1989060968 2131166787 515568409 1836562389 -1562844685 -1846469064 -1778770558 26121365 -513590913 388946274 1163956185
REM
CELL 1.54180   50.00000   50.00000   50.00000   90.00000   90.00000   90.00000
LATT -1
SFAC C  
C      1  0.5216070000000  0.4865550000000  0.4053200000000 1.0
C      1  0.4649950000000  0.4895850000000  0.4680910000000 1.0
C      1  0.4397190000000  0.5534010000000  0.5386920000000 1.0
C      1  0.4200450000000  0.4622610000000  0.4651490000000 1.0
C      1  0.4838410000000  0.4040560000000  0.5224970000000 1.0
C      1  0.5345870000000  0.4631320000000  0.4932400000000 1.0
C      1  0.5106100000000  0.4095430000000  0.5338400000000 1.0
C      1  0.5238840000000  0.5774260000000  0.5452010000000 1.0
C      1  0.5014330000000  0.5178150000000  0.4519210000000 1.0
C      1  0.4732160000000  0.5334570000000  0.4908830000000 1.0
C      1  0.5493110000000  0.5449230000000  0.5714380000000 1.0
C      1  0.5350810000000  0.4542890000000  0.5851640000000 1.0
C      1  0.5412810000000  0.4791650000000  0.4241640000000 1.0
C      1  0.5310710000000  0.5217490000000  0.6048670000000 1.0
C      1  0.5168120000000  0.5304790000000  0.4243650000000 1.0
C      1  0.4208370000000  0.4410480000000  0.5097110000000 1.0
C      1  0.5306470000000  0.4851990000000  0.5307200000000 1.0
C      1  0.5477320000000  0.4822110000000  0.5084240000000 1.0
C      1  0.4780320000000  0.5192600000000  0.5188920000000 1.0
C      1  0.4138210000000  0.4776390000000  0.5396900000000 1.0
C      1  0.4823050000000  0.5049900000000  0.6032010000000 1.0
C      1  0.5042860000000  0.5875580000000  0.5041150000000 1.0
C      1  0.6022620000000  0.5032920000000  0.4612900000000 1.0
C      1  0.5510950000000  0.4520210000000  0.4286530000000 1.0
C      1  0.4321710000000  0.5257410000000  0.4569120000000 1.0
C      1  0.5562350000000  0.5065780000000  0.4949460000000 1.0
C      1  0.5138590000000  0.4187430000000  0.5602870000000 1.0
C      1  0.4459020000000  0.4287440000000  0.5023820000000 1.0
C      1  0.4628880000000  0.4839040000000  0.5578850000000 1.0
C      1  0.4623560000000  0.4379160000000  0.4785390000000 1.0
C      1  0.4855200000000  0.3917960000000  0.4982370000000 1.0
C      1  0.5694020000000  0.5422080000000  0.5513570000000 1.0
C      1  0.4834300000000  0.4871950000000  0.5144710000000 1.0
C      1  0.5288810000000  0.4219600000000  0.5135080000000 1.0
C      1  0.5258650000000  0.5453350000000  0.4811040000000 1.0
C      1  0.5073840000000  0.5906280000000  0.4594030000000 1.0
C      1  0.5576890000000  0.4335880000000  0.5235480000000 1.0
C      1  0.5689150000000  0.5704990000000  0.4411100000000 1.0
C      1  0.4922550000000  0.4521680000000  0.4822370000000 1.0
C      1  0.5625450000000  0.5864780000000  0.4640160000000 1.0
C      1  0.4606880000000  0.4762840000000  0.5281280000000 1.0
C      1  0.5293220000000  0.5746490000000  0.4969320000000 1.0
C      1  0.5591110000000  0.4238500000000  0.4764290000000 1.0
C      1  0.4952590000000  0.5750170000000  0.4377570000000 1.0
C      1  0.5520260000000  0.5203910000000  0.5882130000000 1.0
C      1  0.4080440000000  0.4576420000000  0.4904750000000 1.0
C      1  0.4936140000000  0.4373080000000  0.5721590000000 1.0
C      1  0.4618440000000  0.5174240000000  0.4210550000000 1.0
C      1  0.4370640000000  0.5111760000000  0.5070250000000 1.0
C      1  0.4067030000000  0.5266290000000  0.4758980000000 1.0
C      1  0.5124720000000  0.5011410000000  0.4739150000000 1.0
C      1  0.4707640000000  0.5534770000000  0.5729990000000 1.0
C      1  0.5738590000000  0.4368110000000  0.4980340000000 1.0
C      1  0.5471530000000  0.5342380000000  0.4275990000000 1.0
C      1  0.4645660000000  0.5760150000000  0.4733830000000 1.0
C      1  0.5354050000000  0.4901030000000  0.4549650000000 1.0
C      1  0.5385090000000  0.4310030000000  0.5674750000000 1.0
C      1  0.5350210000000  0.4118800000000  0.4844290000000 1.0
C      1  0.3967900000000  0.5200670000000  0.5258370000000 1.0
C      1  0.4990850000000  0.5505480000000  0.5814010000000 1.0
C      1  0.4186870000000  0.4984720000000  0.5594010000000 1.0
C      1  0.4697910000000  0.4153510000000  0.4595230000000 1.0
C      1  0.5062680000000  0.4695700000000  0.5268410000000 1.0
C      1  0.5799530000000  0.5137400000000  0.5534360000000 1.0
C      1  0.4362420000000  0.4845950000000  0.5167040000000 1.0
C      1  0.4463130000000  0.4330750000000  0.5487110000000 1.0
C      1  0.3926060000000  0.4816510000000  0.4965040000000 1.0
C      1  0.5952880000000  0.5040400000000  0.5317330000000 1.0
C      1  0.5569610000000  0.4690240000000  0.5713980000000 1.0
C      1  0.4080730000000  0.4858300000000  0.4545420000000 1.0
C      1  0.5077420000000  0.4528890000000  0.4558730000000 1.0
C      1  0.4860110000000  0.4767270000000  0.5942270000000 1.0
C      1  0.5064310000000  0.4546050000000  0.5939760000000 1.0
C      1  0.5299670000000  0.5085450000000  0.5455360000000 1.0
C      1  0.4566050000000  0.6079430000000  0.5248030000000 1.0
C      1  0.4229030000000  0.5034910000000  0.4385750000000 1.0
C      1  0.4602690000000  0.5691940000000  0.5524810000000 1.0
C      1  0.5050850000000  0.5235320000000  0.5933000000000 1.0
C      1  0.5449650000000  0.5633440000000  0.4253240000000 1.0
C      1  0.4580250000000  0.4188900000000  0.5261820000000 1.0
C      1  0.4881780000000  0.4825190000000  0.4850650000000 1.0
C      1  0.4522460000000  0.5411030000000  0.4381660000000 1.0
C      1  0.4609280000000  0.4652160000000  0.5813240000000 1.0
C      1  0.5048030000000  0.5115270000000  0.5616390000000 1.0
C      1  0.5564360000000  0.5074150000000  0.4645600000000 1.0
C      1  0.3952710000000  0.5005760000000  0.4749670000000 1.0
C      1  0.5121180000000  0.4489690000000  0.5052540000000 1.0
C      1  0.5683890000000  0.5606220000000  0.5286360000000 1.0
C      1  0.4576260000000  0.5159630000000  0.5996090000000 1.0
C      1  0.5351300000000  0.4629270000000  0.4651020000000 1.0
C      1  0.4914240000000  0.4862130000000  0.5650090000000 1.0
C      1  0.5154430000000  0.4068040000000  0.4643750000000 1.0
C      1  0.4802470000000  0.4984750000000  0.4436070000000 1.0
C      1  0.4242320000000  0.5431470000000  0.5614680000000 1.0
C      1  0.5101300000000  0.4259140000000  0.4411310000000 1.0
C      1  0.5796790000000  0.5042390000000  0.4454030000000 1.0
C      1  0.6009310000000  0.5333670000000  0.4653180000000 1.0
C      1  0.5801560000000  0.5838820000000  0.4850410000000 1.0
C      1  0.4499290000000  0.4598640000000  0.4611900000000 1.0
C      1  0.4122460000000  0.5336950000000  0.5037950000000 1.0
C      1  0.3932960000000  0.4910770000000  0.5224130000000 1.0
C      1  0.4542040000000  0.4722000000000  0.4110500000000 1.0
C      1  0.5322220000000  0.4327800000000  0.4240110000000 1.0
C      1  0.4806350000000  0.5094020000000  0.3987250000000 1.0
C      1  0.5241880000000  0.5607970000000  0.5689130000000 1.0
C      1  0.5089160000000  0.5123490000000  0.4029120000000 1.0
C      1  0.4519410000000  0.5136950000000  0.4802190000000 1.0
C      1  0.5473010000000  0.5357170000000  0.4604710000000 1.0
C      1  0.5945700000000  0.5393860000000  0.4918930000000 1.0
C      1  0.4992200000000  0.4693370000000  0.4073420000000 1.0
C      1  0.5869470000000  0.5464960000000  0.4431160000000 1.0
C      1  0.4677800000000  0.5645450000000  0.4459070000000 1.0
C      1  0.5829450000000  0.4582160000000  0.4789700000000 1.0
C      1  0.4908450000000  0.4689510000000  0.4360640000000 1.0
C      1  0.5613580000000  0.4489040000000  0.4582230000000 1.0
C      1  0.4225430000000  0.4481360000000  0.5379800000000 1.0
C      1  0.5296560000000  0.5207000000000  0.4968380000000 1.0
C      1  0.4894620000000  0.3986520000000  0.4727530000000 1.0
C      1  0.5164380000000  0.5617690000000  0.4240590000000 1.0
C      1  0.5657340000000  0.4980780000000  0.5734870000000 1.0
C      1  0.5833710000000  0.5166140000000  0.5062150000000 1.0
C      1  0.4495630000000  0.5324460000000  0.5778060000000 1.0
C      1  0.5025380000000  0.4626280000000  0.5533390000000 1.0
C      1  0.4404210000000  0.4967630000000  0.4185940000000 1.0
C      1  0.5436020000000  0.5735480000000  0.5247180000000 1.0
C      1  0.4637080000000  0.4393930000000  0.5710840000000 1.0
C      1  0.4537340000000  0.5590150000000  0.4934920000000 1.0
C      1  0.4470570000000  0.5078520000000  0.5590160000000 1.0
C      1  0.5584060000000  0.4434210000000  0.5508840000000 1.0
C      1  0.4643690000000  0.4537410000000  0.4338990000000 1.0
C      1  0.5843290000000  0.5635530000000  0.5030420000000 1.0
C      1  0.4781780000000  0.4266430000000  0.4357890000000 1.0
C      1  0.4062260000000  0.5230050000000  0.5522210000000 1.0
C      1  0.5223560000000  0.5245240000000  0.5237650000000 1.0
C      1  0.4974770000000  0.5384380000000  0.4720320000000 1.0
C      1  0.5998680000000  0.4811420000000  0.4819270000000 1.0
C      1  0.5757180000000  0.5261360000000  0.4277550000000 1.0
C      1  0.4512780000000  0.5223940000000  0.5311120000000 1.0
C      1  0.4731240000000  0.5922310000000  0.5408450000000 1.0
C      1  0.6017160000000  0.4917160000000  0.5079330000000 1.0
C      1  0.4757540000000  0.4816330000000  0.3956130000000 1.0
C      1  0.4311350000000  0.5566650000000  0.5103970000000 1.0
C      1  0.5008100000000  0.5885120000000  0.5317930000000 1.0
C      1  0.4973760000000  0.5294590000000  0.5360890000000 1.0
C      1  0.4884310000000  0.5904020000000  0.4805960000000 1.0
C      1  0.5344170000000  0.5898020000000  0.4713860000000 1.0
END
