TITL C-126551-4145-6 -0.0670926739093684 125000 -890.419396196596 0 0 128 (C1) n - 1
REM
REM in /rds/project/t2_vol4/rds-t2-cs072/BORA/CARBON/from-Arr/AIRSS/Generating-Clusters/GAP-ML-2020/Higher-Symm/SD-CG/HFTN-CG
REM
REM
REM
REM
REM
REM ./C.cell (b20cbc046b6831c77cfcea5457e17084)
REM AIRSS Version 0.9.1 bugfix July 2018 build 013d7b7c2542+ Fri, 06 Jul 2018 19:26:36 +0100
REM compiler GCC version 9.3.0
REM options -cpp -mtune=generic -march=x86-64 -g -O0
REM seed -710450399 -893719309 1815539847 -1438122881 1861487041 1637486964 1036727241 1607023948 -1284005426 1138064170 1465341793 -1998059030 68308011 -196606890 1497085454 -1823668970 -2127798179 1150546203 -2045400791 -1163131549 -22442135 1767289698 1725852276 527301524 -1344092048 2139339370 -1095209618 1403562414 -637004625 -465100517 860566717 -1821510696 2115551688
REM
CELL 1.54180   50.00000   50.00000   50.00000   90.00000   90.00000   90.00000
LATT -1
SFAC C  
C      1  0.4516220000000  0.4163860000000  0.4835180000000 1.0
C      1  0.4187180000000  0.4846370000000  0.4526000000000 1.0
C      1  0.4907400000000  0.4489890000000  0.4140070000000 1.0
C      1  0.5732700000000  0.4075750000000  0.5177690000000 1.0
C      1  0.5710470000000  0.5826340000000  0.4942860000000 1.0
C      1  0.4421270000000  0.5683190000000  0.5103330000000 1.0
C      1  0.5838400000000  0.4826420000000  0.5558180000000 1.0
C      1  0.5759080000000  0.5135310000000  0.4456070000000 1.0
C      1  0.4203860000000  0.5088860000000  0.5786140000000 1.0
C      1  0.5064020000000  0.4459080000000  0.5653830000000 1.0
C      1  0.5069350000000  0.5630120000000  0.4330530000000 1.0
C      1  0.4889390000000  0.5779240000000  0.5840220000000 1.0
C      1  0.4473750000000  0.5825190000000  0.4863840000000 1.0
C      1  0.4196400000000  0.5122750000000  0.4547540000000 1.0
C      1  0.4853720000000  0.5529860000000  0.4190610000000 1.0
C      1  0.5780620000000  0.5635010000000  0.5133840000000 1.0
C      1  0.5791230000000  0.4047210000000  0.4915660000000 1.0
C      1  0.4402440000000  0.4289240000000  0.5069210000000 1.0
C      1  0.5722040000000  0.5046070000000  0.5686180000000 1.0
C      1  0.5641950000000  0.4923590000000  0.4319180000000 1.0
C      1  0.4061030000000  0.4843650000000  0.5774480000000 1.0
C      1  0.5122980000000  0.5753930000000  0.5668300000000 1.0
C      1  0.5112730000000  0.4327350000000  0.4235630000000 1.0
C      1  0.4839190000000  0.4546400000000  0.5784430000000 1.0
C      1  0.4556850000000  0.5744720000000  0.4589340000000 1.0
C      1  0.5633550000000  0.4699690000000  0.4519540000000 1.0
C      1  0.4630840000000  0.4703120000000  0.5631560000000 1.0
C      1  0.5583140000000  0.5665490000000  0.5351540000000 1.0
C      1  0.5402280000000  0.4230140000000  0.4578420000000 1.0
C      1  0.4582130000000  0.4353370000000  0.5297780000000 1.0
C      1  0.4200560000000  0.4617510000000  0.5347570000000 1.0
C      1  0.4372880000000  0.5325760000000  0.4677700000000 1.0
C      1  0.5800850000000  0.5283780000000  0.5544690000000 1.0
C      1  0.5347590000000  0.4485100000000  0.4197890000000 1.0
C      1  0.5331920000000  0.5292140000000  0.5604320000000 1.0
C      1  0.4692340000000  0.5317390000000  0.4344600000000 1.0
C      1  0.4617950000000  0.4240810000000  0.4555350000000 1.0
C      1  0.5617100000000  0.5315580000000  0.4656180000000 1.0
C      1  0.4584360000000  0.5385270000000  0.5764600000000 1.0
C      1  0.5312830000000  0.4367560000000  0.5285290000000 1.0
C      1  0.5272280000000  0.5695470000000  0.4745710000000 1.0
C      1  0.4638760000000  0.5642450000000  0.5326270000000 1.0
C      1  0.4231500000000  0.5395070000000  0.5408730000000 1.0
C      1  0.4350730000000  0.4617760000000  0.4608540000000 1.0
C      1  0.5751210000000  0.4585260000000  0.5421750000000 1.0
C      1  0.5257490000000  0.5408850000000  0.4381350000000 1.0
C      1  0.5273290000000  0.4675850000000  0.5619660000000 1.0
C      1  0.4714780000000  0.4661120000000  0.4297900000000 1.0
C      1  0.5304590000000  0.4851230000000  0.5863830000000 1.0
C      1  0.4841000000000  0.5884240000000  0.5313160000000 1.0
C      1  0.5876600000000  0.5284760000000  0.4822680000000 1.0
C      1  0.4757960000000  0.4879080000000  0.4077970000000 1.0
C      1  0.4476920000000  0.5135120000000  0.5861140000000 1.0
C      1  0.5304410000000  0.5231830000000  0.4128090000000 1.0
C      1  0.5059620000000  0.5803870000000  0.4550690000000 1.0
C      1  0.5067020000000  0.4281670000000  0.5441860000000 1.0
C      1  0.4874510000000  0.4110330000000  0.4601040000000 1.0
C      1  0.4211330000000  0.5495970000000  0.5137380000000 1.0
C      1  0.4128120000000  0.4582960000000  0.4833550000000 1.0
C      1  0.5933990000000  0.4666230000000  0.5184510000000 1.0
C      1  0.5460930000000  0.5069370000000  0.5775490000000 1.0
C      1  0.4826920000000  0.4173340000000  0.5326660000000 1.0
C      1  0.5961600000000  0.4621600000000  0.4917660000000 1.0
C      1  0.4703540000000  0.5151460000000  0.4084790000000 1.0
C      1  0.4616600000000  0.4890110000000  0.5869080000000 1.0
C      1  0.5431390000000  0.4970450000000  0.4137350000000 1.0
C      1  0.5128250000000  0.4170570000000  0.4477410000000 1.0
C      1  0.5118460000000  0.5857510000000  0.5406150000000 1.0
C      1  0.4804200000000  0.5899290000000  0.4623210000000 1.0
C      1  0.4185520000000  0.4476680000000  0.5087370000000 1.0
C      1  0.4154350000000  0.5362710000000  0.4894460000000 1.0
C      1  0.5917250000000  0.5385430000000  0.5081480000000 1.0
C      1  0.4849210000000  0.5493300000000  0.5818940000000 1.0
C      1  0.5424510000000  0.5841180000000  0.4963790000000 1.0
C      1  0.5986780000000  0.4924270000000  0.5331000000000 1.0
C      1  0.5152520000000  0.5286170000000  0.3894130000000 1.0
C      1  0.5113460000000  0.4838760000000  0.6064560000000 1.0
C      1  0.5003740000000  0.4727550000000  0.4008310000000 1.0
C      1  0.4782380000000  0.6076150000000  0.5126510000000 1.0
C      1  0.4776810000000  0.4030980000000  0.4873150000000 1.0
C      1  0.5458070000000  0.4190600000000  0.5110070000000 1.0
C      1  0.4016510000000  0.4841230000000  0.4780450000000 1.0
C      1  0.4134120000000  0.5148760000000  0.5505720000000 1.0
C      1  0.5930860000000  0.5041490000000  0.4666020000000 1.0
C      1  0.4865640000000  0.4770120000000  0.5970610000000 1.0
C      1  0.5515210000000  0.4163760000000  0.4829730000000 1.0
C      1  0.5951470000000  0.5214340000000  0.5312890000000 1.0
C      1  0.5285760000000  0.4734510000000  0.4070340000000 1.0
C      1  0.5126320000000  0.5466670000000  0.5717940000000 1.0
C      1  0.4898850000000  0.5342330000000  0.3977950000000 1.0
C      1  0.4851210000000  0.3989790000000  0.5127180000000 1.0
C      1  0.4707090000000  0.5997880000000  0.4881770000000 1.0
C      1  0.5360240000000  0.5820770000000  0.5255340000000 1.0
C      1  0.4017140000000  0.5128250000000  0.4802560000000 1.0
C      1  0.4080930000000  0.4850790000000  0.5473630000000 1.0
C      1  0.5883170000000  0.4754330000000  0.4692490000000 1.0
C      1  0.4812600000000  0.4846100000000  0.5387690000000 1.0
C      1  0.4800170000000  0.5458920000000  0.4936990000000 1.0
C      1  0.5381510000000  0.4824260000000  0.4710830000000 1.0
C      1  0.5104040000000  0.4724040000000  0.4665600000000 1.0
C      1  0.5245380000000  0.5132380000000  0.5310440000000 1.0
C      1  0.4838190000000  0.5137300000000  0.4589980000000 1.0
C      1  0.5103720000000  0.5342090000000  0.5168900000000 1.0
C      1  0.5049320000000  0.4595490000000  0.4906670000000 1.0
C      1  0.4682980000000  0.4636890000000  0.5190310000000 1.0
C      1  0.4512500000000  0.4814720000000  0.5010410000000 1.0
C      1  0.4648050000000  0.5238360000000  0.4812840000000 1.0
C      1  0.5414300000000  0.5064250000000  0.5082240000000 1.0
C      1  0.4716380000000  0.5111750000000  0.5286340000000 1.0
C      1  0.4788440000000  0.4526650000000  0.4930970000000 1.0
C      1  0.5374980000000  0.5123570000000  0.4765770000000 1.0
C      1  0.5125390000000  0.5248870000000  0.4650090000000 1.0
C      1  0.5118580000000  0.4841900000000  0.5375060000000 1.0
C      1  0.4837000000000  0.4825060000000  0.4567440000000 1.0
C      1  0.5216150000000  0.4641600000000  0.5142790000000 1.0
C      1  0.5091030000000  0.5445560000000  0.4875330000000 1.0
C      1  0.4825460000000  0.5388680000000  0.5245160000000 1.0
C      1  0.4586240000000  0.5069930000000  0.5045360000000 1.0
C      1  0.4608050000000  0.4702830000000  0.4754500000000 1.0
C      1  0.5420700000000  0.4795130000000  0.5011010000000 1.0
C      1  0.4437900000000  0.4530370000000  0.5479010000000 1.0
C      1  0.4493790000000  0.5497930000000  0.4478100000000 1.0
C      1  0.5523090000000  0.4440100000000  0.4414640000000 1.0
C      1  0.5583300000000  0.5462950000000  0.5541570000000 1.0
C      1  0.4462320000000  0.5514280000000  0.5539120000000 1.0
C      1  0.4518140000000  0.4470950000000  0.4423620000000 1.0
C      1  0.5451810000000  0.5533570000000  0.4561840000000 1.0
C      1  0.5488020000000  0.4515590000000  0.5476520000000 1.0
END
