TITL C-123294-6118-6 -13.9837869363508 125000 -760.575650574676 0 0 110 (C1) n - 1
REM
REM in /rds/project/t2_vol4/rds-t2-cs072/BORA/CARBON/from-Arr/AIRSS/Generating-Clusters/GAP-ML-2020/Higher-Symm/SD-CG/HFTN-CG
REM
REM
REM
REM
REM
REM ./C.cell (b20cbc046b6831c77cfcea5457e17084)
REM AIRSS Version 0.9.1 bugfix July 2018 build 013d7b7c2542+ Fri, 06 Jul 2018 19:26:36 +0100
REM compiler GCC version 9.3.0
REM options -cpp -mtune=generic -march=x86-64 -g -O0
REM seed -443819529 -1641876281 44033815 -1764535668 -1149767718 976127533 1217928389 695870368 -378627946 -904664782 1791938827 -2127468214 1055797616 -1574487988 -1424828422 1378188843 703986999 1441923658 -1959360233 -795893849 -613528997 871123941 2075477000 -1618099787 -888532592 -138512451 146609632 -1607084800 -189159387 893306767 982665336 -1779303795 1067307806
REM
CELL 1.54180   50.00000   50.00000   50.00000   90.00000   90.00000   90.00000
LATT -1
SFAC C  
C      1  0.5199120000000  0.4679250000000  0.5381460000000 1.0
C      1  0.4705540000000  0.4543040000000  0.5366980000000 1.0
C      1  0.4702180000000  0.5755780000000  0.5480830000000 1.0
C      1  0.5208470000000  0.5742060000000  0.5417790000000 1.0
C      1  0.4756530000000  0.4338020000000  0.4637010000000 1.0
C      1  0.5252250000000  0.4291040000000  0.4683450000000 1.0
C      1  0.4722950000000  0.5299650000000  0.5357850000000 1.0
C      1  0.5300490000000  0.5213210000000  0.5344480000000 1.0
C      1  0.4748510000000  0.5346500000000  0.5083950000000 1.0
C      1  0.5275350000000  0.5365190000000  0.5088700000000 1.0
C      1  0.4032770000000  0.4894410000000  0.5027670000000 1.0
C      1  0.5934200000000  0.4872620000000  0.5071520000000 1.0
C      1  0.4427280000000  0.5381780000000  0.5437600000000 1.0
C      1  0.5548010000000  0.5389330000000  0.5433290000000 1.0
C      1  0.5272910000000  0.4937350000000  0.5237080000000 1.0
C      1  0.4626020000000  0.4833220000000  0.5341580000000 1.0
C      1  0.4712110000000  0.4785040000000  0.4817640000000 1.0
C      1  0.5243840000000  0.4777880000000  0.4763270000000 1.0
C      1  0.5874010000000  0.5134570000000  0.5136830000000 1.0
C      1  0.4114300000000  0.5140990000000  0.5120180000000 1.0
C      1  0.5595850000000  0.4480860000000  0.4969140000000 1.0
C      1  0.4355800000000  0.4496170000000  0.4846820000000 1.0
C      1  0.4580310000000  0.4950680000000  0.4289390000000 1.0
C      1  0.5242460000000  0.5060990000000  0.4222270000000 1.0
C      1  0.4752880000000  0.4048790000000  0.4657130000000 1.0
C      1  0.5229320000000  0.4050480000000  0.4507020000000 1.0
C      1  0.4629860000000  0.5427360000000  0.4462370000000 1.0
C      1  0.5400170000000  0.5479120000000  0.4438190000000 1.0
C      1  0.4449150000000  0.5738430000000  0.5043570000000 1.0
C      1  0.5549080000000  0.5742550000000  0.5007970000000 1.0
C      1  0.4737520000000  0.4825640000000  0.5832270000000 1.0
C      1  0.5200800000000  0.4807970000000  0.5682920000000 1.0
C      1  0.4317030000000  0.5546430000000  0.4857470000000 1.0
C      1  0.5724200000000  0.5556600000000  0.4850220000000 1.0
C      1  0.5441260000000  0.4326830000000  0.5143730000000 1.0
C      1  0.4476610000000  0.4302310000000  0.5013190000000 1.0
C      1  0.5368110000000  0.5218330000000  0.5824920000000 1.0
C      1  0.4428150000000  0.5179230000000  0.5847310000000 1.0
C      1  0.5434240000000  0.4522130000000  0.4736960000000 1.0
C      1  0.4562290000000  0.4566560000000  0.4639390000000 1.0
C      1  0.4721120000000  0.4527610000000  0.4166480000000 1.0
C      1  0.5102590000000  0.4603490000000  0.4074390000000 1.0
C      1  0.4544340000000  0.5153090000000  0.4475910000000 1.0
C      1  0.5388360000000  0.5196830000000  0.4415140000000 1.0
C      1  0.5704430000000  0.4710510000000  0.5107930000000 1.0
C      1  0.4246250000000  0.4714770000000  0.5034000000000 1.0
C      1  0.5740620000000  0.5287640000000  0.4925070000000 1.0
C      1  0.4286760000000  0.5284380000000  0.4937690000000 1.0
C      1  0.4712530000000  0.5067780000000  0.4705660000000 1.0
C      1  0.5289120000000  0.5095910000000  0.4673630000000 1.0
C      1  0.4538680000000  0.4871630000000  0.5050710000000 1.0
C      1  0.5448280000000  0.4904630000000  0.5013430000000 1.0
C      1  0.4512310000000  0.5604320000000  0.4645180000000 1.0
C      1  0.5561390000000  0.5612110000000  0.4619060000000 1.0
C      1  0.5463720000000  0.5185520000000  0.4910220000000 1.0
C      1  0.4557930000000  0.5159070000000  0.4954500000000 1.0
C      1  0.5225720000000  0.4780130000000  0.4258490000000 1.0
C      1  0.4561870000000  0.4664580000000  0.4355470000000 1.0
C      1  0.4734470000000  0.4188220000000  0.4914010000000 1.0
C      1  0.5233900000000  0.4214050000000  0.4976880000000 1.0
C      1  0.4478210000000  0.5669490000000  0.5318880000000 1.0
C      1  0.5407410000000  0.5617470000000  0.5231400000000 1.0
C      1  0.5460160000000  0.5453230000000  0.5699420000000 1.0
C      1  0.4491680000000  0.5413540000000  0.5722230000000 1.0
C      1  0.4469560000000  0.4921880000000  0.5762060000000 1.0
C      1  0.5444490000000  0.4963020000000  0.5728310000000 1.0
C      1  0.5140760000000  0.4558270000000  0.5814660000000 1.0
C      1  0.4850170000000  0.4561910000000  0.5842150000000 1.0
C      1  0.4252420000000  0.5144350000000  0.5378340000000 1.0
C      1  0.5729140000000  0.5161470000000  0.5392020000000 1.0
C      1  0.5646500000000  0.4671820000000  0.5399960000000 1.0
C      1  0.4257820000000  0.4623500000000  0.5309700000000 1.0
C      1  0.5650600000000  0.4924790000000  0.5538480000000 1.0
C      1  0.4361580000000  0.4880360000000  0.5476980000000 1.0
C      1  0.4455230000000  0.4421680000000  0.5268320000000 1.0
C      1  0.5421940000000  0.4475160000000  0.5407570000000 1.0
C      1  0.5226520000000  0.5626570000000  0.5670950000000 1.0
C      1  0.4727450000000  0.5595840000000  0.5715570000000 1.0
C      1  0.5261850000000  0.4356390000000  0.5645140000000 1.0
C      1  0.4793520000000  0.4402670000000  0.5617870000000 1.0
C      1  0.5395380000000  0.5803170000000  0.4765970000000 1.0
C      1  0.4633020000000  0.5806870000000  0.4819660000000 1.0
C      1  0.4971440000000  0.4747440000000  0.4962710000000 1.0
C      1  0.4906740000000  0.5732880000000  0.3954360000000 1.0
C      1  0.4836970000000  0.5033430000000  0.5397420000000 1.0
C      1  0.4929260000000  0.5384030000000  0.4431120000000 1.0
C      1  0.4984750000000  0.4364400000000  0.4231420000000 1.0
C      1  0.5010480000000  0.4996550000000  0.5135700000000 1.0
C      1  0.5008220000000  0.5285280000000  0.4984090000000 1.0
C      1  0.5133460000000  0.5802910000000  0.4665210000000 1.0
C      1  0.4952080000000  0.5931530000000  0.5092730000000 1.0
C      1  0.4998000000000  0.5210500000000  0.4694950000000 1.0
C      1  0.5023660000000  0.4227370000000  0.5569850000000 1.0
C      1  0.5123580000000  0.5621990000000  0.4420180000000 1.0
C      1  0.4985540000000  0.5189220000000  0.4198640000000 1.0
C      1  0.4964490000000  0.3963520000000  0.4499570000000 1.0
C      1  0.4958380000000  0.4994440000000  0.5703620000000 1.0
C      1  0.5081060000000  0.5241680000000  0.5833620000000 1.0
C      1  0.5033920000000  0.5735470000000  0.4166320000000 1.0
C      1  0.5021000000000  0.4432300000000  0.4527750000000 1.0
C      1  0.4944930000000  0.5852730000000  0.5347220000000 1.0
C      1  0.4910120000000  0.5882270000000  0.4830540000000 1.0
C      1  0.5050370000000  0.4091620000000  0.4259430000000 1.0
C      1  0.4966930000000  0.4550520000000  0.5201050000000 1.0
C      1  0.4792180000000  0.4992360000000  0.4107520000000 1.0
C      1  0.4975950000000  0.4230430000000  0.5107380000000 1.0
C      1  0.4993080000000  0.5512740000000  0.5793100000000 1.0
C      1  0.4862230000000  0.4731980000000  0.4017280000000 1.0
C      1  0.5111500000000  0.4705860000000  0.4511130000000 1.0
C      1  0.4981180000000  0.4080020000000  0.5353560000000 1.0
END
