TITL C-125341-9086-4 -0.0239827682280342 125000 -487.376397809906 0 0 73 (C1) n - 1
REM
REM in /rds/project/t2_vol4/rds-t2-cs072/BORA/CARBON/from-Arr/AIRSS/Generating-Clusters/GAP-ML-2020/Higher-Symm/SD-CG/HFTN-CG
REM
REM
REM
REM
REM
REM ./C.cell (b20cbc046b6831c77cfcea5457e17084)
REM AIRSS Version 0.9.1 bugfix July 2018 build 013d7b7c2542+ Fri, 06 Jul 2018 19:26:36 +0100
REM compiler GCC version 9.3.0
REM options -cpp -mtune=generic -march=x86-64 -g -O0
REM seed -1071919156 1426799654 -817853298 -50767494 -123467866 1760794639 -100062639 642026726 696969369 -1644417507 1878665933 760248691 2130808563 72644431 -55484319 619063973 -1004683861 -1563973925 1173886843 1162006834 -99909936 -1452364434 -1810965680 -1054392330 -743067716 829794033 323590649 -231121807 -871950481 -1584280317 186306449 20519042 -1967134640
REM
CELL 1.54180   50.00000   50.00000   50.00000   90.00000   90.00000   90.00000
LATT -1
SFAC C  
C      1  0.5294790000000  0.5517480000000  0.4443220000000 1.0
C      1  0.5297480000000  0.4475060000000  0.4431090000000 1.0
C      1  0.4396790000000  0.5000850000000  0.4436310000000 1.0
C      1  0.5295060000000  0.5519530000000  0.5582420000000 1.0
C      1  0.5298230000000  0.4485720000000  0.5574370000000 1.0
C      1  0.4401540000000  0.5001320000000  0.5564360000000 1.0
C      1  0.4696180000000  0.5524720000000  0.4434300000000 1.0
C      1  0.4695820000000  0.4476780000000  0.4436010000000 1.0
C      1  0.5601690000000  0.4998020000000  0.4414680000000 1.0
C      1  0.4696040000000  0.5522400000000  0.5575460000000 1.0
C      1  0.4699190000000  0.4484790000000  0.5568420000000 1.0
C      1  0.5564000000000  0.5002180000000  0.5561180000000 1.0
C      1  0.5134400000000  0.4334780000000  0.5373170000000 1.0
C      1  0.4350310000000  0.5219320000000  0.5364710000000 1.0
C      1  0.5507980000000  0.5459450000000  0.5377300000000 1.0
C      1  0.5134730000000  0.4318750000000  0.4636390000000 1.0
C      1  0.4345900000000  0.5218880000000  0.4637590000000 1.0
C      1  0.5506130000000  0.5447210000000  0.4643340000000 1.0
C      1  0.4862430000000  0.4328560000000  0.5367330000000 1.0
C      1  0.5631470000000  0.5214670000000  0.5371270000000 1.0
C      1  0.4482210000000  0.5458650000000  0.5369180000000 1.0
C      1  0.4860620000000  0.4323990000000  0.4638490000000 1.0
C      1  0.5656310000000  0.5213820000000  0.4628580000000 1.0
C      1  0.4475060000000  0.5460910000000  0.4637080000000 1.0
C      1  0.5131340000000  0.5681390000000  0.4640980000000 1.0
C      1  0.5522680000000  0.4530660000000  0.4622630000000 1.0
C      1  0.4346280000000  0.4782040000000  0.4639650000000 1.0
C      1  0.5131680000000  0.5668730000000  0.5379500000000 1.0
C      1  0.5509940000000  0.4546030000000  0.5368960000000 1.0
C      1  0.4352230000000  0.4785260000000  0.5362020000000 1.0
C      1  0.4857810000000  0.5681460000000  0.4637210000000 1.0
C      1  0.4482880000000  0.4544310000000  0.4640400000000 1.0
C      1  0.5666980000000  0.4766320000000  0.4615890000000 1.0
C      1  0.4859440000000  0.5677860000000  0.5373280000000 1.0
C      1  0.4487830000000  0.4548320000000  0.5362850000000 1.0
C      1  0.5632760000000  0.4791660000000  0.5366900000000 1.0
C      1  0.5299210000000  0.4471610000000  0.4847140000000 1.0
C      1  0.4408480000000  0.5000270000000  0.4847690000000 1.0
C      1  0.5286280000000  0.5518910000000  0.4858190000000 1.0
C      1  0.5294760000000  0.4488580000000  0.5158950000000 1.0
C      1  0.4415460000000  0.5003430000000  0.5152910000000 1.0
C      1  0.5289600000000  0.5514910000000  0.5169070000000 1.0
C      1  0.4703600000000  0.4487740000000  0.4848210000000 1.0
C      1  0.5622170000000  0.4982150000000  0.4830190000000 1.0
C      1  0.4689550000000  0.5523770000000  0.4850240000000 1.0
C      1  0.4709730000000  0.4494100000000  0.5154920000000 1.0
C      1  0.5587640000000  0.5000370000000  0.5147130000000 1.0
C      1  0.4702180000000  0.5517320000000  0.5161090000000 1.0
C      1  0.5117890000000  0.5280470000000  0.4775120000000 1.0
C      1  0.5148150000000  0.4721170000000  0.4746580000000 1.0
C      1  0.4701380000000  0.5000550000000  0.4759550000000 1.0
C      1  0.5148660000000  0.5253670000000  0.5270510000000 1.0
C      1  0.5152960000000  0.4755820000000  0.5260350000000 1.0
C      1  0.4711230000000  0.5004330000000  0.5239110000000 1.0
C      1  0.4830440000000  0.5267440000000  0.4756840000000 1.0
C      1  0.4850690000000  0.4740060000000  0.4755450000000 1.0
C      1  0.5331060000000  0.4948110000000  0.4738570000000 1.0
C      1  0.4854630000000  0.5261740000000  0.5254790000000 1.0
C      1  0.4859100000000  0.4748710000000  0.5245310000000 1.0
C      1  0.5275580000000  0.5009400000000  0.5175040000000 1.0
C      1  0.5153200000000  0.5259990000000  0.5589370000000 1.0
C      1  0.5155150000000  0.4746710000000  0.5578420000000 1.0
C      1  0.4693640000000  0.5003030000000  0.5563870000000 1.0
C      1  0.5150390000000  0.5262360000000  0.4454140000000 1.0
C      1  0.5149950000000  0.4725910000000  0.4424940000000 1.0
C      1  0.4688870000000  0.4999560000000  0.4437010000000 1.0
C      1  0.4842700000000  0.5269290000000  0.5574440000000 1.0
C      1  0.4845930000000  0.4738580000000  0.5566080000000 1.0
C      1  0.5295430000000  0.5002080000000  0.5656280000000 1.0
C      1  0.4839430000000  0.5269660000000  0.4435100000000 1.0
C      1  0.4841580000000  0.4730430000000  0.4432140000000 1.0
C      1  0.5307650000000  0.4998980000000  0.4430840000000 1.0
C      1  0.5168000000000  0.5052740000000  0.4925660000000 1.0
END
