TITL C-126797-9290-7 1188.07733812 125000 -862.482453964169 0 0 123 (C1) n - 1
REM
REM in /rds/project/t2_vol4/rds-t2-cs072/BORA/CARBON/from-Arr/AIRSS/Generating-Clusters/GAP-ML-2020/Higher-Symm/SD-CG/HFTN-CG
REM
REM
REM
REM
REM
REM ./C.cell (b20cbc046b6831c77cfcea5457e17084)
REM AIRSS Version 0.9.1 bugfix July 2018 build 013d7b7c2542+ Fri, 06 Jul 2018 19:26:36 +0100
REM compiler GCC version 9.3.0
REM options -cpp -mtune=generic -march=x86-64 -g -O0
REM seed -1960553470 1088158550 729459171 1071703388 764066654 -48191703 2133096341 -706934054 -1026086593 70785552 1663875387 -415782973 1846832573 -932676444 545444451 -1943630281 -722802377 -1128776865 -957975165 -1562354799 684238156 -658724665 1025636881 -1006119966 -1256346161 488179909 1422847844 1708748995 -395860141 -336745490 -2100693316 -1339224433 1071745521
REM
CELL 1.54180   50.00000   50.00000   50.00000   90.00000   90.00000   90.00000
LATT -1
SFAC C  
C      1  0.4295960000000  0.5329000000000  0.4786250000000 1.0
C      1  0.5723560000000  0.5342300000000  0.5198300000000 1.0
C      1  0.5035950000000  0.5472300000000  0.4872250000000 1.0
C      1  0.4967740000000  0.5372610000000  0.5136690000000 1.0
C      1  0.4741170000000  0.4670850000000  0.5048510000000 1.0
C      1  0.5269310000000  0.4688110000000  0.5017970000000 1.0
C      1  0.4787620000000  0.4629160000000  0.4148010000000 1.0
C      1  0.5204770000000  0.4604490000000  0.5849510000000 1.0
C      1  0.5574230000000  0.4510270000000  0.5560180000000 1.0
C      1  0.4431730000000  0.4521380000000  0.4434270000000 1.0
C      1  0.5402430000000  0.4176210000000  0.5280550000000 1.0
C      1  0.4591880000000  0.4173340000000  0.4697720000000 1.0
C      1  0.5202470000000  0.4219460000000  0.5476150000000 1.0
C      1  0.4793960000000  0.4220070000000  0.4500640000000 1.0
C      1  0.4248330000000  0.5096720000000  0.5209950000000 1.0
C      1  0.5721380000000  0.5104380000000  0.4778620000000 1.0
C      1  0.4627500000000  0.4116060000000  0.4976930000000 1.0
C      1  0.5369350000000  0.4117650000000  0.5002950000000 1.0
C      1  0.4686080000000  0.5360480000000  0.5220290000000 1.0
C      1  0.5302840000000  0.5381850000000  0.4788890000000 1.0
C      1  0.4619220000000  0.5452680000000  0.5679120000000 1.0
C      1  0.5377970000000  0.5459190000000  0.4294750000000 1.0
C      1  0.5734330000000  0.4417510000000  0.5056670000000 1.0
C      1  0.4265690000000  0.4416500000000  0.4930110000000 1.0
C      1  0.4614980000000  0.4975920000000  0.5734650000000 1.0
C      1  0.5399470000000  0.5012530000000  0.4373540000000 1.0
C      1  0.5850160000000  0.4668400000000  0.4962100000000 1.0
C      1  0.4141920000000  0.4662160000000  0.5024990000000 1.0
C      1  0.5632110000000  0.4628440000000  0.4549960000000 1.0
C      1  0.4340140000000  0.4619880000000  0.5453330000000 1.0
C      1  0.5652160000000  0.5367460000000  0.4329970000000 1.0
C      1  0.4341610000000  0.5365130000000  0.5641270000000 1.0
C      1  0.5780640000000  0.4797040000000  0.4719010000000 1.0
C      1  0.4197840000000  0.4787130000000  0.5274570000000 1.0
C      1  0.4947530000000  0.5306290000000  0.4148120000000 1.0
C      1  0.5019920000000  0.5310980000000  0.5881180000000 1.0
C      1  0.5422280000000  0.5138710000000  0.4931130000000 1.0
C      1  0.4546400000000  0.5122710000000  0.5083830000000 1.0
C      1  0.5158070000000  0.4679440000000  0.5287900000000 1.0
C      1  0.4868920000000  0.4648050000000  0.4791190000000 1.0
C      1  0.4838230000000  0.4885970000000  0.5910730000000 1.0
C      1  0.5128670000000  0.4914160000000  0.3995840000000 1.0
C      1  0.5084380000000  0.5504070000000  0.5391870000000 1.0
C      1  0.4904010000000  0.5528750000000  0.4619570000000 1.0
C      1  0.5072510000000  0.4653630000000  0.4112910000000 1.0
C      1  0.4916520000000  0.4616260000000  0.5867490000000 1.0
C      1  0.5219040000000  0.5366740000000  0.4074550000000 1.0
C      1  0.4757670000000  0.5411360000000  0.5930160000000 1.0
C      1  0.5263470000000  0.4535570000000  0.4286610000000 1.0
C      1  0.4709660000000  0.4501310000000  0.5708710000000 1.0
C      1  0.4118490000000  0.4878560000000  0.4846560000000 1.0
C      1  0.5887840000000  0.4885430000000  0.5136390000000 1.0
C      1  0.5584760000000  0.5126500000000  0.4186860000000 1.0
C      1  0.4405220000000  0.5172750000000  0.5843490000000 1.0
C      1  0.5670750000000  0.5599030000000  0.5060980000000 1.0
C      1  0.4342810000000  0.5588050000000  0.4926560000000 1.0
C      1  0.4923350000000  0.4219520000000  0.5350490000000 1.0
C      1  0.5065470000000  0.4165970000000  0.4584410000000 1.0
C      1  0.5064330000000  0.5041890000000  0.5959150000000 1.0
C      1  0.4883350000000  0.5059540000000  0.4021730000000 1.0
C      1  0.4406010000000  0.5284130000000  0.4300490000000 1.0
C      1  0.5614950000000  0.5294230000000  0.5689740000000 1.0
C      1  0.5192980000000  0.4946820000000  0.4910620000000 1.0
C      1  0.4745980000000  0.4928570000000  0.5141940000000 1.0
C      1  0.5253400000000  0.5274910000000  0.4503780000000 1.0
C      1  0.4754680000000  0.5245210000000  0.5521910000000 1.0
C      1  0.5118220000000  0.5785670000000  0.5452310000000 1.0
C      1  0.4883070000000  0.5808040000000  0.4532370000000 1.0
C      1  0.5501670000000  0.5141030000000  0.5241890000000 1.0
C      1  0.4526050000000  0.5116900000000  0.4774490000000 1.0
C      1  0.4675980000000  0.4428060000000  0.4318840000000 1.0
C      1  0.5326140000000  0.4412820000000  0.5671330000000 1.0
C      1  0.4669530000000  0.4892460000000  0.4094940000000 1.0
C      1  0.5294830000000  0.4885230000000  0.5897810000000 1.0
C      1  0.5615340000000  0.5710340000000  0.5334460000000 1.0
C      1  0.4395730000000  0.5701480000000  0.4654620000000 1.0
C      1  0.5624230000000  0.4358040000000  0.5317330000000 1.0
C      1  0.4376490000000  0.4362020000000  0.4669910000000 1.0
C      1  0.5881040000000  0.5141260000000  0.5022650000000 1.0
C      1  0.4109580000000  0.5135510000000  0.4954910000000 1.0
C      1  0.5103220000000  0.4137430000000  0.4884780000000 1.0
C      1  0.4882670000000  0.4076600000000  0.5083180000000 1.0
C      1  0.4335250000000  0.4905420000000  0.4675770000000 1.0
C      1  0.5691030000000  0.4915350000000  0.5328770000000 1.0
C      1  0.5103620000000  0.4938620000000  0.5368350000000 1.0
C      1  0.4977910000000  0.4888560000000  0.4695830000000 1.0
C      1  0.5446370000000  0.5654610000000  0.4828660000000 1.0
C      1  0.4553930000000  0.5643690000000  0.5168060000000 1.0
C      1  0.5447210000000  0.4730810000000  0.4371570000000 1.0
C      1  0.4521990000000  0.4709110000000  0.5653480000000 1.0
C      1  0.5063990000000  0.5304000000000  0.5589160000000 1.0
C      1  0.4942540000000  0.5296810000000  0.4455480000000 1.0
C      1  0.4940820000000  0.4506470000000  0.5198100000000 1.0
C      1  0.5084060000000  0.4482340000000  0.4913070000000 1.0
C      1  0.5284170000000  0.4313790000000  0.4472680000000 1.0
C      1  0.4684520000000  0.4291560000000  0.5515600000000 1.0
C      1  0.5380240000000  0.5867630000000  0.5358040000000 1.0
C      1  0.4618590000000  0.5874720000000  0.4631890000000 1.0
C      1  0.5719560000000  0.5597050000000  0.4765690000000 1.0
C      1  0.4276430000000  0.5590990000000  0.5219040000000 1.0
C      1  0.4965720000000  0.5944270000000  0.5260520000000 1.0
C      1  0.5031470000000  0.5961510000000  0.4733120000000 1.0
C      1  0.4364850000000  0.4798120000000  0.4422110000000 1.0
C      1  0.5632690000000  0.4788540000000  0.5569490000000 1.0
C      1  0.5751340000000  0.5361670000000  0.4600670000000 1.0
C      1  0.4230780000000  0.5356090000000  0.5384660000000 1.0
C      1  0.5580820000000  0.4261260000000  0.4871660000000 1.0
C      1  0.4416130000000  0.4259300000000  0.5115140000000 1.0
C      1  0.5344090000000  0.5116580000000  0.4021960000000 1.0
C      1  0.4541700000000  0.5313630000000  0.6052400000000 1.0
C      1  0.4450980000000  0.5010170000000  0.4239270000000 1.0
C      1  0.5487510000000  0.5010790000000  0.5708770000000 1.0
C      1  0.5272950000000  0.5904450000000  0.4870820000000 1.0
C      1  0.4727520000000  0.5885440000000  0.5121620000000 1.0
C      1  0.4797530000000  0.5090200000000  0.4613720000000 1.0
C      1  0.5293000000000  0.5120800000000  0.5484160000000 1.0
C      1  0.5231450000000  0.5985730000000  0.5141140000000 1.0
C      1  0.4765810000000  0.5982780000000  0.4856670000000 1.0
C      1  0.5684260000000  0.5456950000000  0.5480340000000 1.0
C      1  0.4328500000000  0.5447780000000  0.4506590000000 1.0
C      1  0.4441490000000  0.4353420000000  0.5376460000000 1.0
C      1  0.5531020000000  0.4364320000000  0.4618450000000 1.0
C      1  0.5006900000000  0.5063930000000  0.5129000000000 1.0
END
