TITL C-121818-5043-9 -0.15941720747195 125000 -358.43761009679 0 0 57 (D3h) n - 1
REM
REM in /rds/project/t2_vol4/rds-t2-cs072/BORA/CARBON/from-Arr/AIRSS/Generating-Clusters/GAP-ML-2020/Higher-Symm/SD-CG/HFTN-CG
REM
REM
REM
REM
REM
REM ./C.cell (b20cbc046b6831c77cfcea5457e17084)
REM AIRSS Version 0.9.1 bugfix July 2018 build 013d7b7c2542+ Fri, 06 Jul 2018 19:26:36 +0100
REM compiler GCC version 9.3.0
REM options -cpp -mtune=generic -march=x86-64 -g -O0
REM seed 270264048 -1799140414 972905424 -156703497 1245536151 -360546916 14129863 -321385988 1052886426 -1779868081 972032328 -1994300142 17051294 -792929010 -751022778 -1030673835 1138152426 -91950161 -1555790233 -1488139652 -1369869923 -258443964 -1113807963 -812550980 -1214151992 1580582662 1268201527 -349892032 -1074033834 -2079682503 538019858 1726989325 696745588
REM
CELL 1.54180   50.00000   50.00000   50.00000   90.00000   90.00000   90.00000
LATT -1
SFAC C  
C      1  0.5521920000000  0.4535090000000  0.5121900000000 1.0
C      1  0.5521920000000  0.5338020000000  0.5341670000000 1.0
C      1  0.5521920000000  0.5126890000000  0.4536430000000 1.0
C      1  0.4480260000000  0.4535090000000  0.5121900000000 1.0
C      1  0.4480260000000  0.5338020000000  0.5341670000000 1.0
C      1  0.4480260000000  0.5126890000000  0.4536430000000 1.0
C      1  0.5521920000000  0.5464910000000  0.5121900000000 1.0
C      1  0.5521920000000  0.4661980000000  0.5341670000000 1.0
C      1  0.5521920000000  0.4873110000000  0.4536430000000 1.0
C      1  0.4480260000000  0.5464910000000  0.5121900000000 1.0
C      1  0.4480260000000  0.4661980000000  0.5341670000000 1.0
C      1  0.4480260000000  0.4873110000000  0.4536430000000 1.0
C      1  0.4867680000000  0.5754440000000  0.5133190000000 1.0
C      1  0.4867680000000  0.4738130000000  0.4280040000000 1.0
C      1  0.4867680000000  0.4507440000000  0.5586770000000 1.0
C      1  0.5134500000000  0.5754440000000  0.5133190000000 1.0
C      1  0.5134500000000  0.4738130000000  0.4280040000000 1.0
C      1  0.5134500000000  0.4507440000000  0.5586770000000 1.0
C      1  0.4867680000000  0.4245560000000  0.5133190000000 1.0
C      1  0.4867680000000  0.5261870000000  0.4280040000000 1.0
C      1  0.4867680000000  0.5492570000000  0.5586770000000 1.0
C      1  0.5134500000000  0.4245560000000  0.5133190000000 1.0
C      1  0.5134500000000  0.5261870000000  0.4280040000000 1.0
C      1  0.5134500000000  0.5492570000000  0.5586770000000 1.0
C      1  0.4846390000000  0.4855280000000  0.4749160000000 1.0
C      1  0.4846390000000  0.4855120000000  0.5250760000000 1.0
C      1  0.4846390000000  0.5289600000000  0.5000090000000 1.0
C      1  0.5155790000000  0.4855280000000  0.4749160000000 1.0
C      1  0.5155790000000  0.4855120000000  0.5250760000000 1.0
C      1  0.5155790000000  0.5289600000000  0.5000090000000 1.0
C      1  0.4846390000000  0.5144720000000  0.4749150000000 1.0
C      1  0.4846390000000  0.5144880000000  0.5250760000000 1.0
C      1  0.4846390000000  0.4710400000000  0.5000090000000 1.0
C      1  0.5155790000000  0.5144720000000  0.4749150000000 1.0
C      1  0.5155790000000  0.5144880000000  0.5250760000000 1.0
C      1  0.5155790000000  0.4710400000000  0.5000090000000 1.0
C      1  0.5270650000000  0.4750260000000  0.5503580000000 1.0
C      1  0.5270650000000  0.5560990000000  0.4964490000000 1.0
C      1  0.5270650000000  0.4688760000000  0.4531920000000 1.0
C      1  0.4731530000000  0.4750260000000  0.5503580000000 1.0
C      1  0.4731530000000  0.5560990000000  0.4964490000000 1.0
C      1  0.4731530000000  0.4688760000000  0.4531920000000 1.0
C      1  0.5270650000000  0.5249750000000  0.5503580000000 1.0
C      1  0.5270650000000  0.4439010000000  0.4964500000000 1.0
C      1  0.5270650000000  0.5311240000000  0.4531920000000 1.0
C      1  0.4731530000000  0.5249750000000  0.5503580000000 1.0
C      1  0.4731530000000  0.4439010000000  0.4964500000000 1.0
C      1  0.4731530000000  0.5311240000000  0.4531920000000 1.0
C      1  0.4850790000000  0.5000000000000  0.5638050000000 1.0
C      1  0.5151390000000  0.5000000000000  0.5638050000000 1.0
C      1  0.5151390000000  0.4447440000000  0.4680980000000 1.0
C      1  0.5151390000000  0.5552560000000  0.4680980000000 1.0
C      1  0.4850790000000  0.5552560000000  0.4680980000000 1.0
C      1  0.4850790000000  0.4447440000000  0.4680980000000 1.0
C      1  0.5001090000000  0.5652220000000  0.5376550000000 1.0
C      1  0.5001090000000  0.5000000000000  0.4246890000000 1.0
C      1  0.5001090000000  0.4347790000000  0.5376560000000 1.0
END
