TITL C-127496-3295-11 -0.0206097742687967 125000 -276.6655165502 0 0 42 (C1) n - 1
REM
REM in /rds/project/t2_vol4/rds-t2-cs072/BORA/CARBON/from-Arr/AIRSS/Generating-Clusters/GAP-ML-2020/Higher-Symm/SD-CG/HFTN-CG
REM
REM
REM
REM
REM
REM ./C.cell (b20cbc046b6831c77cfcea5457e17084)
REM AIRSS Version 0.9.1 bugfix July 2018 build 013d7b7c2542+ Fri, 06 Jul 2018 19:26:36 +0100
REM compiler GCC version 9.3.0
REM options -cpp -mtune=generic -march=x86-64 -g -O0
REM seed 1267007520 940879253 -567607677 -1785003771 -840794621 -168370375 -1539078706 83170424 -1759499380 -755231167 -537924411 -2045671806 1633595598 -1571306783 -428324430 1309025397 -1378705325 -1532667347 1029959979 -1541899524 441297693 -1077829455 2137837051 1120839592 -927370722 -1514956336 -1149192397 1215515350 943279932 963306029 -105392646 2073190337 580558952
REM
CELL 1.54180   50.00000   50.00000   50.00000   90.00000   90.00000   90.00000
LATT -1
SFAC C  
C      1  0.5528820000000  0.4701720000000  0.5127070000000 1.0
C      1  0.4826250000000  0.4700190000000  0.4467250000000 1.0
C      1  0.4616030000000  0.4689250000000  0.5413030000000 1.0
C      1  0.4818400000000  0.4997730000000  0.5111930000000 1.0
C      1  0.5212060000000  0.5020840000000  0.4961380000000 1.0
C      1  0.4958960000000  0.4969460000000  0.4876700000000 1.0
C      1  0.4587160000000  0.4769100000000  0.5124660000000 1.0
C      1  0.5363880000000  0.4672410000000  0.5354280000000 1.0
C      1  0.5102140000000  0.4660920000000  0.4497910000000 1.0
C      1  0.5007600000000  0.4880300000000  0.4349730000000 1.0
C      1  0.4416080000000  0.4865160000000  0.5347970000000 1.0
C      1  0.5538670000000  0.4896860000000  0.5327440000000 1.0
C      1  0.4491820000000  0.5317420000000  0.5125280000000 1.0
C      1  0.5274040000000  0.5343130000000  0.5286040000000 1.0
C      1  0.5181400000000  0.5313140000000  0.4570800000000 1.0
C      1  0.4881700000000  0.4757750000000  0.5506700000000 1.0
C      1  0.5440010000000  0.4803750000000  0.4863870000000 1.0
C      1  0.4615410000000  0.4764220000000  0.4648350000000 1.0
C      1  0.5119330000000  0.4430450000000  0.4892100000000 1.0
C      1  0.4839820000000  0.4417860000000  0.4932350000000 1.0
C      1  0.5016680000000  0.4417530000000  0.5160220000000 1.0
C      1  0.4738390000000  0.5222660000000  0.4506010000000 1.0
C      1  0.4670850000000  0.5209710000000  0.5538930000000 1.0
C      1  0.5642940000000  0.5229200000000  0.5004670000000 1.0
C      1  0.4632840000000  0.4610250000000  0.4892360000000 1.0
C      1  0.5084760000000  0.4600930000000  0.5373230000000 1.0
C      1  0.5265840000000  0.4609130000000  0.4724600000000 1.0
C      1  0.4752090000000  0.5415150000000  0.4728080000000 1.0
C      1  0.4824560000000  0.5427930000000  0.5423280000000 1.0
C      1  0.5483910000000  0.5432630000000  0.4883670000000 1.0
C      1  0.5604340000000  0.5049580000000  0.4776930000000 1.0
C      1  0.4553830000000  0.5049040000000  0.4645510000000 1.0
C      1  0.4902870000000  0.5043980000000  0.5565550000000 1.0
C      1  0.5070930000000  0.5291870000000  0.5470330000000 1.0
C      1  0.5455920000000  0.5285300000000  0.4641350000000 1.0
C      1  0.4528670000000  0.5264550000000  0.4854450000000 1.0
C      1  0.4993810000000  0.5149630000000  0.4423530000000 1.0
C      1  0.4472220000000  0.5140930000000  0.5361420000000 1.0
C      1  0.5515530000000  0.5166730000000  0.5249980000000 1.0
C      1  0.5231020000000  0.5476020000000  0.5014510000000 1.0
C      1  0.5031000000000  0.5447000000000  0.4786150000000 1.0
C      1  0.4707430000000  0.5488580000000  0.5190400000000 1.0
END
