TITL C-121836-5024-10 -0.0270422431165161 125000 -589.310026972513 0 0 86 (Ci) n - 1
REM
REM in /rds/project/t2_vol4/rds-t2-cs072/BORA/CARBON/from-Arr/AIRSS/Generating-Clusters/GAP-ML-2020/Higher-Symm/SD-CG/HFTN-CG
REM
REM
REM
REM
REM
REM ./C.cell (b20cbc046b6831c77cfcea5457e17084)
REM AIRSS Version 0.9.1 bugfix July 2018 build 013d7b7c2542+ Fri, 06 Jul 2018 19:26:36 +0100
REM compiler GCC version 9.3.0
REM options -cpp -mtune=generic -march=x86-64 -g -O0
REM seed 559069623 -389782831 -338882303 -1273617048 55638964 1118565783 -987045518 1418158482 1446942131 -139236380 -694136928 803287516 1615317496 -1675658404 -1263052554 1924943462 -387936476 -2106505454 314114499 1874366054 512135520 1227136606 -155837195 -1237378292 1430886017 -490331461 1659933328 1171043269 -1247475532 -727379598 -154657035 -1957524922 387524818
REM
CELL 1.54180   50.00000   50.00000   50.00000   90.00000   90.00000   90.00000
LATT -1
SFAC C  
C      1  0.4384360000000  0.5452120000000  0.5127200000000 1.0
C      1  0.4795550000000  0.4557780000000  0.5604670000000 1.0
C      1  0.5429760000000  0.5384340000000  0.5445960000000 1.0
C      1  0.5612330000000  0.4547880000000  0.4881980000000 1.0
C      1  0.5201140000000  0.5442220000000  0.4404510000000 1.0
C      1  0.4566940000000  0.4615660000000  0.4563220000000 1.0
C      1  0.4458790000000  0.4817040000000  0.4766650000000 1.0
C      1  0.4581840000000  0.5273090000000  0.5256970000000 1.0
C      1  0.5003090000000  0.4755390000000  0.5543130000000 1.0
C      1  0.5537900000000  0.5182960000000  0.5242530000000 1.0
C      1  0.5414860000000  0.4726910000000  0.4752210000000 1.0
C      1  0.4993600000000  0.5244610000000  0.4466050000000 1.0
C      1  0.4747100000000  0.5777270000000  0.5123580000000 1.0
C      1  0.4982850000000  0.4218660000000  0.5291290000000 1.0
C      1  0.5246560000000  0.5761860000000  0.5150380000000 1.0
C      1  0.5249590000000  0.4222730000000  0.4885610000000 1.0
C      1  0.5013840000000  0.5781340000000  0.4717890000000 1.0
C      1  0.4750130000000  0.4238140000000  0.4858800000000 1.0
C      1  0.5445870000000  0.5028710000000  0.4756080000000 1.0
C      1  0.4941990000000  0.4892720000000  0.4780400000000 1.0
C      1  0.4687730000000  0.5033020000000  0.4777940000000 1.0
C      1  0.4550830000000  0.4971290000000  0.5253100000000 1.0
C      1  0.5054700000000  0.5107280000000  0.5228790000000 1.0
C      1  0.5308970000000  0.4966980000000  0.5231240000000 1.0
C      1  0.4987150000000  0.5605350000000  0.5516480000000 1.0
C      1  0.5459120000000  0.4333330000000  0.5304680000000 1.0
C      1  0.5484780000000  0.5657750000000  0.4761530000000 1.0
C      1  0.5009540000000  0.4394650000000  0.4492710000000 1.0
C      1  0.4537570000000  0.5666670000000  0.4704500000000 1.0
C      1  0.4511920000000  0.4342250000000  0.5247660000000 1.0
C      1  0.4639200000000  0.4765070000000  0.4334830000000 1.0
C      1  0.4197440000000  0.5297160000000  0.4979740000000 1.0
C      1  0.4568080000000  0.4702690000000  0.5698980000000 1.0
C      1  0.5357500000000  0.5234930000000  0.5674350000000 1.0
C      1  0.5799250000000  0.4702840000000  0.5029440000000 1.0
C      1  0.5428610000000  0.5297310000000  0.4310200000000 1.0
C      1  0.5242490000000  0.5655300000000  0.4595550000000 1.0
C      1  0.4745100000000  0.4392350000000  0.4614410000000 1.0
C      1  0.4510420000000  0.5680800000000  0.4991860000000 1.0
C      1  0.4754210000000  0.4344700000000  0.5413640000000 1.0
C      1  0.5251590000000  0.5607650000000  0.5394780000000 1.0
C      1  0.5486280000000  0.4319200000000  0.5017330000000 1.0
C      1  0.4777870000000  0.5707320000000  0.5381090000000 1.0
C      1  0.5232410000000  0.4220360000000  0.5398600000000 1.0
C      1  0.5471170000000  0.5798560000000  0.4996660000000 1.0
C      1  0.5218820000000  0.4292680000000  0.4628090000000 1.0
C      1  0.4764280000000  0.5779640000000  0.4610580000000 1.0
C      1  0.4525520000000  0.4201440000000  0.5012520000000 1.0
C      1  0.5369030000000  0.4949750000000  0.5709330000000 1.0
C      1  0.5842040000000  0.4991880000000  0.5022760000000 1.0
C      1  0.5446490000000  0.4973470000000  0.4319560000000 1.0
C      1  0.4627660000000  0.5050250000000  0.4299850000000 1.0
C      1  0.4154660000000  0.5008120000000  0.4986420000000 1.0
C      1  0.4550210000000  0.5026530000000  0.5689620000000 1.0
C      1  0.4907290000000  0.4776460000000  0.4227730000000 1.0
C      1  0.4245160000000  0.5285820000000  0.4690490000000 1.0
C      1  0.4334480000000  0.4678480000000  0.5530760000000 1.0
C      1  0.5089410000000  0.5223540000000  0.5781450000000 1.0
C      1  0.5751530000000  0.4714180000000  0.5318690000000 1.0
C      1  0.5662210000000  0.5321520000000  0.4478420000000 1.0
C      1  0.5630210000000  0.5195610000000  0.4945870000000 1.0
C      1  0.5341510000000  0.4737170000000  0.4434080000000 1.0
C      1  0.4680130000000  0.5221640000000  0.4529400000000 1.0
C      1  0.4366480000000  0.4804390000000  0.5063310000000 1.0
C      1  0.4655190000000  0.5262830000000  0.5575100000000 1.0
C      1  0.5316570000000  0.4778360000000  0.5479780000000 1.0
C      1  0.5087520000000  0.4934480000000  0.5777010000000 1.0
C      1  0.5770550000000  0.5004280000000  0.5303920000000 1.0
C      1  0.5640890000000  0.5042430000000  0.4511510000000 1.0
C      1  0.4909170000000  0.5065520000000  0.4232170000000 1.0
C      1  0.4226150000000  0.4995720000000  0.4705270000000 1.0
C      1  0.4355800000000  0.4957570000000  0.5497680000000 1.0
C      1  0.4464160000000  0.5418490000000  0.4577990000000 1.0
C      1  0.4341820000000  0.4575260000000  0.5264570000000 1.0
C      1  0.4887010000000  0.5388010000000  0.5676490000000 1.0
C      1  0.5532530000000  0.4581510000000  0.5431200000000 1.0
C      1  0.5654880000000  0.5424740000000  0.4744610000000 1.0
C      1  0.5109690000000  0.4611990000000  0.4332690000000 1.0
C      1  0.4867930000000  0.4883090000000  0.5268610000000 1.0
C      1  0.5027840000000  0.5264780000000  0.4990530000000 1.0
C      1  0.5246210000000  0.4748710000000  0.5014150000000 1.0
C      1  0.5128760000000  0.5116910000000  0.4740570000000 1.0
C      1  0.4968860000000  0.4735220000000  0.5018650000000 1.0
C      1  0.4750490000000  0.5251290000000  0.4995040000000 1.0
C      1  0.5002930000000  0.5815840000000  0.5003720000000 1.0
C      1  0.4993760000000  0.4184160000000  0.5005460000000 1.0
END
