TITL C-126800-9188-1 -0.241374853172786 125000 -835.371018009593 0 0 118 (C1) n - 1
REM
REM in /rds/project/t2_vol4/rds-t2-cs072/BORA/CARBON/from-Arr/AIRSS/Generating-Clusters/GAP-ML-2020/Higher-Symm/SD-CG/HFTN-CG
REM
REM
REM
REM
REM
REM ./C.cell (b20cbc046b6831c77cfcea5457e17084)
REM AIRSS Version 0.9.1 bugfix July 2018 build 013d7b7c2542+ Fri, 06 Jul 2018 19:26:36 +0100
REM compiler GCC version 9.3.0
REM options -cpp -mtune=generic -march=x86-64 -g -O0
REM seed -754833446 -337856839 518516063 -1777321459 1071903372 -72143803 605919148 -2125889988 727454813 12596138 1242857382 1348568979 -366857109 -1964215886 1153479748 -1554599927 -488161894 -829308103 -1613768988 868120679 1770314028 1263386797 -300050182 1908272342 -1057656928 -1249499434 -125884911 -1839767204 636207418 1593088240 -1108905404 821600917 -1772515650
REM
CELL 1.54180   50.00000   50.00000   50.00000   90.00000   90.00000   90.00000
LATT -1
SFAC C  
C      1  0.4355950000000  0.5655100000000  0.4868550000000 1.0
C      1  0.4929780000000  0.5628930000000  0.4312650000000 1.0
C      1  0.5610960000000  0.5661850000000  0.4730280000000 1.0
C      1  0.5466940000000  0.5554070000000  0.5486580000000 1.0
C      1  0.4671100000000  0.5645850000000  0.5574670000000 1.0
C      1  0.5665630000000  0.4462900000000  0.4867290000000 1.0
C      1  0.5068620000000  0.4372400000000  0.4352750000000 1.0
C      1  0.4401210000000  0.4393340000000  0.4726500000000 1.0
C      1  0.4554810000000  0.4435820000000  0.5488390000000 1.0
C      1  0.5339780000000  0.4357420000000  0.5558100000000 1.0
C      1  0.5480660000000  0.4525940000000  0.5736740000000 1.0
C      1  0.4447490000000  0.4677180000000  0.5624550000000 1.0
C      1  0.4180460000000  0.4589910000000  0.4649810000000 1.0
C      1  0.5036960000000  0.4547110000000  0.4125400000000 1.0
C      1  0.5858260000000  0.4684250000000  0.4805350000000 1.0
C      1  0.4511530000000  0.5482920000000  0.5740830000000 1.0
C      1  0.5584130000000  0.5339260000000  0.5648420000000 1.0
C      1  0.5829480000000  0.5490620000000  0.4673860000000 1.0
C      1  0.4924510000000  0.5415120000000  0.4090680000000 1.0
C      1  0.4143030000000  0.5488180000000  0.4785830000000 1.0
C      1  0.5648310000000  0.4462910000000  0.5156030000000 1.0
C      1  0.5056210000000  0.4391570000000  0.5637730000000 1.0
C      1  0.4406850000000  0.4418940000000  0.5238810000000 1.0
C      1  0.4594460000000  0.4400020000000  0.4511940000000 1.0
C      1  0.5338920000000  0.4417200000000  0.4447870000000 1.0
C      1  0.4381150000000  0.5592130000000  0.5155300000000 1.0
C      1  0.4950480000000  0.5610230000000  0.5663020000000 1.0
C      1  0.5614440000000  0.5555350000000  0.5233070000000 1.0
C      1  0.5433790000000  0.5637730000000  0.4495960000000 1.0
C      1  0.4663840000000  0.5627700000000  0.4435090000000 1.0
C      1  0.5062200000000  0.5182550000000  0.4485220000000 1.0
C      1  0.5444490000000  0.5143720000000  0.4858080000000 1.0
C      1  0.5142140000000  0.5115650000000  0.5479450000000 1.0
C      1  0.4668440000000  0.5157840000000  0.5413900000000 1.0
C      1  0.4509610000000  0.5169470000000  0.4741030000000 1.0
C      1  0.4944060000000  0.4923560000000  0.4469310000000 1.0
C      1  0.4476440000000  0.4905410000000  0.4843010000000 1.0
C      1  0.4880380000000  0.4960600000000  0.5522170000000 1.0
C      1  0.5329900000000  0.4917680000000  0.5368600000000 1.0
C      1  0.5428570000000  0.4894860000000  0.4746130000000 1.0
C      1  0.4726450000000  0.4831450000000  0.4265130000000 1.0
C      1  0.5576070000000  0.4812380000000  0.4482750000000 1.0
C      1  0.5650980000000  0.4885240000000  0.5450810000000 1.0
C      1  0.4842940000000  0.4810880000000  0.5791370000000 1.0
C      1  0.4223730000000  0.4788020000000  0.4981070000000 1.0
C      1  0.5286910000000  0.5252080000000  0.4274370000000 1.0
C      1  0.4369360000000  0.5242170000000  0.4483370000000 1.0
C      1  0.4343080000000  0.5140170000000  0.5427990000000 1.0
C      1  0.5172240000000  0.5230870000000  0.5787450000000 1.0
C      1  0.5915810000000  0.5145680000000  0.5038850000000 1.0
C      1  0.5847970000000  0.4835110000000  0.4559450000000 1.0
C      1  0.5646840000000  0.4759450000000  0.5712470000000 1.0
C      1  0.4565360000000  0.4828010000000  0.5839070000000 1.0
C      1  0.4027220000000  0.4805700000000  0.4783930000000 1.0
C      1  0.4873680000000  0.4770980000000  0.4032840000000 1.0
C      1  0.4105060000000  0.5287600000000  0.4572560000000 1.0
C      1  0.4334640000000  0.5254840000000  0.5702560000000 1.0
C      1  0.5437860000000  0.5192140000000  0.5852250000000 1.0
C      1  0.5967490000000  0.5261880000000  0.4790880000000 1.0
C      1  0.5141220000000  0.5222720000000  0.4033120000000 1.0
C      1  0.4238630000000  0.5340070000000  0.5218260000000 1.0
C      1  0.4520020000000  0.5405620000000  0.4306600000000 1.0
C      1  0.5517600000000  0.5406100000000  0.4347290000000 1.0
C      1  0.5793360000000  0.5316820000000  0.5239580000000 1.0
C      1  0.4950380000000  0.5393850000000  0.5852150000000 1.0
C      1  0.5771880000000  0.4712430000000  0.5246540000000 1.0
C      1  0.5443010000000  0.4644490000000  0.4303160000000 1.0
C      1  0.4533000000000  0.4637690000000  0.4347670000000 1.0
C      1  0.4246820000000  0.4654070000000  0.5226190000000 1.0
C      1  0.5044270000000  0.4615440000000  0.5826060000000 1.0
C      1  0.5307270000000  0.4686990000000  0.5904810000000 1.0
C      1  0.4288400000000  0.4829390000000  0.5445290000000 1.0
C      1  0.4285100000000  0.4713060000000  0.4430050000000 1.0
C      1  0.5262960000000  0.4721440000000  0.4093430000000 1.0
C      1  0.5903430000000  0.4846690000000  0.5039020000000 1.0
C      1  0.4680910000000  0.5319390000000  0.5907280000000 1.0
C      1  0.5736400000000  0.5176930000000  0.5474970000000 1.0
C      1  0.5778650000000  0.5331140000000  0.4432700000000 1.0
C      1  0.4678500000000  0.5301370000000  0.4102750000000 1.0
C      1  0.4077440000000  0.5288240000000  0.4981950000000 1.0
C      1  0.4915870000000  0.4767100000000  0.5281090000000 1.0
C      1  0.4724840000000  0.4783540000000  0.4864660000000 1.0
C      1  0.4961510000000  0.4791400000000  0.4718440000000 1.0
C      1  0.5201570000000  0.4770560000000  0.4879140000000 1.0
C      1  0.5183070000000  0.4766260000000  0.5171380000000 1.0
C      1  0.5076440000000  0.5291730000000  0.5213170000000 1.0
C      1  0.5212470000000  0.5245800000000  0.4953220000000 1.0
C      1  0.5013280000000  0.5329580000000  0.4747290000000 1.0
C      1  0.4734580000000  0.5297090000000  0.4871920000000 1.0
C      1  0.4790090000000  0.5198840000000  0.5146320000000 1.0
C      1  0.4580830000000  0.5741220000000  0.4694660000000 1.0
C      1  0.5154650000000  0.5711420000000  0.4476480000000 1.0
C      1  0.5517850000000  0.5708240000000  0.5000530000000 1.0
C      1  0.5194730000000  0.5661480000000  0.5503010000000 1.0
C      1  0.4591190000000  0.5715870000000  0.5309760000000 1.0
C      1  0.5444090000000  0.4332600000000  0.4706120000000 1.0
C      1  0.4861060000000  0.4287270000000  0.4532560000000 1.0
C      1  0.4499160000000  0.4305770000000  0.4986780000000 1.0
C      1  0.4812100000000  0.4303170000000  0.5501290000000 1.0
C      1  0.5457730000000  0.4297090000000  0.5296040000000 1.0
C      1  0.5231190000000  0.5759460000000  0.4998230000000 1.0
C      1  0.5083790000000  0.5620400000000  0.5233330000000 1.0
C      1  0.4829460000000  0.5783230000000  0.5164140000000 1.0
C      1  0.4821850000000  0.5807940000000  0.4838060000000 1.0
C      1  0.5066140000000  0.5654200000000  0.4748090000000 1.0
C      1  0.4761400000000  0.4192230000000  0.5001570000000 1.0
C      1  0.4866870000000  0.4145460000000  0.5265930000000 1.0
C      1  0.5287590000000  0.4137100000000  0.5130420000000 1.0
C      1  0.5240390000000  0.4190980000000  0.4854370000000 1.0
C      1  0.4954100000000  0.4191000000000  0.4786110000000 1.0
C      1  0.4496800000000  0.5095540000000  0.5878830000000 1.0
C      1  0.5104390000000  0.4947170000000  0.3993080000000 1.0
C      1  0.5488980000000  0.4916670000000  0.5895720000000 1.0
C      1  0.4017940000000  0.5085240000000  0.4763610000000 1.0
C      1  0.5921620000000  0.5104810000000  0.4552060000000 1.0
C      1  0.4997500000000  0.5958830000000  0.5008010000000 1.0
C      1  0.5093970000000  0.3989950000000  0.5264710000000 1.0
C      1  0.4751470000000  0.4905400000000  0.5108680000000 1.0
END
