TITL C-127513-171-2 -0.112572859253194 125000 -537.076991679194 0 0 76 (C1) n - 1
REM
REM in /rds/project/t2_vol4/rds-t2-cs072/BORA/CARBON/from-Arr/AIRSS/Generating-Clusters/GAP-ML-2020/Higher-Symm/SD-CG/HFTN-CG
REM
REM
REM
REM
REM
REM ./C.cell (b20cbc046b6831c77cfcea5457e17084)
REM AIRSS Version 0.9.1 bugfix July 2018 build 013d7b7c2542+ Fri, 06 Jul 2018 19:26:36 +0100
REM compiler GCC version 9.3.0
REM options -cpp -mtune=generic -march=x86-64 -g -O0
REM seed -617751324 158228620 226973468 131508508 -975439388 1553727054 1318371677 -2108692014 -1982035606 -1498442582 -848587344 1821805027 87727108 472374988 1136884400 862981440 1905187400 1745982538 1632374598 -837092781 -286111376 -2033733784 -900003045 -2032174360 1302230252 669563396 589682350 -1197355014 1956660156 -186011062 1536833684 -1602188233 -662126781
REM
CELL 1.54180   50.00000   50.00000   50.00000   90.00000   90.00000   90.00000
LATT -1
SFAC C  
C      1  0.5116020000000  0.5646840000000  0.4593280000000 1.0
C      1  0.5170780000000  0.5715280000000  0.4875620000000 1.0
C      1  0.5333360000000  0.5506530000000  0.4450530000000 1.0
C      1  0.5625680000000  0.5496890000000  0.4852910000000 1.0
C      1  0.5022660000000  0.5525800000000  0.5552140000000 1.0
C      1  0.5524220000000  0.4772590000000  0.4698840000000 1.0
C      1  0.4539250000000  0.4418080000000  0.4708970000000 1.0
C      1  0.4704710000000  0.5168470000000  0.5685420000000 1.0
C      1  0.4543710000000  0.5215140000000  0.5456810000000 1.0
C      1  0.4869480000000  0.5142360000000  0.4186100000000 1.0
C      1  0.4853710000000  0.5578910000000  0.4493660000000 1.0
C      1  0.5110120000000  0.4874320000000  0.5216820000000 1.0
C      1  0.5606770000000  0.5102180000000  0.5409210000000 1.0
C      1  0.5510290000000  0.4648330000000  0.5510630000000 1.0
C      1  0.4890190000000  0.5114210000000  0.4839410000000 1.0
C      1  0.4620620000000  0.5390720000000  0.5232860000000 1.0
C      1  0.4918240000000  0.5342700000000  0.5760510000000 1.0
C      1  0.5273970000000  0.4508030000000  0.5606360000000 1.0
C      1  0.5188980000000  0.4390930000000  0.4713140000000 1.0
C      1  0.4588790000000  0.4491760000000  0.5396770000000 1.0
C      1  0.5484730000000  0.5371670000000  0.5431980000000 1.0
C      1  0.4727420000000  0.4491690000000  0.4505970000000 1.0
C      1  0.5131330000000  0.4337880000000  0.5420550000000 1.0
C      1  0.4926500000000  0.4729190000000  0.5081060000000 1.0
C      1  0.5141360000000  0.5154490000000  0.4100690000000 1.0
C      1  0.4981480000000  0.5748060000000  0.5105550000000 1.0
C      1  0.4346760000000  0.4632890000000  0.4740970000000 1.0
C      1  0.4303620000000  0.4941660000000  0.5111510000000 1.0
C      1  0.5325230000000  0.5315130000000  0.4249530000000 1.0
C      1  0.4543630000000  0.4752860000000  0.5519410000000 1.0
C      1  0.4306100000000  0.5157380000000  0.4915180000000 1.0
C      1  0.4708310000000  0.5670850000000  0.5114720000000 1.0
C      1  0.5125000000000  0.5694620000000  0.5349620000000 1.0
C      1  0.5099260000000  0.4751200000000  0.4362470000000 1.0
C      1  0.4396060000000  0.4839920000000  0.4552620000000 1.0
C      1  0.4400940000000  0.5394280000000  0.5026730000000 1.0
C      1  0.5577630000000  0.5439950000000  0.4589620000000 1.0
C      1  0.4435140000000  0.4461830000000  0.5158660000000 1.0
C      1  0.5167910000000  0.5187150000000  0.5771690000000 1.0
C      1  0.4751260000000  0.5350720000000  0.4333970000000 1.0
C      1  0.5525560000000  0.4916560000000  0.5611680000000 1.0
C      1  0.5588750000000  0.4942480000000  0.5141950000000 1.0
C      1  0.4524060000000  0.5620410000000  0.4898560000000 1.0
C      1  0.5022290000000  0.4494640000000  0.4498150000000 1.0
C      1  0.5680920000000  0.4973160000000  0.4853720000000 1.0
C      1  0.4786570000000  0.4867590000000  0.4911180000000 1.0
C      1  0.4831470000000  0.4234710000000  0.5076610000000 1.0
C      1  0.5488200000000  0.4453590000000  0.5075580000000 1.0
C      1  0.5148240000000  0.4692580000000  0.5796960000000 1.0
C      1  0.5080490000000  0.5154310000000  0.5256920000000 1.0
C      1  0.4297040000000  0.4671820000000  0.5019550000000 1.0
C      1  0.5272010000000  0.4292440000000  0.5171080000000 1.0
C      1  0.4615860000000  0.4734280000000  0.4392620000000 1.0
C      1  0.4422430000000  0.4971240000000  0.5371530000000 1.0
C      1  0.5091680000000  0.4252530000000  0.4951540000000 1.0
C      1  0.4884860000000  0.4719150000000  0.5877110000000 1.0
C      1  0.5437350000000  0.4523450000000  0.4797760000000 1.0
C      1  0.5300170000000  0.4944790000000  0.5797750000000 1.0
C      1  0.5695910000000  0.5235550000000  0.4750630000000 1.0
C      1  0.5587860000000  0.4657280000000  0.5239930000000 1.0
C      1  0.5427560000000  0.5641080000000  0.4994320000000 1.0
C      1  0.4581310000000  0.4304530000000  0.4965300000000 1.0
C      1  0.4829450000000  0.4871440000000  0.4278580000000 1.0
C      1  0.4842880000000  0.4325830000000  0.5349670000000 1.0
C      1  0.4511650000000  0.5326190000000  0.4499820000000 1.0
C      1  0.5305090000000  0.4926500000000  0.4566120000000 1.0
C      1  0.5212200000000  0.5297260000000  0.5499470000000 1.0
C      1  0.4364700000000  0.5115580000000  0.4629190000000 1.0
C      1  0.5175870000000  0.5083880000000  0.4786040000000 1.0
C      1  0.5273340000000  0.4891930000000  0.4151710000000 1.0
C      1  0.4872190000000  0.5257480000000  0.5096140000000 1.0
C      1  0.5401350000000  0.5602170000000  0.5275120000000 1.0
C      1  0.4709870000000  0.4872190000000  0.5725890000000 1.0
C      1  0.4592750000000  0.5572810000000  0.4633920000000 1.0
C      1  0.5287830000000  0.5034240000000  0.5051090000000 1.0
C      1  0.5439070000000  0.5050870000000  0.4324310000000 1.0
END
