TITL C-122796-4886-6 -0.0209675771089233 125000 -995.047665324114 0 0 138 (C1) n - 1
REM
REM in /rds/project/t2_vol4/rds-t2-cs072/BORA/CARBON/from-Arr/AIRSS/Generating-Clusters/GAP-ML-2020/Higher-Symm/SD-CG/HFTN-CG
REM
REM
REM
REM
REM
REM ./C.cell (b20cbc046b6831c77cfcea5457e17084)
REM AIRSS Version 0.9.1 bugfix July 2018 build 013d7b7c2542+ Fri, 06 Jul 2018 19:26:36 +0100
REM compiler GCC version 9.3.0
REM options -cpp -mtune=generic -march=x86-64 -g -O0
REM seed -1402859601 -155556385 435010302 848526293 1913320231 1970998937 560200202 1604565196 -502234941 1655397918 -369849405 -918326643 1133470566 -1548953208 1225198478 -486979895 -1655437713 66454141 386975231 -932943369 -233705216 -805944463 -307111176 1942395819 486595911 162817728 -1338890306 2126489299 350268079 -1945871492 1284540090 -996778208 -310139160
REM
CELL 1.54180   50.00000   50.00000   50.00000   90.00000   90.00000   90.00000
LATT -1
SFAC C  
C      1  0.5374290000000  0.4128240000000  0.4648130000000 1.0
C      1  0.4967830000000  0.5910680000000  0.4786520000000 1.0
C      1  0.4165370000000  0.5097480000000  0.5514230000000 1.0
C      1  0.5581430000000  0.5773620000000  0.5189320000000 1.0
C      1  0.5694270000000  0.5080150000000  0.5583790000000 1.0
C      1  0.5365090000000  0.4511460000000  0.5226600000000 1.0
C      1  0.4658770000000  0.5912510000000  0.5199970000000 1.0
C      1  0.5036580000000  0.4107820000000  0.5341140000000 1.0
C      1  0.5324300000000  0.4815950000000  0.4804680000000 1.0
C      1  0.5401760000000  0.4080020000000  0.5127390000000 1.0
C      1  0.5133610000000  0.3986670000000  0.5106200000000 1.0
C      1  0.4845530000000  0.4526110000000  0.4733330000000 1.0
C      1  0.4482210000000  0.5746450000000  0.4517050000000 1.0
C      1  0.4331750000000  0.5520980000000  0.4420300000000 1.0
C      1  0.5455690000000  0.4467720000000  0.5822860000000 1.0
C      1  0.4441430000000  0.4621220000000  0.4419050000000 1.0
C      1  0.4694480000000  0.4027880000000  0.4919180000000 1.0
C      1  0.5539840000000  0.4149820000000  0.4892670000000 1.0
C      1  0.4523350000000  0.5160580000000  0.5224730000000 1.0
C      1  0.5906740000000  0.5163350000000  0.5381540000000 1.0
C      1  0.4140660000000  0.5539660000000  0.4882900000000 1.0
C      1  0.4675730000000  0.5153510000000  0.4720090000000 1.0
C      1  0.4373740000000  0.5061640000000  0.5711070000000 1.0
C      1  0.4716050000000  0.5532340000000  0.4189510000000 1.0
C      1  0.4693400000000  0.5408530000000  0.5124650000000 1.0
C      1  0.5790360000000  0.4639180000000  0.5474540000000 1.0
C      1  0.4293330000000  0.5755360000000  0.4968760000000 1.0
C      1  0.5162360000000  0.4847680000000  0.5726630000000 1.0
C      1  0.4651350000000  0.4172430000000  0.4450840000000 1.0
C      1  0.4529080000000  0.5073120000000  0.4177200000000 1.0
C      1  0.5840820000000  0.5108070000000  0.4386290000000 1.0
C      1  0.4061300000000  0.4727990000000  0.4682120000000 1.0
C      1  0.3982710000000  0.5125750000000  0.4894020000000 1.0
C      1  0.4371860000000  0.5566040000000  0.5417310000000 1.0
C      1  0.5182790000000  0.5273630000000  0.4602560000000 1.0
C      1  0.4242070000000  0.4519260000000  0.4633310000000 1.0
C      1  0.5993040000000  0.4964080000000  0.5191980000000 1.0
C      1  0.4853290000000  0.5889410000000  0.5405170000000 1.0
C      1  0.4866460000000  0.5753320000000  0.5911080000000 1.0
C      1  0.5433420000000  0.4901540000000  0.4202160000000 1.0
C      1  0.4510030000000  0.4806830000000  0.5738230000000 1.0
C      1  0.4957400000000  0.4695300000000  0.5848660000000 1.0
C      1  0.3903650000000  0.4789250000000  0.5203910000000 1.0
C      1  0.5252970000000  0.4356300000000  0.5685520000000 1.0
C      1  0.5977240000000  0.5283350000000  0.4819830000000 1.0
C      1  0.4969260000000  0.3966470000000  0.4878790000000 1.0
C      1  0.5461100000000  0.5136590000000  0.5114240000000 1.0
C      1  0.5118540000000  0.5797050000000  0.5326680000000 1.0
C      1  0.3945250000000  0.4844830000000  0.4928430000000 1.0
C      1  0.5286670000000  0.4269130000000  0.5387110000000 1.0
C      1  0.5549740000000  0.4688360000000  0.5332560000000 1.0
C      1  0.5042390000000  0.5149370000000  0.5014910000000 1.0
C      1  0.5700900000000  0.4886010000000  0.4330320000000 1.0
C      1  0.4683500000000  0.4727650000000  0.4636390000000 1.0
C      1  0.4038560000000  0.5179340000000  0.4620110000000 1.0
C      1  0.4492620000000  0.4898970000000  0.5087090000000 1.0
C      1  0.5252560000000  0.5343380000000  0.5106960000000 1.0
C      1  0.4606070000000  0.4153230000000  0.5161410000000 1.0
C      1  0.5246330000000  0.4599090000000  0.4977600000000 1.0
C      1  0.5361790000000  0.5377560000000  0.4382990000000 1.0
C      1  0.4402730000000  0.5776050000000  0.5231190000000 1.0
C      1  0.5162540000000  0.5498730000000  0.5375330000000 1.0
C      1  0.5309320000000  0.5155190000000  0.4186870000000 1.0
C      1  0.5659210000000  0.5593920000000  0.5393650000000 1.0
C      1  0.5953820000000  0.4765700000000  0.4769850000000 1.0
C      1  0.4821100000000  0.4993470000000  0.4098440000000 1.0
C      1  0.4832590000000  0.4704990000000  0.5174320000000 1.0
C      1  0.4734860000000  0.4378550000000  0.5587390000000 1.0
C      1  0.5904670000000  0.4559120000000  0.4964610000000 1.0
C      1  0.5321040000000  0.5181370000000  0.5912780000000 1.0
C      1  0.5445720000000  0.5493530000000  0.5551950000000 1.0
C      1  0.4591850000000  0.4405500000000  0.4288650000000 1.0
C      1  0.5534110000000  0.5615600000000  0.4745360000000 1.0
C      1  0.4492140000000  0.5362570000000  0.4224230000000 1.0
C      1  0.5183260000000  0.5837450000000  0.4957080000000 1.0
C      1  0.5514740000000  0.5288910000000  0.5729560000000 1.0
C      1  0.4531390000000  0.4640990000000  0.5233290000000 1.0
C      1  0.4964760000000  0.4434800000000  0.5744510000000 1.0
C      1  0.5762050000000  0.4814560000000  0.5702180000000 1.0
C      1  0.4712990000000  0.5938370000000  0.4912440000000 1.0
C      1  0.5467530000000  0.4315370000000  0.4454730000000 1.0
C      1  0.5191090000000  0.4928100000000  0.5452200000000 1.0
C      1  0.3981740000000  0.4916670000000  0.5412700000000 1.0
C      1  0.5520670000000  0.4988680000000  0.4891570000000 1.0
C      1  0.4788060000000  0.5149140000000  0.5911320000000 1.0
C      1  0.4970690000000  0.4559250000000  0.4968400000000 1.0
C      1  0.5334730000000  0.5905460000000  0.5182950000000 1.0
C      1  0.5100930000000  0.4035030000000  0.4637670000000 1.0
C      1  0.5152220000000  0.5591920000000  0.4316880000000 1.0
C      1  0.4726550000000  0.5739200000000  0.4385990000000 1.0
C      1  0.5910720000000  0.5481890000000  0.5013100000000 1.0
C      1  0.5849420000000  0.5311240000000  0.4559080000000 1.0
C      1  0.5819580000000  0.4695430000000  0.4519780000000 1.0
C      1  0.5037990000000  0.5187960000000  0.4094970000000 1.0
C      1  0.4083770000000  0.5333520000000  0.5064290000000 1.0
C      1  0.4254600000000  0.5307640000000  0.5314730000000 1.0
C      1  0.5878830000000  0.5427810000000  0.5292270000000 1.0
C      1  0.5922750000000  0.4686290000000  0.5229290000000 1.0
C      1  0.4951980000000  0.4734860000000  0.4113500000000 1.0
C      1  0.5239750000000  0.4693050000000  0.4171550000000 1.0
C      1  0.5565700000000  0.4720210000000  0.5885500000000 1.0
C      1  0.4851360000000  0.5405760000000  0.5398770000000 1.0
C      1  0.4832260000000  0.4476700000000  0.4152580000000 1.0
C      1  0.4974240000000  0.5731840000000  0.4532560000000 1.0
C      1  0.4866900000000  0.4968670000000  0.4596580000000 1.0
C      1  0.4116700000000  0.4940360000000  0.4484860000000 1.0
C      1  0.5713390000000  0.5679050000000  0.4952700000000 1.0
C      1  0.6021230000000  0.5014350000000  0.4910960000000 1.0
C      1  0.5027280000000  0.5483180000000  0.4711230000000 1.0
C      1  0.5265400000000  0.5557530000000  0.4870140000000 1.0
C      1  0.4824960000000  0.5332730000000  0.4890670000000 1.0
C      1  0.4991330000000  0.5566970000000  0.6036310000000 1.0
C      1  0.5041470000000  0.5290420000000  0.5970350000000 1.0
C      1  0.4566800000000  0.5273770000000  0.5774670000000 1.0
C      1  0.4741500000000  0.4863330000000  0.5895110000000 1.0
C      1  0.5354490000000  0.4904440000000  0.5926480000000 1.0
C      1  0.5118320000000  0.5017610000000  0.4737010000000 1.0
C      1  0.4518840000000  0.4928160000000  0.4813200000000 1.0
C      1  0.4978070000000  0.5457080000000  0.4144590000000 1.0
C      1  0.4361310000000  0.4337270000000  0.4815990000000 1.0
C      1  0.4138250000000  0.5442780000000  0.4607500000000 1.0
C      1  0.4542880000000  0.4596610000000  0.5539810000000 1.0
C      1  0.4932130000000  0.4108660000000  0.4421140000000 1.0
C      1  0.5462600000000  0.4967940000000  0.5359350000000 1.0
C      1  0.4960630000000  0.4955150000000  0.5264080000000 1.0
C      1  0.4477690000000  0.5853070000000  0.4778550000000 1.0
C      1  0.4752900000000  0.5767630000000  0.5658700000000 1.0
C      1  0.5746210000000  0.4353940000000  0.4836740000000 1.0
C      1  0.4537780000000  0.4137080000000  0.4706640000000 1.0
C      1  0.5609660000000  0.5465210000000  0.4524290000000 1.0
C      1  0.5704480000000  0.4439200000000  0.4565100000000 1.0
C      1  0.4767480000000  0.5122650000000  0.5402380000000 1.0
C      1  0.4345350000000  0.4884280000000  0.4307920000000 1.0
C      1  0.4770420000000  0.4176710000000  0.5390790000000 1.0
C      1  0.5034330000000  0.4287780000000  0.4228680000000 1.0
C      1  0.5280510000000  0.4420240000000  0.4261780000000 1.0
C      1  0.4610870000000  0.5517420000000  0.5589200000000 1.0
C      1  0.4441070000000  0.4377100000000  0.5093850000000 1.0
END
