TITL C-122780-4689-2 243.779732636406 125000 -733.170469860227 0 0 104 (C1) n - 1
REM
REM in /rds/project/t2_vol4/rds-t2-cs072/BORA/CARBON/from-Arr/AIRSS/Generating-Clusters/GAP-ML-2020/Higher-Symm/SD-CG/HFTN-CG
REM
REM
REM
REM
REM
REM ./C.cell (b20cbc046b6831c77cfcea5457e17084)
REM AIRSS Version 0.9.1 bugfix July 2018 build 013d7b7c2542+ Fri, 06 Jul 2018 19:26:36 +0100
REM compiler GCC version 9.3.0
REM options -cpp -mtune=generic -march=x86-64 -g -O0
REM seed -608514524 799179330 1393865072 793191898 -288369547 999800679 -351549393 1717645864 550017502 -1201732166 -911802280 -1856484322 -818382774 -1453917609 845288498 -1691920668 -838667248 831705065 -90873403 -1962582353 566488709 -1570150207 -2012033470 -589559914 1663869103 -380505244 800628044 -1777175083 896973738 2115364733 -1691665493 -758358431 -1340303753
REM
CELL 1.54180   50.00000   50.00000   50.00000   90.00000   90.00000   90.00000
LATT -1
SFAC C  
C      1  0.4951080000000  0.5777640000000  0.4726500000000 1.0
C      1  0.4739570000000  0.4357100000000  0.4937280000000 1.0
C      1  0.4820740000000  0.5658800000000  0.5211790000000 1.0
C      1  0.5083520000000  0.4353810000000  0.5248580000000 1.0
C      1  0.5275820000000  0.5648820000000  0.5081640000000 1.0
C      1  0.5205080000000  0.4254940000000  0.4796130000000 1.0
C      1  0.4703930000000  0.4464000000000  0.4414540000000 1.0
C      1  0.4365930000000  0.5545010000000  0.5014990000000 1.0
C      1  0.4651510000000  0.4494020000000  0.5549080000000 1.0
C      1  0.5308400000000  0.5514640000000  0.5587590000000 1.0
C      1  0.5566410000000  0.4560570000000  0.5040470000000 1.0
C      1  0.5315650000000  0.5448650000000  0.4541930000000 1.0
C      1  0.4638400000000  0.5812710000000  0.5636870000000 1.0
C      1  0.5320690000000  0.4205960000000  0.5644370000000 1.0
C      1  0.5729490000000  0.5805600000000  0.5048610000000 1.0
C      1  0.5415310000000  0.4201560000000  0.4398760000000 1.0
C      1  0.4665320000000  0.5758910000000  0.4362210000000 1.0
C      1  0.4291950000000  0.4191570000000  0.4974020000000 1.0
C      1  0.5591370000000  0.4721940000000  0.5512380000000 1.0
C      1  0.5734190000000  0.5279770000000  0.4753500000000 1.0
C      1  0.5132800000000  0.4675800000000  0.4215780000000 1.0
C      1  0.4463120000000  0.5221860000000  0.4446960000000 1.0
C      1  0.4294610000000  0.4721460000000  0.5259990000000 1.0
C      1  0.4868750000000  0.5288350000000  0.5762990000000 1.0
C      1  0.5312950000000  0.4830370000000  0.5042470000000 1.0
C      1  0.5171510000000  0.5242320000000  0.4780420000000 1.0
C      1  0.4913690000000  0.4923120000000  0.4606110000000 1.0
C      1  0.4587400000000  0.5093370000000  0.4896850000000 1.0
C      1  0.4770290000000  0.4877770000000  0.5255770000000 1.0
C      1  0.5187750000000  0.5016860000000  0.5446460000000 1.0
C      1  0.5013000000000  0.4814920000000  0.5387120000000 1.0
C      1  0.5316500000000  0.5088420000000  0.5207760000000 1.0
C      1  0.5286990000000  0.4959330000000  0.4793870000000 1.0
C      1  0.4915450000000  0.5211660000000  0.4636720000000 1.0
C      1  0.4726410000000  0.4843790000000  0.4798240000000 1.0
C      1  0.4733370000000  0.5135690000000  0.5152010000000 1.0
C      1  0.5564620000000  0.5502950000000  0.4693110000000 1.0
C      1  0.4985260000000  0.4450620000000  0.4348740000000 1.0
C      1  0.4510340000000  0.5561410000000  0.4769980000000 1.0
C      1  0.4454370000000  0.4486860000000  0.5341940000000 1.0
C      1  0.5027620000000  0.5514530000000  0.5650640000000 1.0
C      1  0.5549690000000  0.4506700000000  0.5329460000000 1.0
C      1  0.5087070000000  0.5171770000000  0.4163800000000 1.0
C      1  0.4327360000000  0.4777040000000  0.4507130000000 1.0
C      1  0.4257880000000  0.5211180000000  0.5361270000000 1.0
C      1  0.4929440000000  0.4800180000000  0.5847650000000 1.0
C      1  0.5695070000000  0.5210200000000  0.5489260000000 1.0
C      1  0.5764040000000  0.4798040000000  0.4655460000000 1.0
C      1  0.4690440000000  0.4897010000000  0.4170850000000 1.0
C      1  0.4270720000000  0.5065410000000  0.4892980000000 1.0
C      1  0.4499530000000  0.4945520000000  0.5668910000000 1.0
C      1  0.5304970000000  0.5060790000000  0.5732960000000 1.0
C      1  0.5832310000000  0.4948570000000  0.5123630000000 1.0
C      1  0.5507660000000  0.5044720000000  0.4355040000000 1.0
C      1  0.5401510000000  0.5657240000000  0.5356710000000 1.0
C      1  0.5472830000000  0.4356820000000  0.4841640000000 1.0
C      1  0.5092050000000  0.5645680000000  0.4508790000000 1.0
C      1  0.4606450000000  0.4344020000000  0.4658920000000 1.0
C      1  0.4515440000000  0.5674930000000  0.5213690000000 1.0
C      1  0.4898840000000  0.4363050000000  0.5502830000000 1.0
C      1  0.5024710000000  0.5068440000000  0.5846600000000 1.0
C      1  0.5741730000000  0.4937980000000  0.5404510000000 1.0
C      1  0.5714300000000  0.5064040000000  0.4562730000000 1.0
C      1  0.4983300000000  0.4895920000000  0.4125850000000 1.0
C      1  0.4281280000000  0.5047990000000  0.4571380000000 1.0
C      1  0.4303040000000  0.4939930000000  0.5446100000000 1.0
C      1  0.5181480000000  0.5324630000000  0.5070020000000 1.0
C      1  0.5171870000000  0.4792100000000  0.4609450000000 1.0
C      1  0.4626370000000  0.5305030000000  0.4683090000000 1.0
C      1  0.4804050000000  0.4669520000000  0.5012220000000 1.0
C      1  0.4906240000000  0.5351580000000  0.5190870000000 1.0
C      1  0.5085140000000  0.4652630000000  0.5148690000000 1.0
C      1  0.5349650000000  0.4312630000000  0.5395710000000 1.0
C      1  0.5524520000000  0.5692110000000  0.4904970000000 1.0
C      1  0.5166680000000  0.4273660000000  0.4499410000000 1.0
C      1  0.4663790000000  0.5769340000000  0.4641820000000 1.0
C      1  0.4495920000000  0.4295360000000  0.5124710000000 1.0
C      1  0.4866490000000  0.5717090000000  0.5516070000000 1.0
C      1  0.4594220000000  0.5220630000000  0.5695510000000 1.0
C      1  0.5392740000000  0.4783850000000  0.5718210000000 1.0
C      1  0.5815090000000  0.5219170000000  0.5029020000000 1.0
C      1  0.5384480000000  0.4768320000000  0.4365300000000 1.0
C      1  0.4622720000000  0.5168450000000  0.4220670000000 1.0
C      1  0.4230420000000  0.4783770000000  0.4984090000000 1.0
C      1  0.4858520000000  0.5337180000000  0.4183340000000 1.0
C      1  0.4255180000000  0.4626200000000  0.4741360000000 1.0
C      1  0.4404310000000  0.5378420000000  0.5547320000000 1.0
C      1  0.5159080000000  0.4635180000000  0.5805360000000 1.0
C      1  0.5773400000000  0.5373650000000  0.5270710000000 1.0
C      1  0.5614830000000  0.4626310000000  0.4488190000000 1.0
C      1  0.4231150000000  0.5291820000000  0.5084070000000 1.0
C      1  0.4667970000000  0.4726910000000  0.5736010000000 1.0
C      1  0.5474670000000  0.5286960000000  0.5662050000000 1.0
C      1  0.5784530000000  0.4741690000000  0.4938470000000 1.0
C      1  0.5326890000000  0.5248980000000  0.4306970000000 1.0
C      1  0.4550820000000  0.4695050000000  0.4328110000000 1.0
C      1  0.5109320000000  0.4374960000000  0.5704360000000 1.0
C      1  0.5683450000000  0.5642580000000  0.5273150000000 1.0
C      1  0.5580390000000  0.4358810000000  0.4568860000000 1.0
C      1  0.4885540000000  0.5595740000000  0.4301340000000 1.0
C      1  0.4329190000000  0.4349950000000  0.4738250000000 1.0
C      1  0.4447670000000  0.5657850000000  0.5493770000000 1.0
C      1  0.5006000000000  0.4230850000000  0.4992310000000 1.0
C      1  0.5014850000000  0.5770380000000  0.5002940000000 1.0
END
