TITL C-123185-7994-2 0.0175653286801113 125000 -201.693445788989 0 0 30 (D3h) n - 1
REM
REM in /rds/project/t2_vol4/rds-t2-cs072/BORA/CARBON/from-Arr/AIRSS/Generating-Clusters/GAP-ML-2020/Higher-Symm/SD-CG/HFTN-CG
REM
REM
REM
REM
REM
REM ./C.cell (b20cbc046b6831c77cfcea5457e17084)
REM AIRSS Version 0.9.1 bugfix July 2018 build 013d7b7c2542+ Fri, 06 Jul 2018 19:26:36 +0100
REM compiler GCC version 9.3.0
REM options -cpp -mtune=generic -march=x86-64 -g -O0
REM seed 1229173560 1631932496 1126237561 -562929815 1495952848 -679759525 656431392 -2072798191 -603570397 -1493210491 1047623340 1239138577 -1723237090 608260235 1917138140 -2012805615 2069382109 1000219455 -2114779765 1776563450 -191047428 -1688472636 1364529731 -279830870 -2139945851 332004918 735417759 1957986706 1993436338 -1550025595 416131426 -514186884 -1763909251
REM
CELL 1.54180   50.00000   50.00000   50.00000   90.00000   90.00000   90.00000
LATT -1
SFAC C  
C      1  0.5289850000000  0.5328590000000  0.5176980000000 1.0
C      1  0.5294640000000  0.4995970000000  0.4630580000000 1.0
C      1  0.5299770000000  0.4689140000000  0.5191860000000 1.0
C      1  0.4700350000000  0.5319450000000  0.5177370000000 1.0
C      1  0.4705140000000  0.4986840000000  0.4630970000000 1.0
C      1  0.4710260000000  0.4680010000000  0.5192250000000 1.0
C      1  0.4749210000000  0.5467050000000  0.4713490000000 1.0
C      1  0.4764010000000  0.4512580000000  0.4735700000000 1.0
C      1  0.4756860000000  0.5009060000000  0.5551290000000 1.0
C      1  0.5235820000000  0.5474590000000  0.4713170000000 1.0
C      1  0.5250620000000  0.4520120000000  0.4735380000000 1.0
C      1  0.5243470000000  0.5016600000000  0.5550970000000 1.0
C      1  0.5146820000000  0.5240300000000  0.5412810000000 1.0
C      1  0.5146260000000  0.5240890000000  0.4587340000000 1.0
C      1  0.5157620000000  0.4525800000000  0.4999550000000 1.0
C      1  0.4846350000000  0.5235640000000  0.5413010000000 1.0
C      1  0.4845800000000  0.5236230000000  0.4587540000000 1.0
C      1  0.4857150000000  0.4521140000000  0.4999750000000 1.0
C      1  0.4842380000000  0.5473670000000  0.4977590000000 1.0
C      1  0.4853490000000  0.4740180000000  0.4599080000000 1.0
C      1  0.4853430000000  0.4779170000000  0.5423630000000 1.0
C      1  0.5142840000000  0.5478330000000  0.4977390000000 1.0
C      1  0.5153960000000  0.4744830000000  0.4598880000000 1.0
C      1  0.5153900000000  0.4783830000000  0.5423430000000 1.0
C      1  0.4503230000000  0.5134550000000  0.5078090000000 1.0
C      1  0.4505330000000  0.4988560000000  0.4838270000000 1.0
C      1  0.4507580000000  0.4853900000000  0.5084620000000 1.0
C      1  0.5492460000000  0.5149880000000  0.5077430000000 1.0
C      1  0.5494570000000  0.5003890000000  0.4837620000000 1.0
C      1  0.5496820000000  0.4869220000000  0.5083960000000 1.0
END
