TITL C-126552-4181-6 -0.163138747452364 125000 -301.91768835845 0 0 46 (C3) n - 1
REM
REM in /rds/project/t2_vol4/rds-t2-cs072/BORA/CARBON/from-Arr/AIRSS/Generating-Clusters/GAP-ML-2020/Higher-Symm/SD-CG/HFTN-CG
REM
REM
REM
REM
REM
REM ./C.cell (b20cbc046b6831c77cfcea5457e17084)
REM AIRSS Version 0.9.1 bugfix July 2018 build 013d7b7c2542+ Fri, 06 Jul 2018 19:26:36 +0100
REM compiler GCC version 9.3.0
REM options -cpp -mtune=generic -march=x86-64 -g -O0
REM seed 1973706995 387037669 -791146048 1768978462 1755201941 819178140 1823485606 -424630262 -1959293062 -483960298 1198898550 18197014 2014589942 240361867 426296107 -1997693297 914580508 -1729898062 358234951 -1649276444 1130144901 -1482645332 -1862361718 927413962 -888084829 7231041 645429066 -842884709 1457259430 -18140396 -1195127545 -19930660 1526260403
REM
CELL 1.54180   50.00000   50.00000   50.00000   90.00000   90.00000   90.00000
LATT -1
SFAC C  
C      1  0.4537410000000  0.5320960000000  0.4617240000000 1.0
C      1  0.4537530000000  0.4522040000000  0.4923870000000 1.0
C      1  0.4537440000000  0.5187050000000  0.5462440000000 1.0
C      1  0.4850850000000  0.5406220000000  0.5539100000000 1.0
C      1  0.4850840000000  0.5277840000000  0.4389120000000 1.0
C      1  0.4850990000000  0.4346120000000  0.5075290000000 1.0
C      1  0.5048280000000  0.5061250000000  0.5308610000000 1.0
C      1  0.5048240000000  0.5250760000000  0.4803140000000 1.0
C      1  0.5048320000000  0.4718250000000  0.4891750000000 1.0
C      1  0.5374490000000  0.5476480000000  0.5310980000000 1.0
C      1  0.5374530000000  0.5045280000000  0.4442390000000 1.0
C      1  0.5374620000000  0.4508650000000  0.5250110000000 1.0
C      1  0.4588470000000  0.5387880000000  0.5622290000000 1.0
C      1  0.4588450000000  0.5358990000000  0.4363390000000 1.0
C      1  0.4588620000000  0.4283200000000  0.5017860000000 1.0
C      1  0.4560690000000  0.4779160000000  0.4852300000000 1.0
C      1  0.4560670000000  0.4996520000000  0.5275550000000 1.0
C      1  0.4560630000000  0.5254380000000  0.4875690000000 1.0
C      1  0.5437070000000  0.5253830000000  0.5144800000000 1.0
C      1  0.5437090000000  0.5012690000000  0.4718300000000 1.0
C      1  0.5437140000000  0.4763910000000  0.5140380000000 1.0
C      1  0.5333010000000  0.5008150000000  0.5227740000000 1.0
C      1  0.5332970000000  0.5207340000000  0.4889590000000 1.0
C      1  0.5333030000000  0.4814900000000  0.4886160000000 1.0
C      1  0.4952540000000  0.4635590000000  0.5173930000000 1.0
C      1  0.4952430000000  0.5346930000000  0.5239110000000 1.0
C      1  0.4952460000000  0.5047710000000  0.4590480000000 1.0
C      1  0.4822630000000  0.4847110000000  0.4763210000000 1.0
C      1  0.4822630000000  0.4885450000000  0.5261270000000 1.0
C      1  0.4822570000000  0.5297610000000  0.4979040000000 1.0
C      1  0.5092590000000  0.4285310000000  0.4904900000000 1.0
C      1  0.5092460000000  0.5289120000000  0.5676980000000 1.0
C      1  0.5092410000000  0.5455860000000  0.4421620000000 1.0
C      1  0.5151310000000  0.4584100000000  0.5414830000000 1.0
C      1  0.5151160000000  0.5581350000000  0.5163270000000 1.0
C      1  0.5151250000000  0.4864860000000  0.4425400000000 1.0
C      1  0.5094520000000  0.5517580000000  0.4702980000000 1.0
C      1  0.5094670000000  0.4498110000000  0.4710760000000 1.0
C      1  0.5094610000000  0.5014590000000  0.5589760000000 1.0
C      1  0.5300130000000  0.5421910000000  0.5563580000000 1.0
C      1  0.5300120000000  0.5291300000000  0.4363340000000 1.0
C      1  0.5300280000000  0.4317160000000  0.5076570000000 1.0
C      1  0.5143220000000  0.5694600000000  0.4912580000000 1.0
C      1  0.5143370000000  0.4591130000000  0.4452660000000 1.0
C      1  0.5143380000000  0.4744570000000  0.5638260000000 1.0
C      1  0.4458150000000  0.5010000000000  0.5001180000000 1.0
END
