TITL C-127509-231-6 -0.270109065679616 125000 -573.222471343965 0 0 81 (Cs) n - 1
REM
REM in /rds/project/t2_vol4/rds-t2-cs072/BORA/CARBON/from-Arr/AIRSS/Generating-Clusters/GAP-ML-2020/Higher-Symm/SD-CG/HFTN-CG
REM
REM
REM
REM
REM
REM ./C.cell (b20cbc046b6831c77cfcea5457e17084)
REM AIRSS Version 0.9.1 bugfix July 2018 build 013d7b7c2542+ Fri, 06 Jul 2018 19:26:36 +0100
REM compiler GCC version 9.3.0
REM options -cpp -mtune=generic -march=x86-64 -g -O0
REM seed -302942346 -1548979528 -1837590911 -1147523087 -1225112767 -791364493 -642732460 1829091148 1936866340 1759682558 1378041278 1262901213 -1393148701 369497408 -1818672525 1126652722 -1036000651 1486039006 -1995717663 -1409572396 97273141 1970240098 -343389047 173137543 -470730067 -1450915913 -1556697056 2070107766 548086938 -1684433961 1077154871 84599817 -503199415
REM
CELL 1.54180   50.00000   50.00000   50.00000   90.00000   90.00000   90.00000
LATT -1
SFAC C  
C      1  0.4792120000000  0.4709290000000  0.5927810000000 1.0
C      1  0.5075080000000  0.4672090000000  0.5920040000000 1.0
C      1  0.5305690000000  0.4838620000000  0.5918070000000 1.0
C      1  0.5359450000000  0.5118960000000  0.5922970000000 1.0
C      1  0.5190630000000  0.5348480000000  0.5915350000000 1.0
C      1  0.4909350000000  0.5385530000000  0.5911640000000 1.0
C      1  0.4680530000000  0.5220310000000  0.5913590000000 1.0
C      1  0.4627270000000  0.4941680000000  0.5920160000000 1.0
C      1  0.5226590000000  0.4695240000000  0.5075550000000 1.0
C      1  0.5347070000000  0.4931900000000  0.5020110000000 1.0
C      1  0.5184380000000  0.5138900000000  0.4945600000000 1.0
C      1  0.5049300000000  0.5166020000000  0.5191190000000 1.0
C      1  0.4836790000000  0.5012570000000  0.5193000000000 1.0
C      1  0.4999730000000  0.5005650000000  0.4757530000000 1.0
C      1  0.4817290000000  0.4873830000000  0.4948730000000 1.0
C      1  0.4963450000000  0.4654890000000  0.5023380000000 1.0
C      1  0.4674440000000  0.4497660000000  0.5409090000000 1.0
C      1  0.5133060000000  0.4424070000000  0.5420040000000 1.0
C      1  0.5517270000000  0.4701500000000  0.5416760000000 1.0
C      1  0.5591530000000  0.5159880000000  0.5401260000000 1.0
C      1  0.5316800000000  0.5528670000000  0.5384950000000 1.0
C      1  0.4862200000000  0.5596000000000  0.5382500000000 1.0
C      1  0.4489650000000  0.5326980000000  0.5385670000000 1.0
C      1  0.4410620000000  0.4874320000000  0.5392680000000 1.0
C      1  0.4351480000000  0.5115560000000  0.5248770000000 1.0
C      1  0.4457480000000  0.4622830000000  0.5261580000000 1.0
C      1  0.4889300000000  0.4359540000000  0.5276220000000 1.0
C      1  0.5369110000000  0.4500110000000  0.5264860000000 1.0
C      1  0.5653560000000  0.4911410000000  0.5269700000000 1.0
C      1  0.5539300000000  0.5404000000000  0.5252350000000 1.0
C      1  0.5104800000000  0.5659520000000  0.5242350000000 1.0
C      1  0.4615800000000  0.5543110000000  0.5245470000000 1.0
C      1  0.5358980000000  0.5588090000000  0.4830590000000 1.0
C      1  0.4850160000000  0.5648560000000  0.4822650000000 1.0
C      1  0.4437270000000  0.5350410000000  0.4826170000000 1.0
C      1  0.4334730000000  0.4848480000000  0.4839330000000 1.0
C      1  0.4623160000000  0.4414700000000  0.4847590000000 1.0
C      1  0.5166170000000  0.4317740000000  0.4841780000000 1.0
C      1  0.5601300000000  0.4631940000000  0.4838060000000 1.0
C      1  0.5680100000000  0.5177910000000  0.4838580000000 1.0
C      1  0.5152740000000  0.4356650000000  0.4566240000000 1.0
C      1  0.5565490000000  0.4654700000000  0.4562720000000 1.0
C      1  0.5636770000000  0.5160630000000  0.4563680000000 1.0
C      1  0.5338450000000  0.5564800000000  0.4550310000000 1.0
C      1  0.4843320000000  0.5640630000000  0.4538100000000 1.0
C      1  0.4443750000000  0.5352110000000  0.4541510000000 1.0
C      1  0.4360150000000  0.4858380000000  0.4558660000000 1.0
C      1  0.4650110000000  0.4448170000000  0.4572090000000 1.0
C      1  0.4770070000000  0.5317100000000  0.4198280000000 1.0
C      1  0.4877560000000  0.5173030000000  0.4603880000000 1.0
C      1  0.4688360000000  0.4779270000000  0.4230610000000 1.0
C      1  0.4936150000000  0.4626580000000  0.4241940000000 1.0
C      1  0.5220300000000  0.4694110000000  0.4242360000000 1.0
C      1  0.5373770000000  0.4942580000000  0.4238210000000 1.0
C      1  0.5306630000000  0.5225720000000  0.4225330000000 1.0
C      1  0.5058110000000  0.5379800000000  0.4211510000000 1.0
C      1  0.4602400000000  0.4924320000000  0.5606410000000 1.0
C      1  0.4779810000000  0.4677660000000  0.5613280000000 1.0
C      1  0.5082600000000  0.4635700000000  0.5613320000000 1.0
C      1  0.5334430000000  0.4817540000000  0.5611170000000 1.0
C      1  0.5389830000000  0.5118150000000  0.5608070000000 1.0
C      1  0.5211420000000  0.5364090000000  0.5601220000000 1.0
C      1  0.4909050000000  0.5403730000000  0.5593350000000 1.0
C      1  0.4659780000000  0.5223730000000  0.5595470000000 1.0
C      1  0.4894200000000  0.4366090000000  0.4986750000000 1.0
C      1  0.5395300000000  0.4460420000000  0.4975520000000 1.0
C      1  0.5642570000000  0.4906470000000  0.4980360000000 1.0
C      1  0.5562630000000  0.5413030000000  0.4971510000000 1.0
C      1  0.5108640000000  0.5669840000000  0.4959450000000 1.0
C      1  0.4615250000000  0.5540510000000  0.4960220000000 1.0
C      1  0.4337300000000  0.5112870000000  0.4966040000000 1.0
C      1  0.4438420000000  0.4601250000000  0.4981100000000 1.0
C      1  0.4415530000000  0.5099300000000  0.4415540000000 1.0
C      1  0.4518090000000  0.4658910000000  0.4430030000000 1.0
C      1  0.4902710000000  0.4420270000000  0.4441220000000 1.0
C      1  0.5350050000000  0.4516650000000  0.4429710000000 1.0
C      1  0.5582340000000  0.4911030000000  0.4435420000000 1.0
C      1  0.5476670000000  0.5351080000000  0.4421850000000 1.0
C      1  0.5090750000000  0.5586860000000  0.4409780000000 1.0
C      1  0.4642210000000  0.5496490000000  0.4394630000000 1.0
C      1  0.4620120000000  0.5063520000000  0.4215250000000 1.0
END
