TITL C-122785-4640-2 124.672879066984 125000 -400.723053058688 0 0 59 (C1) n - 1
REM
REM in /rds/project/t2_vol4/rds-t2-cs072/BORA/CARBON/from-Arr/AIRSS/Generating-Clusters/GAP-ML-2020/Higher-Symm/SD-CG/HFTN-CG
REM
REM
REM
REM
REM
REM ./C.cell (b20cbc046b6831c77cfcea5457e17084)
REM AIRSS Version 0.9.1 bugfix July 2018 build 013d7b7c2542+ Fri, 06 Jul 2018 19:26:36 +0100
REM compiler GCC version 9.3.0
REM options -cpp -mtune=generic -march=x86-64 -g -O0
REM seed 985432155 -579956505 -1151005539 -1023929539 1155373790 -1714698192 1723647175 1885223125 757929316 914726461 1160014935 1547331925 -395345979 -1945064883 -1224419308 1898568950 -320035705 1363826733 421371977 -1198310901 132190484 -1450162734 -738236453 -960105515 -1799204723 498519369 -882684115 1708390199 -1526841970 2027052580 1322722096 -706877049 -344460199
REM
CELL 1.54180   50.00000   50.00000   50.00000   90.00000   90.00000   90.00000
LATT -1
SFAC C  
C      1  0.5635560000000  0.4874560000000  0.5188340000000 1.0
C      1  0.4370650000000  0.4875270000000  0.4828480000000 1.0
C      1  0.4344030000000  0.4886070000000  0.5133120000000 1.0
C      1  0.5680300000000  0.4837170000000  0.4900030000000 1.0
C      1  0.4722190000000  0.5500250000000  0.4642160000000 1.0
C      1  0.5280220000000  0.5498400000000  0.5347050000000 1.0
C      1  0.5314080000000  0.5489470000000  0.4625900000000 1.0
C      1  0.4685930000000  0.5515980000000  0.5325240000000 1.0
C      1  0.4597080000000  0.5273630000000  0.4752060000000 1.0
C      1  0.5414180000000  0.5265120000000  0.5259900000000 1.0
C      1  0.5485090000000  0.5256830000000  0.4685010000000 1.0
C      1  0.4529730000000  0.5290390000000  0.5251760000000 1.0
C      1  0.5184740000000  0.4340760000000  0.4715610000000 1.0
C      1  0.4835390000000  0.4345530000000  0.5282650000000 1.0
C      1  0.4895730000000  0.4341160000000  0.4713030000000 1.0
C      1  0.5117840000000  0.4340350000000  0.5298220000000 1.0
C      1  0.4632030000000  0.4820390000000  0.4706070000000 1.0
C      1  0.5371200000000  0.4819270000000  0.5318950000000 1.0
C      1  0.5474670000000  0.4765640000000  0.4730560000000 1.0
C      1  0.4567330000000  0.4822300000000  0.5313830000000 1.0
C      1  0.4709790000000  0.4573310000000  0.5390630000000 1.0
C      1  0.5318390000000  0.4563450000000  0.4600130000000 1.0
C      1  0.5236640000000  0.4567070000000  0.5411510000000 1.0
C      1  0.4764830000000  0.4568190000000  0.4616400000000 1.0
C      1  0.4766340000000  0.4156930000000  0.4877200000000 1.0
C      1  0.5261180000000  0.4134520000000  0.5156630000000 1.0
C      1  0.5288530000000  0.4172470000000  0.4911290000000 1.0
C      1  0.4715560000000  0.4132360000000  0.5121020000000 1.0
C      1  0.4874490000000  0.5648400000000  0.4834750000000 1.0
C      1  0.5145020000000  0.5633290000000  0.5132490000000 1.0
C      1  0.5163510000000  0.5634720000000  0.4836810000000 1.0
C      1  0.4857140000000  0.5645740000000  0.5126520000000 1.0
C      1  0.4827730000000  0.4698430000000  0.5624900000000 1.0
C      1  0.5169840000000  0.4703100000000  0.4388650000000 1.0
C      1  0.5108880000000  0.4696880000000  0.5635740000000 1.0
C      1  0.4888140000000  0.4691370000000  0.4385990000000 1.0
C      1  0.4275100000000  0.5181990000000  0.5175970000000 1.0
C      1  0.5723380000000  0.5175160000000  0.4812690000000 1.0
C      1  0.5674880000000  0.5167230000000  0.5218540000000 1.0
C      1  0.4332030000000  0.5168500000000  0.4771120000000 1.0
C      1  0.4820990000000  0.5169460000000  0.5668270000000 1.0
C      1  0.5130860000000  0.5180090000000  0.4267710000000 1.0
C      1  0.5110710000000  0.5166630000000  0.5678470000000 1.0
C      1  0.4843760000000  0.5163610000000  0.4302980000000 1.0
C      1  0.4691870000000  0.5054050000000  0.5176570000000 1.0
C      1  0.5307450000000  0.5020420000000  0.4689250000000 1.0
C      1  0.5228700000000  0.5040620000000  0.5173370000000 1.0
C      1  0.4785230000000  0.5048370000000  0.4885070000000 1.0
C      1  0.4830850000000  0.5441840000000  0.5555260000000 1.0
C      1  0.5148500000000  0.5443430000000  0.4399500000000 1.0
C      1  0.5114570000000  0.5438850000000  0.5566500000000 1.0
C      1  0.4863760000000  0.5441340000000  0.4409790000000 1.0
C      1  0.5258960000000  0.4944900000000  0.5607700000000 1.0
C      1  0.4724160000000  0.4936320000000  0.4406630000000 1.0
C      1  0.4676270000000  0.4943230000000  0.5598910000000 1.0
C      1  0.5248160000000  0.4972230000000  0.4400680000000 1.0
C      1  0.4149090000000  0.5272260000000  0.4949330000000 1.0
C      1  0.5847090000000  0.5281860000000  0.5030270000000 1.0
C      1  0.5077810000000  0.5026250000000  0.4917270000000 1.0
END
