TITL C-125363-38-2 -0.011021627159099 125000 -583.096369445813 0 0 86 (C1) n - 1
REM
REM in /rds/project/t2_vol4/rds-t2-cs072/BORA/CARBON/from-Arr/AIRSS/Generating-Clusters/GAP-ML-2020/Higher-Symm/SD-CG/HFTN-CG
REM
REM
REM
REM
REM
REM ./C.cell (b20cbc046b6831c77cfcea5457e17084)
REM AIRSS Version 0.9.1 bugfix July 2018 build 013d7b7c2542+ Fri, 06 Jul 2018 19:26:36 +0100
REM compiler GCC version 9.3.0
REM options -cpp -mtune=generic -march=x86-64 -g -O0
REM seed 1109937365 -521245162 -1800615566 1461974533 664625937 -2083726856 1829010945 366434353 1301302909 520165657 -760214365 -1165340956 768946347 -245175306 1190889421 -2011357678 813715482 -1633087563 1808569695 1115777676 1584146481 -2136084599 -65232897 -569027677 -254478743 -35610798 1452141051 -713464126 293209163 -1225899708 -2017414429 1898091917 277169878
REM
CELL 1.54180   50.00000   50.00000   50.00000   90.00000   90.00000   90.00000
LATT -1
SFAC C  
C      1  0.5623940000000  0.4745470000000  0.4592920000000 1.0
C      1  0.5369850000000  0.5645090000000  0.4576000000000 1.0
C      1  0.4624510000000  0.5540590000000  0.4536610000000 1.0
C      1  0.4346160000000  0.4719180000000  0.4573490000000 1.0
C      1  0.5040070000000  0.4314100000000  0.4536710000000 1.0
C      1  0.5192840000000  0.4853590000000  0.5359500000000 1.0
C      1  0.5319440000000  0.5136890000000  0.5325100000000 1.0
C      1  0.5050420000000  0.5302030000000  0.5369520000000 1.0
C      1  0.4692380000000  0.4998070000000  0.5314380000000 1.0
C      1  0.4632510000000  0.4695280000000  0.5303430000000 1.0
C      1  0.4676660000000  0.5048180000000  0.4575250000000 1.0
C      1  0.4833690000000  0.4794090000000  0.4603170000000 1.0
C      1  0.5099610000000  0.4872500000000  0.4706540000000 1.0
C      1  0.5266760000000  0.5101920000000  0.4586810000000 1.0
C      1  0.5085680000000  0.5334880000000  0.4597080000000 1.0
C      1  0.5814270000000  0.4834070000000  0.5263650000000 1.0
C      1  0.5546820000000  0.5559310000000  0.5252450000000 1.0
C      1  0.4518800000000  0.5793380000000  0.5170140000000 1.0
C      1  0.4331570000000  0.4682380000000  0.5269380000000 1.0
C      1  0.5004670000000  0.4119440000000  0.5210000000000 1.0
C      1  0.5407860000000  0.4993340000000  0.5768000000000 1.0
C      1  0.5155570000000  0.5378630000000  0.5792580000000 1.0
C      1  0.4597510000000  0.5364720000000  0.5623000000000 1.0
C      1  0.4639240000000  0.4801750000000  0.5762190000000 1.0
C      1  0.5063560000000  0.4625760000000  0.5728440000000 1.0
C      1  0.4988240000000  0.5489120000000  0.5587150000000 1.0
C      1  0.4506070000000  0.5142330000000  0.5518990000000 1.0
C      1  0.4672530000000  0.4584240000000  0.5579410000000 1.0
C      1  0.5299170000000  0.4685550000000  0.5586900000000 1.0
C      1  0.5491750000000  0.5182900000000  0.5571100000000 1.0
C      1  0.5258640000000  0.5083000000000  0.4075380000000 1.0
C      1  0.5051650000000  0.5269270000000  0.4028770000000 1.0
C      1  0.4586090000000  0.5222720000000  0.4136550000000 1.0
C      1  0.4875050000000  0.4838700000000  0.4065630000000 1.0
C      1  0.5154530000000  0.4820170000000  0.4042090000000 1.0
C      1  0.5738730000000  0.4811490000000  0.5002310000000 1.0
C      1  0.5486530000000  0.5610140000000  0.4998890000000 1.0
C      1  0.4539330000000  0.5653340000000  0.4938950000000 1.0
C      1  0.4283150000000  0.4711220000000  0.4993390000000 1.0
C      1  0.5028210000000  0.4192360000000  0.4952270000000 1.0
C      1  0.5026930000000  0.4479490000000  0.4317440000000 1.0
C      1  0.5483740000000  0.4768820000000  0.4354510000000 1.0
C      1  0.5180210000000  0.5548480000000  0.4402170000000 1.0
C      1  0.4718540000000  0.5447970000000  0.4284020000000 1.0
C      1  0.4472270000000  0.4751890000000  0.4325950000000 1.0
C      1  0.4770270000000  0.5663040000000  0.4752190000000 1.0
C      1  0.4299900000000  0.4923500000000  0.4799970000000 1.0
C      1  0.4840480000000  0.4288930000000  0.4742350000000 1.0
C      1  0.5545360000000  0.4637040000000  0.4850320000000 1.0
C      1  0.5543440000000  0.5472830000000  0.4742700000000 1.0
C      1  0.5391210000000  0.5044440000000  0.4323510000000 1.0
C      1  0.5005730000000  0.5510410000000  0.4178950000000 1.0
C      1  0.4485590000000  0.5033620000000  0.4325140000000 1.0
C      1  0.4790080000000  0.4683240000000  0.4300330000000 1.0
C      1  0.5259800000000  0.4626570000000  0.4220230000000 1.0
C      1  0.5735840000000  0.4792600000000  0.5499520000000 1.0
C      1  0.5539220000000  0.5571370000000  0.5508810000000 1.0
C      1  0.4622440000000  0.5792280000000  0.5404460000000 1.0
C      1  0.4227100000000  0.4772810000000  0.5505930000000 1.0
C      1  0.4962570000000  0.4218830000000  0.5447170000000 1.0
C      1  0.5079580000000  0.4726860000000  0.5110260000000 1.0
C      1  0.5303530000000  0.5144520000000  0.5035670000000 1.0
C      1  0.4909920000000  0.5367060000000  0.5109340000000 1.0
C      1  0.4757890000000  0.5127300000000  0.5048530000000 1.0
C      1  0.4815310000000  0.4607550000000  0.5095450000000 1.0
C      1  0.5247350000000  0.4623620000000  0.4867620000000 1.0
C      1  0.5490790000000  0.5179210000000  0.4779680000000 1.0
C      1  0.5010550000000  0.5516500000000  0.4855590000000 1.0
C      1  0.4526790000000  0.5143500000000  0.4818450000000 1.0
C      1  0.4731860000000  0.4558310000000  0.4812540000000 1.0
C      1  0.4453420000000  0.5437690000000  0.4756190000000 1.0
C      1  0.4426270000000  0.4554610000000  0.4789930000000 1.0
C      1  0.5210930000000  0.4341240000000  0.4778890000000 1.0
C      1  0.5706730000000  0.4974340000000  0.4759450000000 1.0
C      1  0.5252260000000  0.5691850000000  0.4852460000000 1.0
C      1  0.4722950000000  0.5604120000000  0.5582630000000 1.0
C      1  0.4401960000000  0.4926260000000  0.5668910000000 1.0
C      1  0.4897130000000  0.4413970000000  0.5629430000000 1.0
C      1  0.5545530000000  0.4754570000000  0.5693890000000 1.0
C      1  0.5427020000000  0.5428690000000  0.5704550000000 1.0
C      1  0.4804880000000  0.5105880000000  0.4001290000000 1.0
C      1  0.5040690000000  0.4997810000000  0.4971050000000 1.0
C      1  0.5142070000000  0.5086920000000  0.5839120000000 1.0
C      1  0.4846520000000  0.5248840000000  0.4474370000000 1.0
C      1  0.4952200000000  0.5014130000000  0.5454990000000 1.0
C      1  0.4923240000000  0.4902160000000  0.5745260000000 1.0
END
