TITL C-121831-5080-10 -39.0564043069721 125000 -382.241933621665 0 0 56 (C3) n - 1
REM
REM in /rds/project/t2_vol4/rds-t2-cs072/BORA/CARBON/from-Arr/AIRSS/Generating-Clusters/GAP-ML-2020/Higher-Symm/SD-CG/HFTN-CG
REM
REM
REM
REM
REM
REM ./C.cell (b20cbc046b6831c77cfcea5457e17084)
REM AIRSS Version 0.9.1 bugfix July 2018 build 013d7b7c2542+ Fri, 06 Jul 2018 19:26:36 +0100
REM compiler GCC version 9.3.0
REM options -cpp -mtune=generic -march=x86-64 -g -O0
REM seed -1771797544 1937607448 288501622 -219728414 32705775 -1994699172 1469345577 1806905280 -862579379 -300075726 -1227126175 278449325 -845294116 -1973893388 -1716538474 996345328 932923958 785992988 584625290 -784226774 -1180910496 -1311577782 2080698540 51915730 -2037721136 1813112656 -564409649 1433858705 -689054942 -1198645241 776864336 -2118128014 270745537
REM
CELL 1.54180   50.00000   50.00000   50.00000   90.00000   90.00000   90.00000
LATT -1
SFAC C  
C      1  0.4579110000000  0.5077640000000  0.4622130000000 1.0
C      1  0.4888190000000  0.5077630000000  0.5545010000000 1.0
C      1  0.5532880000000  0.5077660000000  0.4815900000000 1.0
C      1  0.4909420000000  0.4915960000000  0.4325670000000 1.0
C      1  0.4466300000000  0.4915930000000  0.5407170000000 1.0
C      1  0.5624470000000  0.4915960000000  0.5250180000000 1.0
C      1  0.5038760000000  0.4806340000000  0.4828330000000 1.0
C      1  0.4836950000000  0.4806330000000  0.5043830000000 1.0
C      1  0.5124490000000  0.4806340000000  0.5110850000000 1.0
C      1  0.5260780000000  0.4915960000000  0.5592010000000 1.0
C      1  0.5387300000000  0.4915980000000  0.4469720000000 1.0
C      1  0.4352110000000  0.4915950000000  0.4921290000000 1.0
C      1  0.4482540000000  0.5583920000000  0.5190520000000 1.0
C      1  0.5428680000000  0.5583950000000  0.5344440000000 1.0
C      1  0.5088910000000  0.5583950000000  0.4448100000000 1.0
C      1  0.5628040000000  0.4664040000000  0.5126050000000 1.0
C      1  0.4800150000000  0.4664030000000  0.4384640000000 1.0
C      1  0.4572020000000  0.4664000000000  0.5472320000000 1.0
C      1  0.4990210000000  0.4818340000000  0.5612240000000 1.0
C      1  0.5540110000000  0.4818380000000  0.4693930000000 1.0
C      1  0.4469880000000  0.4818340000000  0.4676850000000 1.0
C      1  0.5492890000000  0.5135540000000  0.5094590000000 1.0
C      1  0.4840460000000  0.5135530000000  0.4517410000000 1.0
C      1  0.4666820000000  0.5135510000000  0.5371030000000 1.0
C      1  0.4733840000000  0.4506900000000  0.5073960000000 1.0
C      1  0.5202150000000  0.4506910000000  0.5185090000000 1.0
C      1  0.5064230000000  0.4506920000000  0.4723950000000 1.0
C      1  0.4936380000000  0.4450480000000  0.5281770000000 1.0
C      1  0.5280850000000  0.4450500000000  0.4905770000000 1.0
C      1  0.4783000000000  0.4450480000000  0.4795450000000 1.0
C      1  0.5477380000000  0.4796520000000  0.5481350000000 1.0
C      1  0.5183180000000  0.4796530000000  0.4337470000000 1.0
C      1  0.4339640000000  0.4796490000000  0.5164200000000 1.0
C      1  0.5447070000000  0.5441430000000  0.5110380000000 1.0
C      1  0.4877020000000  0.5441420000000  0.4549200000000 1.0
C      1  0.4676050000000  0.5441400000000  0.5323470000000 1.0
C      1  0.4943280000000  0.5539220000000  0.5282090000000 1.0
C      1  0.5277610000000  0.5539230000000  0.4899640000000 1.0
C      1  0.4779240000000  0.5539220000000  0.4801330000000 1.0
C      1  0.5451550000000  0.4548980000000  0.5335440000000 1.0
C      1  0.5069750000000  0.4548990000000  0.4432790000000 1.0
C      1  0.4478930000000  0.4548950000000  0.5214770000000 1.0
C      1  0.5325390000000  0.5173930000000  0.4623940000000 1.0
C      1  0.4516610000000  0.5173900000000  0.4897800000000 1.0
C      1  0.5158160000000  0.5173910000000  0.5461290000000 1.0
C      1  0.5200410000000  0.5086140000000  0.5169780000000 1.0
C      1  0.5051810000000  0.5086140000000  0.4733120000000 1.0
C      1  0.4747950000000  0.5086130000000  0.5080130000000 1.0
C      1  0.5190040000000  0.5468080000000  0.5413240000000 1.0
C      1  0.5267820000000  0.5468100000000  0.4620370000000 1.0
C      1  0.4542290000000  0.5468070000000  0.4949450000000 1.0
C      1  0.4842930000000  0.4600040000000  0.5510480000000 1.0
C      1  0.5525640000000  0.4600070000000  0.4872350000000 1.0
C      1  0.4631650000000  0.4600050000000  0.4600170000000 1.0
C      1  0.5000050000000  0.5216240000000  0.4994350000000 1.0
C      1  0.5000040000000  0.5528910000000  0.4994350000000 1.0
END
