TITL C-129410-8765-2 -10.5629822052658 125000 -1404.13810975296 0 0 197 (D2) n - 1
REM
REM in /rds/project/t2_vol4/rds-t2-cs072/BORA/CARBON/from-Arr/AIRSS/Generating-Clusters/GAP-ML-2020/Higher-Symm/SD-CG/HFTN-CG/C160-200
REM
REM
REM
REM
REM
REM ./C.cell (6b4489405718ea1b717e0baf1da4c2d9)
REM AIRSS Version 0.9.1 bugfix July 2018 build 013d7b7c2542+ Fri, 06 Jul 2018 19:26:36 +0100
REM compiler GCC version 9.3.0
REM options -cpp -mtune=generic -march=x86-64 -g -O0
REM seed -1392570229 2122210635 -689708284 1767342331 575013082 207437572 -1338047793 859554749 -909454583 -709448495 -235672504 -1710490574 410624014 180555225 549457479 -857071531 1915302213 -1194861930 -1397968023 1323180866 -824303083 -221419410 -877130193 899373586 -489885493 512690738 569394662 -341205276 431220998 -1683653281 -312491605 -1696022319 -993209066
REM
CELL 1.54180   50.00000   50.00000   50.00000   90.00000   90.00000   90.00000
LATT -1
SFAC C  
C      1  0.4501030000000  0.4084120000000  0.5222550000000 1.0
C      1  0.4500960000000  0.5919690000000  0.4779500000000 1.0
C      1  0.5498860000000  0.4084170000000  0.4779180000000 1.0
C      1  0.5498910000000  0.5919650000000  0.5222600000000 1.0
C      1  0.5280390000000  0.5286520000000  0.4382390000000 1.0
C      1  0.5280560000000  0.4717300000000  0.5619460000000 1.0
C      1  0.4719480000000  0.5286390000000  0.5619590000000 1.0
C      1  0.4719320000000  0.4717420000000  0.4382400000000 1.0
C      1  0.4632300000000  0.5177440000000  0.4625860000000 1.0
C      1  0.4632400000000  0.4826370000000  0.5376150000000 1.0
C      1  0.5367580000000  0.5177370000000  0.5376090000000 1.0
C      1  0.5367480000000  0.4826450000000  0.4625730000000 1.0
C      1  0.4397960000000  0.4491330000000  0.4946270000000 1.0
C      1  0.4397970000000  0.5512480000000  0.5055820000000 1.0
C      1  0.5601930000000  0.4491330000000  0.5055550000000 1.0
C      1  0.5601910000000  0.5512500000000  0.4946210000000 1.0
C      1  0.4811630000000  0.5191740000000  0.5165050000000 1.0
C      1  0.4811580000000  0.4812070000000  0.4836920000000 1.0
C      1  0.5188250000000  0.5191780000000  0.4836910000000 1.0
C      1  0.5188300000000  0.4812040000000  0.5164960000000 1.0
C      1  0.5788390000000  0.4700870000000  0.4252290000000 1.0
C      1  0.5788590000000  0.5302960000000  0.5749410000000 1.0
C      1  0.4211490000000  0.4700710000000  0.5749570000000 1.0
C      1  0.4211280000000  0.5303100000000  0.4252570000000 1.0
C      1  0.5365590000000  0.4822160000000  0.4004420000000 1.0
C      1  0.5365860000000  0.5181660000000  0.5997400000000 1.0
C      1  0.4634290000000  0.4821950000000  0.5997470000000 1.0
C      1  0.4634010000000  0.5181860000000  0.4004550000000 1.0
C      1  0.5014390000000  0.4509910000000  0.5979010000000 1.0
C      1  0.5014120000000  0.5493900000000  0.4022900000000 1.0
C      1  0.4985490000000  0.4510110000000  0.4022800000000 1.0
C      1  0.4985750000000  0.5493700000000  0.5979120000000 1.0
C      1  0.5376020000000  0.5500740000000  0.4567440000000 1.0
C      1  0.5376140000000  0.4503090000000  0.5434380000000 1.0
C      1  0.4623850000000  0.5500640000000  0.5434580000000 1.0
C      1  0.4623740000000  0.4503170000000  0.4567440000000 1.0
C      1  0.4543070000000  0.5662260000000  0.4131120000000 1.0
C      1  0.4543320000000  0.4341550000000  0.5870920000000 1.0
C      1  0.5456800000000  0.5662080000000  0.5870930000000 1.0
C      1  0.5456560000000  0.4341740000000  0.4130860000000 1.0
C      1  0.5884190000000  0.5517890000000  0.5046120000000 1.0
C      1  0.5884180000000  0.4485940000000  0.4955550000000 1.0
C      1  0.4115680000000  0.5517890000000  0.4955900000000 1.0
C      1  0.4115700000000  0.4485920000000  0.5046260000000 1.0
C      1  0.3983670000000  0.5408590000000  0.5187620000000 1.0
C      1  0.3983620000000  0.4595210000000  0.4814580000000 1.0
C      1  0.6016210000000  0.5408640000000  0.4814380000000 1.0
C      1  0.6016260000000  0.4595190000000  0.5187260000000 1.0
C      1  0.4972720000000  0.5407880000000  0.5694560000000 1.0
C      1  0.4972530000000  0.4595930000000  0.4307360000000 1.0
C      1  0.5027150000000  0.5408030000000  0.4307440000000 1.0
C      1  0.5027350000000  0.4595790000000  0.5694470000000 1.0
C      1  0.5483020000000  0.5754420000000  0.4416740000000 1.0
C      1  0.5483180000000  0.4249410000000  0.5585040000000 1.0
C      1  0.4516850000000  0.5754290000000  0.5585330000000 1.0
C      1  0.4516700000000  0.4249520000000  0.4416720000000 1.0
C      1  0.5225450000000  0.4713720000000  0.6064680000000 1.0
C      1  0.5225150000000  0.5290100000000  0.3937180000000 1.0
C      1  0.4774430000000  0.4713940000000  0.3937180000000 1.0
C      1  0.4774720000000  0.5289880000000  0.6064800000000 1.0
C      1  0.5135260000000  0.5491080000000  0.4744600000000 1.0
C      1  0.5135330000000  0.4512730000000  0.5257280000000 1.0
C      1  0.4864610000000  0.5491030000000  0.5257410000000 1.0
C      1  0.4864550000000  0.4512780000000  0.4744540000000 1.0
C      1  0.5397940000000  0.5899590000000  0.5705320000000 1.0
C      1  0.5397760000000  0.4104230000000  0.4296490000000 1.0
C      1  0.4601930000000  0.5899730000000  0.4296780000000 1.0
C      1  0.4602130000000  0.4104080000000  0.5705250000000 1.0
C      1  0.4666160000000  0.4007740000000  0.4432770000000 1.0
C      1  0.4666300000000  0.5996070000000  0.5569240000000 1.0
C      1  0.5333730000000  0.4007630000000  0.5568940000000 1.0
C      1  0.5333570000000  0.5996190000000  0.4432880000000 1.0
C      1  0.4714430000000  0.5462200000000  0.4007200000000 1.0
C      1  0.4714710000000  0.4541620000000  0.5994790000000 1.0
C      1  0.5285440000000  0.5461990000000  0.5994810000000 1.0
C      1  0.5285170000000  0.4541820000000  0.4007030000000 1.0
C      1  0.4425220000000  0.4940430000000  0.5203780000000 1.0
C      1  0.4425160000000  0.5063380000000  0.4798300000000 1.0
C      1  0.5574660000000  0.4940480000000  0.4798130000000 1.0
C      1  0.5574710000000  0.5063340000000  0.5203630000000 1.0
C      1  0.4833150000000  0.5045250000000  0.5439340000000 1.0
C      1  0.4833030000000  0.4958570000000  0.4562620000000 1.0
C      1  0.5166730000000  0.5045340000000  0.4562590000000 1.0
C      1  0.5166850000000  0.4958480000000  0.5439280000000 1.0
C      1  0.4287740000000  0.4432930000000  0.5772630000000 1.0
C      1  0.4287520000000  0.5570880000000  0.4229490000000 1.0
C      1  0.5712150000000  0.4433100000000  0.4229180000000 1.0
C      1  0.5712350000000  0.5570730000000  0.5772550000000 1.0
C      1  0.5871440000000  0.5079350000000  0.5293730000000 1.0
C      1  0.5871360000000  0.4924470000000  0.4707950000000 1.0
C      1  0.4128440000000  0.5079400000000  0.4708210000000 1.0
C      1  0.4128520000000  0.4924400000000  0.5293950000000 1.0
C      1  0.4850770000000  0.4981440000000  0.3937030000000 1.0
C      1  0.4851060000000  0.5022370000000  0.6064930000000 1.0
C      1  0.5149110000000  0.4981230000000  0.6064880000000 1.0
C      1  0.5148810000000  0.5022590000000  0.3936990000000 1.0
C      1  0.4714850000000  0.6241420000000  0.5086850000000 1.0
C      1  0.4714840000000  0.3762390000000  0.4915140000000 1.0
C      1  0.5285010000000  0.6241440000000  0.4915320000000 1.0
C      1  0.5285050000000  0.3762380000000  0.5086520000000 1.0
C      1  0.5431040000000  0.4356840000000  0.5849370000000 1.0
C      1  0.5430800000000  0.5646980000000  0.4152430000000 1.0
C      1  0.4568840000000  0.4357010000000  0.4152420000000 1.0
C      1  0.4569070000000  0.5646810000000  0.5849620000000 1.0
C      1  0.5342290000000  0.3855960000000  0.4825720000000 1.0
C      1  0.5342330000000  0.6147860000000  0.5176110000000 1.0
C      1  0.4657600000000  0.3855920000000  0.5175960000000 1.0
C      1  0.4657540000000  0.6147890000000  0.4826050000000 1.0
C      1  0.5791700000000  0.5708980000000  0.5529450000000 1.0
C      1  0.5791570000000  0.4294850000000  0.4472250000000 1.0
C      1  0.4208170000000  0.5709080000000  0.4472610000000 1.0
C      1  0.4208320000000  0.4294730000000  0.5529520000000 1.0
C      1  0.5080150000000  0.5511820000000  0.5454360000000 1.0
C      1  0.5080030000000  0.4492000000000  0.4547530000000 1.0
C      1  0.4919720000000  0.5511910000000  0.4547660000000 1.0
C      1  0.4919850000000  0.4491900000000  0.5454280000000 1.0
C      1  0.5392030000000  0.4358610000000  0.4883840000000 1.0
C      1  0.5392050000000  0.5645210000000  0.5117970000000 1.0
C      1  0.4607860000000  0.4358580000000  0.5117950000000 1.0
C      1  0.4607820000000  0.5645230000000  0.4884080000000 1.0
C      1  0.5155220000000  0.3965540000000  0.4361840000000 1.0
C      1  0.5155380000000  0.6038280000000  0.5640030000000 1.0
C      1  0.4844670000000  0.3965400000000  0.5639860000000 1.0
C      1  0.4844490000000  0.6038410000000  0.4362100000000 1.0
C      1  0.5997270000000  0.5168680000000  0.4651890000000 1.0
C      1  0.5997370000000  0.4835150000000  0.5349750000000 1.0
C      1  0.4002610000000  0.5168600000000  0.5350060000000 1.0
C      1  0.4002510000000  0.4835210000000  0.4652130000000 1.0
C      1  0.5159340000000  0.6181690000000  0.5386700000000 1.0
C      1  0.5159250000000  0.3822130000000  0.4615170000000 1.0
C      1  0.4840520000000  0.6181770000000  0.4615460000000 1.0
C      1  0.4840640000000  0.3822050000000  0.5386510000000 1.0
C      1  0.4369930000000  0.5097170000000  0.4121970000000 1.0
C      1  0.4370170000000  0.4906640000000  0.5880120000000 1.0
C      1  0.5629950000000  0.5097000000000  0.5879970000000 1.0
C      1  0.5629710000000  0.4906830000000  0.4121780000000 1.0
C      1  0.5878950000000  0.5494680000000  0.4567210000000 1.0
C      1  0.5879080000000  0.4509140000000  0.5434460000000 1.0
C      1  0.4120920000000  0.5494580000000  0.5434810000000 1.0
C      1  0.4120810000000  0.4509220000000  0.4567350000000 1.0
C      1  0.5876610000000  0.4737550000000  0.5611350000000 1.0
C      1  0.5876440000000  0.5266280000000  0.4390330000000 1.0
C      1  0.4123270000000  0.4737660000000  0.4390520000000 1.0
C      1  0.4123430000000  0.5266140000000  0.5611640000000 1.0
C      1  0.5915350000000  0.4714040000000  0.4519250000000 1.0
C      1  0.5915480000000  0.5289790000000  0.5482410000000 1.0
C      1  0.4084530000000  0.4713930000000  0.5482600000000 1.0
C      1  0.4084400000000  0.5289870000000  0.4519560000000 1.0
C      1  0.5915460000000  0.5533340000000  0.5339500000000 1.0
C      1  0.5915370000000  0.4470480000000  0.4662170000000 1.0
C      1  0.4084410000000  0.5533400000000  0.4662530000000 1.0
C      1  0.4084510000000  0.4470400000000  0.5339640000000 1.0
C      1  0.5488990000000  0.5201640000000  0.4932960000000 1.0
C      1  0.5489010000000  0.4802180000000  0.5068820000000 1.0
C      1  0.4510890000000  0.5201620000000  0.5069000000000 1.0
C      1  0.4510870000000  0.4802190000000  0.4933060000000 1.0
C      1  0.4668170000000  0.3822870000000  0.4644880000000 1.0
C      1  0.4668250000000  0.6180940000000  0.5357130000000 1.0
C      1  0.5331720000000  0.3822800000000  0.5356800000000 1.0
C      1  0.5331610000000  0.6181020000000  0.4645030000000 1.0
C      1  0.4674420000000  0.5451340000000  0.4650960000000 1.0
C      1  0.4674520000000  0.4552470000000  0.5351040000000 1.0
C      1  0.5325460000000  0.5451270000000  0.5351050000000 1.0
C      1  0.5325360000000  0.4552550000000  0.4650780000000 1.0
C      1  0.5129640000000  0.4316580000000  0.5050570000000 1.0
C      1  0.5129620000000  0.5687240000000  0.4951310000000 1.0
C      1  0.4870240000000  0.4316580000000  0.4951210000000 1.0
C      1  0.4870250000000  0.5687230000000  0.5050740000000 1.0
C      1  0.5103510000000  0.4046840000000  0.5736980000000 1.0
C      1  0.5103290000000  0.5956980000000  0.4264910000000 1.0
C      1  0.4896380000000  0.4046990000000  0.4264740000000 1.0
C      1  0.4896570000000  0.5956820000000  0.5737210000000 1.0
C      1  0.4547860000000  0.5353570000000  0.5884050000000 1.0
C      1  0.4547620000000  0.4650250000000  0.4118000000000 1.0
C      1  0.5452020000000  0.5353750000000  0.4117940000000 1.0
C      1  0.5452260000000  0.4650070000000  0.5883850000000 1.0
C      1  0.4366310000000  0.4401820000000  0.4659330000000 1.0
C      1  0.4366400000000  0.5601980000000  0.5342760000000 1.0
C      1  0.5633570000000  0.4401760000000  0.5342460000000 1.0
C      1  0.5633470000000  0.5602060000000  0.4659280000000 1.0
C      1  0.4830550000000  0.4272680000000  0.4096490000000 1.0
C      1  0.4830790000000  0.5731140000000  0.5905470000000 1.0
C      1  0.5169330000000  0.4272490000000  0.5905280000000 1.0
C      1  0.5169080000000  0.5731320000000  0.4096600000000 1.0
C      1  0.5593890000000  0.5899930000000  0.5488950000000 1.0
C      1  0.5593770000000  0.4103890000000  0.4512810000000 1.0
C      1  0.4405980000000  0.5900030000000  0.4513150000000 1.0
C      1  0.4406120000000  0.4103780000000  0.5488930000000 1.0
C      1  0.5685680000000  0.5181430000000  0.4187170000000 1.0
C      1  0.5685910000000  0.4822400000000  0.5814560000000 1.0
C      1  0.4314190000000  0.5181250000000  0.5814790000000 1.0
C      1  0.4313970000000  0.4822560000000  0.4187320000000 1.0
C      1  0.5081900000000  0.3727090000000  0.5276580000000 1.0
C      1  0.5081810000000  0.6276730000000  0.4725320000000 1.0
C      1  0.4918000000000  0.3727140000000  0.4725080000000 1.0
C      1  0.4918060000000  0.6276670000000  0.5276860000000 1.0
C      1  0.4999940000000  0.5001910000000  0.5000960000000 1.0
END
