TITL C-126798-9259-7 0.072302329605533 125000 -728.376789583494 0 0 102 (C3) n - 1
REM
REM in /rds/project/t2_vol4/rds-t2-cs072/BORA/CARBON/from-Arr/AIRSS/Generating-Clusters/GAP-ML-2020/Higher-Symm/SD-CG/HFTN-CG
REM
REM
REM
REM
REM
REM ./C.cell (b20cbc046b6831c77cfcea5457e17084)
REM AIRSS Version 0.9.1 bugfix July 2018 build 013d7b7c2542+ Fri, 06 Jul 2018 19:26:36 +0100
REM compiler GCC version 9.3.0
REM options -cpp -mtune=generic -march=x86-64 -g -O0
REM seed -1688901386 487624305 1542667170 1528890635 2015815161 754352997 418307993 -2070162638 913318487 -1234965036 1283956660 -1096598713 -1049450989 -387347546 708232206 380425172 1073223983 18288714 -73828897 -1659089622 -861708874 1303930435 -1786442267 -1828189253 -1472484081 35676518 -1927868662 -51162949 829638046 1141634592 -1374330754 1003987456 -1048555763
REM
CELL 1.54180   50.00000   50.00000   50.00000   90.00000   90.00000   90.00000
LATT -1
SFAC C  
C      1  0.4741540000000  0.4945610000000  0.5337130000000 1.0
C      1  0.5079470000000  0.5252640000000  0.5336570000000 1.0
C      1  0.5176400000000  0.4806470000000  0.5338900000000 1.0
C      1  0.5691640000000  0.4620340000000  0.4964170000000 1.0
C      1  0.4325690000000  0.4590660000000  0.4960810000000 1.0
C      1  0.4982970000000  0.5788450000000  0.4956900000000 1.0
C      1  0.4997970000000  0.4823920000000  0.4526880000000 1.0
C      1  0.4852260000000  0.5087530000000  0.4525280000000 1.0
C      1  0.5153410000000  0.5081910000000  0.4526080000000 1.0
C      1  0.5830050000000  0.4778800000000  0.5155530000000 1.0
C      1  0.4392200000000  0.4392480000000  0.5153660000000 1.0
C      1  0.4776580000000  0.5830850000000  0.5147930000000 1.0
C      1  0.4787140000000  0.5447770000000  0.5714490000000 1.0
C      1  0.5488570000000  0.4963900000000  0.5718540000000 1.0
C      1  0.4718790000000  0.4598380000000  0.5718280000000 1.0
C      1  0.4234010000000  0.5053830000000  0.4946420000000 1.0
C      1  0.5430020000000  0.5636200000000  0.4946760000000 1.0
C      1  0.5336360000000  0.4309250000000  0.4952720000000 1.0
C      1  0.5007730000000  0.5289960000000  0.4143990000000 1.0
C      1  0.5253980000000  0.4844240000000  0.4146700000000 1.0
C      1  0.4744850000000  0.4853830000000  0.4145350000000 1.0
C      1  0.4198150000000  0.4774460000000  0.5367360000000 1.0
C      1  0.5202710000000  0.5808950000000  0.5365100000000 1.0
C      1  0.5596320000000  0.4421750000000  0.5372580000000 1.0
C      1  0.5635830000000  0.5506300000000  0.5095780000000 1.0
C      1  0.5119790000000  0.4196680000000  0.5100570000000 1.0
C      1  0.4243640000000  0.5298370000000  0.5093190000000 1.0
C      1  0.5666260000000  0.5208890000000  0.4731380000000 1.0
C      1  0.4849890000000  0.4317280000000  0.4733460000000 1.0
C      1  0.4485920000000  0.5470060000000  0.4727140000000 1.0
C      1  0.4556300000000  0.4570070000000  0.4497800000000 1.0
C      1  0.4853490000000  0.5596810000000  0.4493760000000 1.0
C      1  0.5594080000000  0.4826080000000  0.4499260000000 1.0
C      1  0.4675290000000  0.4218290000000  0.5449960000000 1.0
C      1  0.4481840000000  0.5674190000000  0.5442670000000 1.0
C      1  0.5839430000000  0.5113780000000  0.5448760000000 1.0
C      1  0.4421180000000  0.5496910000000  0.4238170000000 1.0
C      1  0.5725730000000  0.5249180000000  0.4242670000000 1.0
C      1  0.4858900000000  0.4243280000000  0.4245150000000 1.0
C      1  0.4915810000000  0.5825340000000  0.5400520000000 1.0
C      1  0.5753680000000  0.4662190000000  0.5408100000000 1.0
C      1  0.4327410000000  0.4518140000000  0.5405120000000 1.0
C      1  0.5618310000000  0.5546780000000  0.5380550000000 1.0
C      1  0.5161360000000  0.4192970000000  0.5385700000000 1.0
C      1  0.4217400000000  0.5265590000000  0.5378280000000 1.0
C      1  0.5239990000000  0.5799150000000  0.5083170000000 1.0
C      1  0.5571410000000  0.4393010000000  0.5090580000000 1.0
C      1  0.4187940000000  0.4809050000000  0.5085100000000 1.0
C      1  0.5715760000000  0.5340730000000  0.5550800000000 1.0
C      1  0.4932860000000  0.4212410000000  0.5554060000000 1.0
C      1  0.4347150000000  0.5454570000000  0.5546760000000 1.0
C      1  0.5871610000000  0.5067170000000  0.5172860000000 1.0
C      1  0.4621010000000  0.4212410000000  0.5173660000000 1.0
C      1  0.4506070000000  0.5722820000000  0.5166310000000 1.0
C      1  0.5049320000000  0.5523070000000  0.4304520000000 1.0
C      1  0.5433800000000  0.4692440000000  0.4309380000000 1.0
C      1  0.4522200000000  0.4774780000000  0.4306660000000 1.0
C      1  0.4976490000000  0.5558050000000  0.4771560000000 1.0
C      1  0.5496830000000  0.4740260000000  0.4776710000000 1.0
C      1  0.4528420000000  0.4698520000000  0.4774430000000 1.0
C      1  0.4381210000000  0.5531010000000  0.4982110000000 1.0
C      1  0.5769380000000  0.5270310000000  0.4986880000000 1.0
C      1  0.4849510000000  0.4198480000000  0.4989530000000 1.0
C      1  0.5732990000000  0.4881960000000  0.5587280000000 1.0
C      1  0.4526660000000  0.4427030000000  0.5586320000000 1.0
C      1  0.4735860000000  0.5699200000000  0.5580920000000 1.0
C      1  0.4246110000000  0.5013000000000  0.5511600000000 1.0
C      1  0.5384160000000  0.5648840000000  0.5511550000000 1.0
C      1  0.5365780000000  0.4345350000000  0.5517590000000 1.0
C      1  0.5240330000000  0.5125660000000  0.4214290000000 1.0
C      1  0.4994850000000  0.4725280000000  0.4215540000000 1.0
C      1  0.4770860000000  0.5138060000000  0.4213040000000 1.0
C      1  0.5255400000000  0.4801510000000  0.5653220000000 1.0
C      1  0.4695270000000  0.4881180000000  0.5651420000000 1.0
C      1  0.5044330000000  0.5326440000000  0.5650230000000 1.0
C      1  0.4566390000000  0.5569160000000  0.4469800000000 1.0
C      1  0.5713870000000  0.5088420000000  0.4474980000000 1.0
C      1  0.4723780000000  0.4335050000000  0.4475960000000 1.0
C      1  0.5049640000000  0.4435860000000  0.4260070000000 1.0
C      1  0.4492470000000  0.5235520000000  0.4254910000000 1.0
C      1  0.5463590000000  0.5318220000000  0.4257010000000 1.0
C      1  0.5266220000000  0.5047300000000  0.5217280000000 1.0
C      1  0.4906140000000  0.4746840000000  0.5217770000000 1.0
C      1  0.4825970000000  0.5208900000000  0.5215400000000 1.0
C      1  0.5299470000000  0.4466640000000  0.4417350000000 1.0
C      1  0.4392970000000  0.5004520000000  0.4412520000000 1.0
C      1  0.5312050000000  0.5520630000000  0.4412460000000 1.0
C      1  0.4960150000000  0.4439880000000  0.5732120000000 1.0
C      1  0.4529090000000  0.5318060000000  0.5726920000000 1.0
C      1  0.5505160000000  0.5252290000000  0.5729720000000 1.0
C      1  0.5008520000000  0.4608110000000  0.4740780000000 1.0
C      1  0.4658400000000  0.5187310000000  0.4737180000000 1.0
C      1  0.5335080000000  0.5200920000000  0.4738850000000 1.0
C      1  0.5295120000000  0.4505360000000  0.4724970000000 1.0
C      1  0.4426260000000  0.4990400000000  0.4720480000000 1.0
C      1  0.5280760000000  0.5500340000000  0.4720290000000 1.0
C      1  0.5297980000000  0.5443570000000  0.5709180000000 1.0
C      1  0.5229560000000  0.4523560000000  0.5713310000000 1.0
C      1  0.4467010000000  0.5042810000000  0.5708930000000 1.0
C      1  0.4833550000000  0.5283230000000  0.4940780000000 1.0
C      1  0.5328960000000  0.5002270000000  0.4943360000000 1.0
C      1  0.4837930000000  0.4713700000000  0.4943450000000 1.0
END
