TITL C-126555-4315-8 -0.0559200590702035 125000 -591.487436150672 0 0 85 (C1) n - 1
REM
REM in /rds/project/t2_vol4/rds-t2-cs072/BORA/CARBON/from-Arr/AIRSS/Generating-Clusters/GAP-ML-2020/Higher-Symm/SD-CG/HFTN-CG
REM
REM
REM
REM
REM
REM ./C.cell (b20cbc046b6831c77cfcea5457e17084)
REM AIRSS Version 0.9.1 bugfix July 2018 build 013d7b7c2542+ Fri, 06 Jul 2018 19:26:36 +0100
REM compiler GCC version 9.3.0
REM options -cpp -mtune=generic -march=x86-64 -g -O0
REM seed -342882634 2128320465 -1648602151 1883972159 1755385030 1019368197 767247039 2051066208 1801459294 -215023308 -1942260042 -1530452221 -1851186924 1322311374 -1437724227 1721876171 -1914075570 -85241979 1511696757 -1450264589 1770242290 525937990 -495228492 537094410 972573783 -1420798352 294531236 1782281009 -1971595466 -918718095 -1223625549 1498954876 1191453186
REM
CELL 1.54180   50.00000   50.00000   50.00000   90.00000   90.00000   90.00000
LATT -1
SFAC C  
C      1  0.5092940000000  0.5263940000000  0.5758020000000 1.0
C      1  0.5087670000000  0.4241410000000  0.5260110000000 1.0
C      1  0.5087440000000  0.4741510000000  0.4243480000000 1.0
C      1  0.5097250000000  0.5757500000000  0.4744520000000 1.0
C      1  0.5318990000000  0.5553630000000  0.5428360000000 1.0
C      1  0.5309350000000  0.4577590000000  0.5552320000000 1.0
C      1  0.5312000000000  0.4449580000000  0.4573410000000 1.0
C      1  0.5309160000000  0.5425810000000  0.4453770000000 1.0
C      1  0.4814830000000  0.4711970000000  0.4725170000000 1.0
C      1  0.4778950000000  0.5302120000000  0.4702490000000 1.0
C      1  0.4817490000000  0.5302420000000  0.5268880000000 1.0
C      1  0.4809910000000  0.4735270000000  0.5284840000000 1.0
C      1  0.4899370000000  0.5631560000000  0.4321360000000 1.0
C      1  0.4895150000000  0.5673770000000  0.5628210000000 1.0
C      1  0.4892170000000  0.4375330000000  0.5670820000000 1.0
C      1  0.4895550000000  0.4327540000000  0.4370140000000 1.0
C      1  0.5637220000000  0.5110170000000  0.4611710000000 1.0
C      1  0.5644210000000  0.5388160000000  0.5112540000000 1.0
C      1  0.5638380000000  0.4891350000000  0.5388890000000 1.0
C      1  0.5633990000000  0.4614500000000  0.4890850000000 1.0
C      1  0.4816410000000  0.5779330000000  0.4822380000000 1.0
C      1  0.4810700000000  0.5183250000000  0.5793630000000 1.0
C      1  0.4802590000000  0.4207530000000  0.5180150000000 1.0
C      1  0.4806480000000  0.4815570000000  0.4204500000000 1.0
C      1  0.5297590000000  0.5069060000000  0.5700390000000 1.0
C      1  0.5294690000000  0.4300570000000  0.5067060000000 1.0
C      1  0.5287130000000  0.4938670000000  0.4306670000000 1.0
C      1  0.5304780000000  0.5697930000000  0.4935660000000 1.0
C      1  0.4942250000000  0.5524530000000  0.5133270000000 1.0
C      1  0.4944760000000  0.4876060000000  0.5496100000000 1.0
C      1  0.4944520000000  0.4496990000000  0.4865520000000 1.0
C      1  0.4926960000000  0.5145960000000  0.4497340000000 1.0
C      1  0.5524390000000  0.5368490000000  0.5377650000000 1.0
C      1  0.5514560000000  0.4628890000000  0.5367260000000 1.0
C      1  0.5514770000000  0.4635870000000  0.4625790000000 1.0
C      1  0.5517200000000  0.5372930000000  0.4635340000000 1.0
C      1  0.4594770000000  0.5341310000000  0.5678630000000 1.0
C      1  0.4588710000000  0.4328800000000  0.5338870000000 1.0
C      1  0.4590710000000  0.4655470000000  0.4318850000000 1.0
C      1  0.4641250000000  0.5598850000000  0.4668430000000 1.0
C      1  0.4645700000000  0.5611000000000  0.5554200000000 1.0
C      1  0.4645070000000  0.4452950000000  0.5607020000000 1.0
C      1  0.4646720000000  0.4388930000000  0.4445520000000 1.0
C      1  0.4649050000000  0.5546530000000  0.4373510000000 1.0
C      1  0.5506910000000  0.4888060000000  0.4484560000000 1.0
C      1  0.5516570000000  0.5513330000000  0.4886860000000 1.0
C      1  0.5514380000000  0.5116560000000  0.5517830000000 1.0
C      1  0.5508040000000  0.4487170000000  0.5115850000000 1.0
C      1  0.5177550000000  0.5199970000000  0.4348300000000 1.0
C      1  0.5197930000000  0.5655580000000  0.5195510000000 1.0
C      1  0.5185280000000  0.4809830000000  0.5655210000000 1.0
C      1  0.5188830000000  0.4345230000000  0.4805480000000 1.0
C      1  0.4503540000000  0.4759500000000  0.5269410000000 1.0
C      1  0.4510880000000  0.4726560000000  0.4748750000000 1.0
C      1  0.4471710000000  0.5226900000000  0.4724770000000 1.0
C      1  0.4517020000000  0.5278370000000  0.5250180000000 1.0
C      1  0.4774240000000  0.4263610000000  0.4902170000000 1.0
C      1  0.4775600000000  0.5092570000000  0.4255510000000 1.0
C      1  0.4764870000000  0.5747370000000  0.5096930000000 1.0
C      1  0.4785910000000  0.4904760000000  0.5738930000000 1.0
C      1  0.4428490000000  0.4503180000000  0.5164260000000 1.0
C      1  0.4430740000000  0.4827580000000  0.4492320000000 1.0
C      1  0.4415740000000  0.5486300000000  0.4835040000000 1.0
C      1  0.4436930000000  0.5169020000000  0.5502470000000 1.0
C      1  0.5123920000000  0.4480160000000  0.4352010000000 1.0
C      1  0.5123350000000  0.5647790000000  0.4483990000000 1.0
C      1  0.5126190000000  0.5523550000000  0.5647500000000 1.0
C      1  0.5120730000000  0.4356250000000  0.5519120000000 1.0
C      1  0.4996990000000  0.5087300000000  0.5288660000000 1.0
C      1  0.4984270000000  0.4720340000000  0.5067770000000 1.0
C      1  0.4986980000000  0.4933630000000  0.4702050000000 1.0
C      1  0.4962700000000  0.5304460000000  0.4921390000000 1.0
C      1  0.5829950000000  0.4801280000000  0.4946960000000 1.0
C      1  0.5832320000000  0.5052560000000  0.4800700000000 1.0
C      1  0.5835040000000  0.5197240000000  0.5053610000000 1.0
C      1  0.5832580000000  0.4945930000000  0.5199140000000 1.0
C      1  0.4425790000000  0.5512340000000  0.5111970000000 1.0
C      1  0.4424610000000  0.4887930000000  0.5517160000000 1.0
C      1  0.4428570000000  0.4482600000000  0.4882410000000 1.0
C      1  0.4414460000000  0.5110130000000  0.4470320000000 1.0
C      1  0.4562460000000  0.5273540000000  0.4284540000000 1.0
C      1  0.4555930000000  0.5702120000000  0.5279170000000 1.0
C      1  0.4568190000000  0.4724810000000  0.5699610000000 1.0
C      1  0.4563130000000  0.4296830000000  0.4716390000000 1.0
C      1  0.5080220000000  0.5019610000000  0.4988300000000 1.0
END
