TITL C-121826-4982-6 -144.079268373523 125000 -827.874088678706 0 0 123 (C1) n - 1
REM
REM in /rds/project/t2_vol4/rds-t2-cs072/BORA/CARBON/from-Arr/AIRSS/Generating-Clusters/GAP-ML-2020/Higher-Symm/SD-CG/HFTN-CG
REM
REM
REM
REM
REM
REM ./C.cell (b20cbc046b6831c77cfcea5457e17084)
REM AIRSS Version 0.9.1 bugfix July 2018 build 013d7b7c2542+ Fri, 06 Jul 2018 19:26:36 +0100
REM compiler GCC version 9.3.0
REM options -cpp -mtune=generic -march=x86-64 -g -O0
REM seed -1856726812 -650213785 -926832866 328007198 1319229519 886215270 2061499259 -380125499 -609553352 846788677 984409035 1230808963 1598383679 2037704224 -1320087585 -1574729132 -831332421 1131825364 -1414218135 1359020279 -1484044779 103560687 -66301602 1800934747 1903524593 1430696456 1612278938 1879391521 -1904717688 -1588565808 915286822 -2085053806 43095421
REM
CELL 1.54180   50.00000   50.00000   50.00000   90.00000   90.00000   90.00000
LATT -1
SFAC C  
C      1  0.5038710000000  0.4967570000000  0.4229240000000 1.0
C      1  0.5040350000000  0.4318880000000  0.5435740000000 1.0
C      1  0.5041020000000  0.5702620000000  0.5349170000000 1.0
C      1  0.4681490000000  0.4647270000000  0.4443820000000 1.0
C      1  0.4690420000000  0.4659940000000  0.5596790000000 1.0
C      1  0.4691490000000  0.5675570000000  0.4970850000000 1.0
C      1  0.4713310000000  0.4708440000000  0.5296610000000 1.0
C      1  0.4715340000000  0.5370440000000  0.5046260000000 1.0
C      1  0.4692480000000  0.4884270000000  0.4665370000000 1.0
C      1  0.4673060000000  0.4460930000000  0.5165270000000 1.0
C      1  0.4681300000000  0.5381090000000  0.5339150000000 1.0
C      1  0.4655160000000  0.5113200000000  0.4486490000000 1.0
C      1  0.4793420000000  0.5612040000000  0.5470840000000 1.0
C      1  0.4783880000000  0.5105230000000  0.4228500000000 1.0
C      1  0.4793410000000  0.4237470000000  0.5301390000000 1.0
C      1  0.4549510000000  0.4062360000000  0.4961940000000 1.0
C      1  0.4554830000000  0.5420120000000  0.5803440000000 1.0
C      1  0.4543060000000  0.5492770000000  0.4212150000000 1.0
C      1  0.5554670000000  0.4163560000000  0.4927320000000 1.0
C      1  0.5552020000000  0.5348440000000  0.5752360000000 1.0
C      1  0.5563350000000  0.5502530000000  0.4342300000000 1.0
C      1  0.4897400000000  0.5026590000000  0.5901500000000 1.0
C      1  0.4904140000000  0.5787200000000  0.4516900000000 1.0
C      1  0.4895270000000  0.4193210000000  0.4579110000000 1.0
C      1  0.5257280000000  0.4644490000000  0.5091780000000 1.0
C      1  0.5253860000000  0.5241580000000  0.5229560000000 1.0
C      1  0.5336410000000  0.5130000000000  0.4598240000000 1.0
C      1  0.4261790000000  0.4742950000000  0.4726040000000 1.0
C      1  0.4271360000000  0.4871250000000  0.5366230000000 1.0
C      1  0.4249480000000  0.5399900000000  0.4908440000000 1.0
C      1  0.5220360000000  0.5636020000000  0.5604030000000 1.0
C      1  0.5209940000000  0.5220280000000  0.4170550000000 1.0
C      1  0.5220690000000  0.4139450000000  0.5251290000000 1.0
C      1  0.4264000000000  0.4563720000000  0.5405370000000 1.0
C      1  0.4270980000000  0.5565890000000  0.5160280000000 1.0
C      1  0.4259050000000  0.4861530000000  0.4446570000000 1.0
C      1  0.4342930000000  0.5412170000000  0.4385750000000 1.0
C      1  0.4347040000000  0.4254810000000  0.4950320000000 1.0
C      1  0.4357380000000  0.5313960000000  0.5646400000000 1.0
C      1  0.5108950000000  0.5234190000000  0.5879260000000 1.0
C      1  0.5114330000000  0.5668470000000  0.4350220000000 1.0
C      1  0.5108960000000  0.4106870000000  0.4766630000000 1.0
C      1  0.5798640000000  0.5560230000000  0.5091260000000 1.0
C      1  0.5776910000000  0.4798430000000  0.4488510000000 1.0
C      1  0.5790410000000  0.4650410000000  0.5443270000000 1.0
C      1  0.4377830000000  0.4416060000000  0.5180210000000 1.0
C      1  0.4392540000000  0.5425490000000  0.5384830000000 1.0
C      1  0.4369150000000  0.5130120000000  0.4433670000000 1.0
C      1  0.4773970000000  0.5381190000000  0.4138350000000 1.0
C      1  0.4771440000000  0.4022600000000  0.5110410000000 1.0
C      1  0.4775970000000  0.5561170000000  0.5753970000000 1.0
C      1  0.4684450000000  0.4962140000000  0.5676220000000 1.0
C      1  0.4688580000000  0.5617250000000  0.4666830000000 1.0
C      1  0.4678090000000  0.4414800000000  0.4640230000000 1.0
C      1  0.5005510000000  0.6001500000000  0.4662090000000 1.0
C      1  0.4995030000000  0.4209730000000  0.4320980000000 1.0
C      1  0.5002770000000  0.4799100000000  0.6021370000000 1.0
C      1  0.4918020000000  0.4462220000000  0.5682030000000 1.0
C      1  0.4911210000000  0.5851390000000  0.5111780000000 1.0
C      1  0.4907330000000  0.4680900000000  0.4233860000000 1.0
C      1  0.5466370000000  0.5736060000000  0.5180530000000 1.0
C      1  0.5459190000000  0.4790890000000  0.4272070000000 1.0
C      1  0.5462440000000  0.4468230000000  0.5539690000000 1.0
C      1  0.4813410000000  0.5151670000000  0.5474310000000 1.0
C      1  0.4797390000000  0.5338430000000  0.4617490000000 1.0
C      1  0.4813890000000  0.4470250000000  0.4897690000000 1.0
C      1  0.5853950000000  0.4882590000000  0.4744060000000 1.0
C      1  0.5861760000000  0.4832260000000  0.5240800000000 1.0
C      1  0.5890500000000  0.5295690000000  0.5040130000000 1.0
C      1  0.5398680000000  0.4862090000000  0.5764280000000 1.0
C      1  0.5413940000000  0.5767160000000  0.4729550000000 1.0
C      1  0.5393020000000  0.4403450000000  0.4506160000000 1.0
C      1  0.4377980000000  0.5541250000000  0.4642340000000 1.0
C      1  0.4383790000000  0.4441020000000  0.4729140000000 1.0
C      1  0.4390370000000  0.5027010000000  0.5616010000000 1.0
C      1  0.4871430000000  0.4917890000000  0.5187300000000 1.0
C      1  0.4922750000000  0.5223600000000  0.4856570000000 1.0
C      1  0.4894090000000  0.4921510000000  0.4883830000000 1.0
C      1  0.5261430000000  0.4710990000000  0.5985220000000 1.0
C      1  0.5264260000000  0.6021750000000  0.4765370000000 1.0
C      1  0.5251710000000  0.4292080000000  0.4263790000000 1.0
C      1  0.5506630000000  0.5563310000000  0.5588390000000 1.0
C      1  0.5483810000000  0.5234370000000  0.4318470000000 1.0
C      1  0.5508570000000  0.4195910000000  0.5195730000000 1.0
C      1  0.5052310000000  0.5500700000000  0.5793720000000 1.0
C      1  0.5049100000000  0.5453030000000  0.4173220000000 1.0
C      1  0.5050830000000  0.4039020000000  0.5039220000000 1.0
C      1  0.5393520000000  0.5686370000000  0.4438220000000 1.0
C      1  0.5384310000000  0.4188760000000  0.4717880000000 1.0
C      1  0.5383460000000  0.5153560000000  0.5835570000000 1.0
C      1  0.4484680000000  0.4916160000000  0.4876950000000 1.0
C      1  0.4497870000000  0.4862940000000  0.5172710000000 1.0
C      1  0.4475150000000  0.5213190000000  0.4951760000000 1.0
C      1  0.5212580000000  0.5568470000000  0.4856380000000 1.0
C      1  0.5179590000000  0.4625110000000  0.4598590000000 1.0
C      1  0.5187600000000  0.4830150000000  0.5529810000000 1.0
C      1  0.5042160000000  0.6029630000000  0.4943980000000 1.0
C      1  0.5036370000000  0.4444750000000  0.4159780000000 1.0
C      1  0.5053240000000  0.4535640000000  0.5911040000000 1.0
C      1  0.5055400000000  0.4650410000000  0.4875110000000 1.0
C      1  0.5064190000000  0.5058200000000  0.5364600000000 1.0
C      1  0.5152790000000  0.5318490000000  0.4722940000000 1.0
C      1  0.4056380000000  0.5158180000000  0.4962640000000 1.0
C      1  0.4063460000000  0.4887890000000  0.4896440000000 1.0
C      1  0.4062870000000  0.4965550000000  0.5160520000000 1.0
C      1  0.4416040000000  0.4538790000000  0.5618030000000 1.0
C      1  0.4424800000000  0.5755140000000  0.5066180000000 1.0
C      1  0.4409150000000  0.4686990000000  0.4322670000000 1.0
C      1  0.5226130000000  0.5547420000000  0.5155400000000 1.0
C      1  0.5229250000000  0.4875120000000  0.4450900000000 1.0
C      1  0.5219150000000  0.4572310000000  0.5386600000000 1.0
C      1  0.5760200000000  0.4744060000000  0.4981910000000 1.0
C      1  0.5773490000000  0.5108420000000  0.5224360000000 1.0
C      1  0.5809290000000  0.5161690000000  0.4791080000000 1.0
C      1  0.5661050000000  0.5639480000000  0.5356480000000 1.0
C      1  0.5654050000000  0.4992350000000  0.4286790000000 1.0
C      1  0.5662390000000  0.4364380000000  0.5374680000000 1.0
C      1  0.5602600000000  0.4584190000000  0.4409800000000 1.0
C      1  0.5607220000000  0.4687680000000  0.5656130000000 1.0
C      1  0.5622010000000  0.5728500000000  0.4936110000000 1.0
C      1  0.5517700000000  0.5133300000000  0.4819900000000 1.0
C      1  0.5475910000000  0.4812760000000  0.5029740000000 1.0
C      1  0.5478610000000  0.5097760000000  0.5113920000000 1.0
END
