TITL C-127511-398-8 -168.831031102542 125000 -504.98355430737 0 0 74 (C1) n - 1
REM
REM in /rds/project/t2_vol4/rds-t2-cs072/BORA/CARBON/from-Arr/AIRSS/Generating-Clusters/GAP-ML-2020/Higher-Symm/SD-CG/HFTN-CG
REM
REM
REM
REM
REM
REM ./C.cell (b20cbc046b6831c77cfcea5457e17084)
REM AIRSS Version 0.9.1 bugfix July 2018 build 013d7b7c2542+ Fri, 06 Jul 2018 19:26:36 +0100
REM compiler GCC version 9.3.0
REM options -cpp -mtune=generic -march=x86-64 -g -O0
REM seed -1137834345 -1867174172 1223994450 -1234551829 2060471050 4825492 1696281154 1264742389 1967754817 1776491391 1129345351 341140996 -565605406 1339362521 -1975993054 -1934545491 399445771 -1712023723 145454921 -1396960795 71392338 1833788500 398205926 1884458073 495029612 -2054171419 264968314 468571274 -2077549748 277752532 1770059296 -1107396016 -535737235
REM
CELL 1.54180   50.00000   50.00000   50.00000   90.00000   90.00000   90.00000
LATT -1
SFAC C  
C      1  0.4800140000000  0.5497930000000  0.5392980000000 1.0
C      1  0.5579290000000  0.5043370000000  0.5035520000000 1.0
C      1  0.4957580000000  0.4734610000000  0.4209770000000 1.0
C      1  0.5487580000000  0.5575590000000  0.5160360000000 1.0
C      1  0.4770150000000  0.4820180000000  0.4987510000000 1.0
C      1  0.4839970000000  0.5417450000000  0.4496180000000 1.0
C      1  0.5128680000000  0.4588460000000  0.4013510000000 1.0
C      1  0.5143150000000  0.4264290000000  0.5278090000000 1.0
C      1  0.5451170000000  0.5255260000000  0.5486370000000 1.0
C      1  0.4495460000000  0.5088710000000  0.5437340000000 1.0
C      1  0.4427430000000  0.4639600000000  0.5226920000000 1.0
C      1  0.5218310000000  0.4815390000000  0.4848740000000 1.0
C      1  0.4496790000000  0.5888170000000  0.4711860000000 1.0
C      1  0.4679660000000  0.4573510000000  0.5390430000000 1.0
C      1  0.4815480000000  0.4293240000000  0.4818650000000 1.0
C      1  0.4885560000000  0.5170110000000  0.5735850000000 1.0
C      1  0.4852220000000  0.5093140000000  0.5145440000000 1.0
C      1  0.5399710000000  0.4633550000000  0.4451010000000 1.0
C      1  0.4992660000000  0.5017200000000  0.4260320000000 1.0
C      1  0.5308440000000  0.5347460000000  0.4458040000000 1.0
C      1  0.4907630000000  0.4615920000000  0.5141820000000 1.0
C      1  0.4970120000000  0.5407330000000  0.5601790000000 1.0
C      1  0.5310100000000  0.4572950000000  0.4198010000000 1.0
C      1  0.5154410000000  0.5637940000000  0.4772670000000 1.0
C      1  0.5398900000000  0.5541170000000  0.4881730000000 1.0
C      1  0.5102050000000  0.5069950000000  0.5864370000000 1.0
C      1  0.4572980000000  0.4721370000000  0.4495270000000 1.0
C      1  0.5458660000000  0.5318960000000  0.4701980000000 1.0
C      1  0.5255820000000  0.4522450000000  0.4690910000000 1.0
C      1  0.5392830000000  0.4321880000000  0.4865170000000 1.0
C      1  0.5099950000000  0.5524030000000  0.4515680000000 1.0
C      1  0.4738140000000  0.5920160000000  0.4800340000000 1.0
C      1  0.4916930000000  0.5698280000000  0.5218540000000 1.0
C      1  0.4745210000000  0.5428320000000  0.4778350000000 1.0
C      1  0.4434620000000  0.4352440000000  0.5122790000000 1.0
C      1  0.5067820000000  0.4653100000000  0.5650460000000 1.0
C      1  0.4555760000000  0.5012760000000  0.4503780000000 1.0
C      1  0.4649820000000  0.5281970000000  0.5291060000000 1.0
C      1  0.5190700000000  0.4462680000000  0.5487010000000 1.0
C      1  0.5590650000000  0.4788180000000  0.5418940000000 1.0
C      1  0.5382420000000  0.4339110000000  0.5128560000000 1.0
C      1  0.5267790000000  0.5093850000000  0.4339760000000 1.0
C      1  0.4384570000000  0.5144900000000  0.4719080000000 1.0
C      1  0.4450960000000  0.4584130000000  0.4711600000000 1.0
C      1  0.4476940000000  0.4755970000000  0.4944430000000 1.0
C      1  0.4899120000000  0.4304510000000  0.5116350000000 1.0
C      1  0.5471530000000  0.5020600000000  0.4762260000000 1.0
C      1  0.4886080000000  0.5687300000000  0.4909320000000 1.0
C      1  0.5334170000000  0.5158620000000  0.5207320000000 1.0
C      1  0.4686190000000  0.4985730000000  0.5634110000000 1.0
C      1  0.5110300000000  0.5866880000000  0.5334360000000 1.0
C      1  0.5466420000000  0.4970990000000  0.5593720000000 1.0
C      1  0.4950760000000  0.4936720000000  0.4783020000000 1.0
C      1  0.5800680000000  0.5191180000000  0.5176730000000 1.0
C      1  0.4321620000000  0.4997690000000  0.4959960000000 1.0
C      1  0.5103880000000  0.5006280000000  0.5266150000000 1.0
C      1  0.5657020000000  0.5395560000000  0.5317110000000 1.0
C      1  0.4771820000000  0.5166110000000  0.4371760000000 1.0
C      1  0.5441880000000  0.4911040000000  0.4483860000000 1.0
C      1  0.4343760000000  0.5673960000000  0.4691360000000 1.0
C      1  0.4332340000000  0.4935250000000  0.5258010000000 1.0
C      1  0.5392500000000  0.4591200000000  0.5305100000000 1.0
C      1  0.5237440000000  0.4875310000000  0.5737000000000 1.0
C      1  0.5766350000000  0.4923530000000  0.5231950000000 1.0
C      1  0.4914880000000  0.5202440000000  0.4887590000000 1.0
C      1  0.4819120000000  0.4595930000000  0.4419510000000 1.0
C      1  0.4440740000000  0.5425590000000  0.4746000000000 1.0
C      1  0.4786180000000  0.4716470000000  0.5612140000000 1.0
C      1  0.4654620000000  0.4292170000000  0.5290750000000 1.0
C      1  0.5171510000000  0.4746380000000  0.5153410000000 1.0
C      1  0.5290360000000  0.5665660000000  0.5353370000000 1.0
C      1  0.4528670000000  0.4339130000000  0.4833930000000 1.0
C      1  0.4964210000000  0.4432010000000  0.4617460000000 1.0
C      1  0.5250630000000  0.5458760000000  0.5557410000000 1.0
END
