TITL C-122802-4719-8 -0.0404112660263058 125000 -218.212774789034 0 0 33 (C3) n - 1
REM
REM in /rds/project/t2_vol4/rds-t2-cs072/BORA/CARBON/from-Arr/AIRSS/Generating-Clusters/GAP-ML-2020/Higher-Symm/SD-CG/HFTN-CG
REM
REM
REM
REM
REM
REM ./C.cell (b20cbc046b6831c77cfcea5457e17084)
REM AIRSS Version 0.9.1 bugfix July 2018 build 013d7b7c2542+ Fri, 06 Jul 2018 19:26:36 +0100
REM compiler GCC version 9.3.0
REM options -cpp -mtune=generic -march=x86-64 -g -O0
REM seed 1880862650 600168395 -1699394701 -1456610376 2078719181 468280403 -1802464790 1222757120 -1250622613 -256017686 -773929259 -229671306 -997483568 -657193036 836587864 341530005 -243806512 -706032069 886499008 1935808599 1219785205 694684946 -259624501 70076690 193382214 -1427155393 1069923704 -677811305 855133583 1202494154 -69105417 -542426205 -821271726
REM
CELL 1.54180   50.00000   50.00000   50.00000   90.00000   90.00000   90.00000
LATT -1
SFAC C  
C      1  0.4425950000000  0.4891330000000  0.4728950000000 1.0
C      1  0.5387190000000  0.4555840000000  0.4739860000000 1.0
C      1  0.5197050000000  0.5556090000000  0.4741520000000 1.0
C      1  0.4583200000000  0.4875520000000  0.5294300000000 1.0
C      1  0.5309460000000  0.4702720000000  0.5302870000000 1.0
C      1  0.5095930000000  0.5418110000000  0.5303070000000 1.0
C      1  0.4583870000000  0.5112150000000  0.4667580000000 1.0
C      1  0.5310320000000  0.5310000000000  0.4677670000000 1.0
C      1  0.5118460000000  0.4581900000000  0.4672240000000 1.0
C      1  0.4410460000000  0.5094710000000  0.5282440000000 1.0
C      1  0.5372270000000  0.5458300000000  0.5296220000000 1.0
C      1  0.5206260000000  0.4443480000000  0.5289950000000 1.0
C      1  0.5572910000000  0.4587500000000  0.4903640000000 1.0
C      1  0.5073100000000  0.5701910000000  0.4901810000000 1.0
C      1  0.4357990000000  0.4711870000000  0.4888620000000 1.0
C      1  0.5518690000000  0.4774340000000  0.5118670000000 1.0
C      1  0.4933540000000  0.5562600000000  0.5114410000000 1.0
C      1  0.4543540000000  0.4661710000000  0.5105750000000 1.0
C      1  0.5514850000000  0.5231470000000  0.4861660000000 1.0
C      1  0.4945360000000  0.4440900000000  0.4851150000000 1.0
C      1  0.4545480000000  0.5329450000000  0.4849680000000 1.0
C      1  0.5526510000000  0.5311680000000  0.5137180000000 1.0
C      1  0.5004700000000  0.4385960000000  0.5126730000000 1.0
C      1  0.4463940000000  0.5300800000000  0.5123560000000 1.0
C      1  0.5115050000000  0.4891640000000  0.5417150000000 1.0
C      1  0.5026910000000  0.5155860000000  0.5417100000000 1.0
C      1  0.4842180000000  0.4947420000000  0.5413890000000 1.0
C      1  0.5043900000000  0.4846010000000  0.4571340000000 1.0
C      1  0.5121180000000  0.5112880000000  0.4573420000000 1.0
C      1  0.4851440000000  0.5046390000000  0.4569700000000 1.0
C      1  0.5576930000000  0.5043170000000  0.5053430000000 1.0
C      1  0.4748270000000  0.4477990000000  0.5040530000000 1.0
C      1  0.4673140000000  0.5478300000000  0.5043660000000 1.0
END
