TITL C-122875-6501-9 45.5602175139324 125000 -531.987413857778 0 0 76 (C1) n - 1
REM
REM in /rds/project/t2_vol4/rds-t2-cs072/BORA/CARBON/from-Arr/AIRSS/Generating-Clusters/GAP-ML-2020/Higher-Symm/SD-CG/HFTN-CG
REM
REM
REM
REM
REM
REM ./C.cell (b20cbc046b6831c77cfcea5457e17084)
REM AIRSS Version 0.9.1 bugfix July 2018 build 013d7b7c2542+ Fri, 06 Jul 2018 19:26:36 +0100
REM compiler GCC version 9.3.0
REM options -cpp -mtune=generic -march=x86-64 -g -O0
REM seed -93499559 2056259851 1576593381 -211811214 780938709 102758281 1664158655 -1751720952 496638434 1736039179 1767793997 -1849044745 151440052 -252376505 1220725001 -216771006 745975651 1795288041 -1282151160 -724249779 -1762866200 -359819529 -654441459 2057070343 1145716021 -2031891250 392528713 -52563621 1242492635 -2100318169 -253622695 -754606956 1454464230
REM
CELL 1.54180   50.00000   50.00000   50.00000   90.00000   90.00000   90.00000
LATT -1
SFAC C  
C      1  0.4690110000000  0.5469450000000  0.4268130000000 1.0
C      1  0.4288140000000  0.4707900000000  0.5536850000000 1.0
C      1  0.5528900000000  0.4289920000000  0.4708370000000 1.0
C      1  0.5322550000000  0.5553960000000  0.5676090000000 1.0
C      1  0.4716570000000  0.4497090000000  0.5679290000000 1.0
C      1  0.5275700000000  0.4479910000000  0.4342920000000 1.0
C      1  0.5708300000000  0.4676830000000  0.4465590000000 1.0
C      1  0.4281900000000  0.5244760000000  0.4456880000000 1.0
C      1  0.5724260000000  0.5356780000000  0.5476120000000 1.0
C      1  0.4424230000000  0.4264730000000  0.5353180000000 1.0
C      1  0.5507390000000  0.5741490000000  0.5254250000000 1.0
C      1  0.4462440000000  0.5676060000000  0.4648770000000 1.0
C      1  0.4266610000000  0.5486280000000  0.4640120000000 1.0
C      1  0.5487620000000  0.4680710000000  0.4298610000000 1.0
C      1  0.4655020000000  0.4266190000000  0.5536530000000 1.0
C      1  0.5717900000000  0.5557670000000  0.5258040000000 1.0
C      1  0.5727580000000  0.4480010000000  0.4684750000000 1.0
C      1  0.4245990000000  0.4471160000000  0.5360850000000 1.0
C      1  0.4515880000000  0.4712940000000  0.5697870000000 1.0
C      1  0.4507950000000  0.5242190000000  0.4298240000000 1.0
C      1  0.5541910000000  0.5351780000000  0.5681890000000 1.0
C      1  0.5289530000000  0.4282050000000  0.4534600000000 1.0
C      1  0.5299880000000  0.5726580000000  0.5463530000000 1.0
C      1  0.4664500000000  0.5690030000000  0.4435540000000 1.0
C      1  0.5761970000000  0.5343590000000  0.5063350000000 1.0
C      1  0.5091760000000  0.5707310000000  0.5258070000000 1.0
C      1  0.5340260000000  0.5138960000000  0.5670090000000 1.0
C      1  0.4253000000000  0.5296880000000  0.4848630000000 1.0
C      1  0.5741370000000  0.4704690000000  0.4875760000000 1.0
C      1  0.4225680000000  0.4644670000000  0.5131200000000 1.0
C      1  0.4875180000000  0.5712780000000  0.4637890000000 1.0
C      1  0.5108790000000  0.4292050000000  0.4770300000000 1.0
C      1  0.4828590000000  0.4179870000000  0.5316950000000 1.0
C      1  0.4742130000000  0.5078720000000  0.4364830000000 1.0
C      1  0.5297430000000  0.4902260000000  0.4338560000000 1.0
C      1  0.4730090000000  0.4910410000000  0.5709840000000 1.0
C      1  0.5128820000000  0.5337900000000  0.5668730000000 1.0
C      1  0.5297600000000  0.5758890000000  0.5052930000000 1.0
C      1  0.5738750000000  0.5143500000000  0.5278030000000 1.0
C      1  0.4922410000000  0.5296530000000  0.4305850000000 1.0
C      1  0.4934090000000  0.4697940000000  0.5670840000000 1.0
C      1  0.5094260000000  0.4700520000000  0.4395910000000 1.0
C      1  0.4677770000000  0.5675560000000  0.4851910000000 1.0
C      1  0.4603000000000  0.4229260000000  0.5125350000000 1.0
C      1  0.5353960000000  0.4301560000000  0.4939100000000 1.0
C      1  0.4232620000000  0.5065250000000  0.4674720000000 1.0
C      1  0.4244170000000  0.4884150000000  0.5303660000000 1.0
C      1  0.5728960000000  0.4895690000000  0.4658500000000 1.0
C      1  0.4866730000000  0.4451380000000  0.4764010000000 1.0
C      1  0.4756710000000  0.4929370000000  0.4619710000000 1.0
C      1  0.4391620000000  0.4607190000000  0.4899840000000 1.0
C      1  0.5077420000000  0.4245940000000  0.5329040000000 1.0
C      1  0.4872360000000  0.5521110000000  0.5281700000000 1.0
C      1  0.5132950000000  0.5603220000000  0.4605400000000 1.0
C      1  0.5372770000000  0.4906050000000  0.5513790000000 1.0
C      1  0.4694060000000  0.5171040000000  0.5608180000000 1.0
C      1  0.5362840000000  0.5154780000000  0.4458880000000 1.0
C      1  0.5596850000000  0.4696100000000  0.5119790000000 1.0
C      1  0.4493220000000  0.5253220000000  0.5025540000000 1.0
C      1  0.5687780000000  0.5361030000000  0.4792180000000 1.0
C      1  0.4617230000000  0.4418530000000  0.4913850000000 1.0
C      1  0.4611800000000  0.5018390000000  0.4849840000000 1.0
C      1  0.4901160000000  0.4688490000000  0.4600260000000 1.0
C      1  0.5420000000000  0.4478240000000  0.5152530000000 1.0
C      1  0.5337980000000  0.5690490000000  0.4783570000000 1.0
C      1  0.4676200000000  0.5495800000000  0.5073440000000 1.0
C      1  0.5580790000000  0.4908720000000  0.5308030000000 1.0
C      1  0.5603820000000  0.5144220000000  0.4622750000000 1.0
C      1  0.4361200000000  0.5135990000000  0.5270170000000 1.0
C      1  0.5182350000000  0.4693350000000  0.5533540000000 1.0
C      1  0.5161820000000  0.5363920000000  0.4444390000000 1.0
C      1  0.4892670000000  0.5353060000000  0.5521460000000 1.0
C      1  0.4439900000000  0.5223060000000  0.5515170000000 1.0
C      1  0.5597830000000  0.5614660000000  0.4726930000000 1.0
C      1  0.5233940000000  0.4467630000000  0.5363770000000 1.0
C      1  0.4400690000000  0.4848840000000  0.4755270000000 1.0
END
