TITL C-126800-9188-3 63.8216710081947 125000 -773.649351549312 0 0 109 (C1) n - 1
REM
REM in /rds/project/t2_vol4/rds-t2-cs072/BORA/CARBON/from-Arr/AIRSS/Generating-Clusters/GAP-ML-2020/Higher-Symm/SD-CG/HFTN-CG
REM
REM
REM
REM
REM
REM ./C.cell (b20cbc046b6831c77cfcea5457e17084)
REM AIRSS Version 0.9.1 bugfix July 2018 build 013d7b7c2542+ Fri, 06 Jul 2018 19:26:36 +0100
REM compiler GCC version 9.3.0
REM options -cpp -mtune=generic -march=x86-64 -g -O0
REM seed -680314049 -390631052 -1858456937 -377038636 -376662241 2015203782 -330388977 -1366226414 796580017 249511981 -1652156632 1365145796 -2043747694 -2129900572 -885082094 1082257708 1897425662 1178282620 159193706 2005587917 -1539193020 -433849218 -1153177046 -1900484234 -1047761824 -1194625384 1532288152 947708579 1902264244 -86714846 979873353 -1743864297 -408083272
REM
CELL 1.54180   50.00000   50.00000   50.00000   90.00000   90.00000   90.00000
LATT -1
SFAC C  
C      1  0.4539830000000  0.5329590000000  0.4318870000000 1.0
C      1  0.5434770000000  0.4665400000000  0.5657100000000 1.0
C      1  0.4982890000000  0.4597700000000  0.4185680000000 1.0
C      1  0.5002030000000  0.5406460000000  0.5805370000000 1.0
C      1  0.4861340000000  0.5064290000000  0.4131740000000 1.0
C      1  0.5109690000000  0.4934820000000  0.5843890000000 1.0
C      1  0.5732490000000  0.5094770000000  0.4482520000000 1.0
C      1  0.4249580000000  0.4893810000000  0.5519610000000 1.0
C      1  0.4147680000000  0.5311460000000  0.4938720000000 1.0
C      1  0.5842230000000  0.4671050000000  0.5052270000000 1.0
C      1  0.4186370000000  0.5135200000000  0.5378180000000 1.0
C      1  0.5817480000000  0.4857880000000  0.4618040000000 1.0
C      1  0.4447370000000  0.4824280000000  0.5725370000000 1.0
C      1  0.5533210000000  0.5162460000000  0.4271860000000 1.0
C      1  0.4906770000000  0.5142880000000  0.5859930000000 1.0
C      1  0.5070470000000  0.4857840000000  0.4119800000000 1.0
C      1  0.5275320000000  0.5253860000000  0.5246010000000 1.0
C      1  0.4716300000000  0.4760730000000  0.4837520000000 1.0
C      1  0.4700580000000  0.4929350000000  0.5825900000000 1.0
C      1  0.5278360000000  0.5068920000000  0.4167420000000 1.0
C      1  0.5558900000000  0.5353890000000  0.5366750000000 1.0
C      1  0.4447490000000  0.4666780000000  0.4658860000000 1.0
C      1  0.5652090000000  0.4550090000000  0.5498220000000 1.0
C      1  0.4333160000000  0.5443180000000  0.4499060000000 1.0
C      1  0.4547240000000  0.4244800000000  0.4891850000000 1.0
C      1  0.5445520000000  0.5759090000000  0.5109790000000 1.0
C      1  0.4696820000000  0.4580860000000  0.4259640000000 1.0
C      1  0.5291370000000  0.5428850000000  0.5741560000000 1.0
C      1  0.5309410000000  0.4912410000000  0.4914140000000 1.0
C      1  0.4614050000000  0.5287150000000  0.5048350000000 1.0
C      1  0.4746850000000  0.5539340000000  0.4308660000000 1.0
C      1  0.5235610000000  0.4455840000000  0.5675770000000 1.0
C      1  0.4989150000000  0.4582630000000  0.4817420000000 1.0
C      1  0.5023930000000  0.5434940000000  0.5207120000000 1.0
C      1  0.5659950000000  0.5548270000000  0.4690850000000 1.0
C      1  0.4316030000000  0.4436230000000  0.5316030000000 1.0
C      1  0.5265170000000  0.5192390000000  0.4948130000000 1.0
C      1  0.4777480000000  0.4770020000000  0.5150540000000 1.0
C      1  0.5795840000000  0.5299810000000  0.4668990000000 1.0
C      1  0.4179480000000  0.4685660000000  0.5339510000000 1.0
C      1  0.5196170000000  0.5689120000000  0.4494380000000 1.0
C      1  0.4788990000000  0.4300010000000  0.5502610000000 1.0
C      1  0.4460000000000  0.4540220000000  0.5748560000000 1.0
C      1  0.5526710000000  0.5447010000000  0.4252140000000 1.0
C      1  0.4951270000000  0.4472000000000  0.5690220000000 1.0
C      1  0.5031730000000  0.5524960000000  0.4296520000000 1.0
C      1  0.4809860000000  0.4157250000000  0.4982510000000 1.0
C      1  0.5185010000000  0.5851610000000  0.5015260000000 1.0
C      1  0.4527270000000  0.4785780000000  0.4358400000000 1.0
C      1  0.5469260000000  0.5230090000000  0.5644320000000 1.0
C      1  0.4778340000000  0.5284040000000  0.4817410000000 1.0
C      1  0.5257140000000  0.4772340000000  0.5163000000000 1.0
C      1  0.4777320000000  0.5275680000000  0.5285020000000 1.0
C      1  0.5208360000000  0.4761080000000  0.4683130000000 1.0
C      1  0.5644760000000  0.5603250000000  0.4972170000000 1.0
C      1  0.4341510000000  0.4389740000000  0.5033930000000 1.0
C      1  0.4890390000000  0.5640550000000  0.5679500000000 1.0
C      1  0.5098270000000  0.4368620000000  0.4315790000000 1.0
C      1  0.5492040000000  0.5648790000000  0.5378610000000 1.0
C      1  0.4510720000000  0.4372060000000  0.4632240000000 1.0
C      1  0.4906530000000  0.4155020000000  0.5265670000000 1.0
C      1  0.5082830000000  0.5843890000000  0.4730240000000 1.0
C      1  0.4312790000000  0.5381220000000  0.5385020000000 1.0
C      1  0.5692510000000  0.4605850000000  0.4612220000000 1.0
C      1  0.5007740000000  0.4240220000000  0.4762360000000 1.0
C      1  0.4990000000000  0.5778250000000  0.5241200000000 1.0
C      1  0.4541390000000  0.5833460000000  0.4820510000000 1.0
C      1  0.5450720000000  0.4171070000000  0.5169740000000 1.0
C      1  0.5863330000000  0.5194630000000  0.4931450000000 1.0
C      1  0.4122170000000  0.4797900000000  0.5076450000000 1.0
C      1  0.5562540000000  0.4289530000000  0.5410740000000 1.0
C      1  0.4427730000000  0.5702960000000  0.4586290000000 1.0
C      1  0.5713660000000  0.4472860000000  0.4864590000000 1.0
C      1  0.4348920000000  0.5475720000000  0.5105010000000 1.0
C      1  0.5306630000000  0.4219870000000  0.4715780000000 1.0
C      1  0.4690710000000  0.5794960000000  0.5278150000000 1.0
C      1  0.5314810000000  0.4227780000000  0.5542390000000 1.0
C      1  0.4672200000000  0.5764730000000  0.4450660000000 1.0
C      1  0.5894140000000  0.4911180000000  0.4890120000000 1.0
C      1  0.4099790000000  0.5081120000000  0.5108840000000 1.0
C      1  0.5830680000000  0.4667340000000  0.5326180000000 1.0
C      1  0.4146710000000  0.5328090000000  0.4666800000000 1.0
C      1  0.4563630000000  0.5410090000000  0.5500610000000 1.0
C      1  0.5433890000000  0.4600690000000  0.4504610000000 1.0
C      1  0.5751220000000  0.5373010000000  0.5130780000000 1.0
C      1  0.4239620000000  0.4624450000000  0.4880470000000 1.0
C      1  0.5028450000000  0.4613700000000  0.5109540000000 1.0
C      1  0.5040190000000  0.5377900000000  0.4906880000000 1.0
C      1  0.5189890000000  0.4120440000000  0.5307770000000 1.0
C      1  0.4802020000000  0.5880100000000  0.4679350000000 1.0
C      1  0.4914640000000  0.4228540000000  0.4477000000000 1.0
C      1  0.5078740000000  0.5790120000000  0.5530220000000 1.0
C      1  0.4650880000000  0.5668050000000  0.5536620000000 1.0
C      1  0.5339130000000  0.4345390000000  0.4457190000000 1.0
C      1  0.5324630000000  0.5677380000000  0.5594820000000 1.0
C      1  0.4666890000000  0.4336480000000  0.4413360000000 1.0
C      1  0.4887660000000  0.5008460000000  0.5277250000000 1.0
C      1  0.5035890000000  0.4949950000000  0.4567950000000 1.0
C      1  0.5513280000000  0.4259960000000  0.4910240000000 1.0
C      1  0.4490870000000  0.5743550000000  0.5080100000000 1.0
C      1  0.4513140000000  0.4379870000000  0.5526110000000 1.0
C      1  0.5469010000000  0.5602850000000  0.4478640000000 1.0
C      1  0.4599560000000  0.5052570000000  0.4248950000000 1.0
C      1  0.5334910000000  0.4951750000000  0.5652760000000 1.0
C      1  0.5183490000000  0.4988220000000  0.5360120000000 1.0
C      1  0.4825260000000  0.5013550000000  0.4735350000000 1.0
C      1  0.5068040000000  0.5272890000000  0.4170300000000 1.0
C      1  0.4910370000000  0.4724350000000  0.5814140000000 1.0
C      1  0.4995460000000  0.5034620000000  0.4984690000000 1.0
END
