TITL C-122898-6421-4 73.8402905756722 125000 -348.019196752811 0 0 50 (Cs) n - 1
REM
REM in /rds/project/t2_vol4/rds-t2-cs072/BORA/CARBON/from-Arr/AIRSS/Generating-Clusters/GAP-ML-2020/Higher-Symm/SD-CG/HFTN-CG
REM
REM
REM
REM
REM
REM ./C.cell (b20cbc046b6831c77cfcea5457e17084)
REM AIRSS Version 0.9.1 bugfix July 2018 build 013d7b7c2542+ Fri, 06 Jul 2018 19:26:36 +0100
REM compiler GCC version 9.3.0
REM options -cpp -mtune=generic -march=x86-64 -g -O0
REM seed -405612791 -1074428695 1621340397 1478503354 -1670069473 -880171630 -383938711 -986222249 -978612263 1669164894 -1339809041 -1809706572 84222777 928349479 -152988270 -1049365661 297010567 -320118321 1161585543 -1969236120 -1448485253 2031680815 -21486505 1406267773 -1937073138 123900879 1870808031 -1031838215 -705126977 -1249659635 -1408888305 1607200180 1426977384
REM
CELL 1.54180   50.00000   50.00000   50.00000   90.00000   90.00000   90.00000
LATT -1
SFAC C  
C      1  0.4646160000000  0.4948580000000  0.4871480000000 1.0
C      1  0.4673600000000  0.4954880000000  0.5205780000000 1.0
C      1  0.4950060000000  0.4960370000000  0.5389270000000 1.0
C      1  0.5264580000000  0.4959880000000  0.5283420000000 1.0
C      1  0.5377520000000  0.4954760000000  0.4967550000000 1.0
C      1  0.5210620000000  0.4944030000000  0.4683760000000 1.0
C      1  0.4880850000000  0.4941240000000  0.4640440000000 1.0
C      1  0.4835060000000  0.5199570000000  0.4490290000000 1.0
C      1  0.4522160000000  0.5220740000000  0.4819170000000 1.0
C      1  0.4548660000000  0.5229150000000  0.5274060000000 1.0
C      1  0.4929970000000  0.5237700000000  0.5524370000000 1.0
C      1  0.5363070000000  0.5236040000000  0.5381040000000 1.0
C      1  0.5506280000000  0.5229060000000  0.4948450000000 1.0
C      1  0.5289330000000  0.5203410000000  0.4549970000000 1.0
C      1  0.5444210000000  0.4510470000000  0.4750460000000 1.0
C      1  0.5070130000000  0.4499460000000  0.4504940000000 1.0
C      1  0.4645190000000  0.4503720000000  0.4645500000000 1.0
C      1  0.4489300000000  0.4515620000000  0.5064490000000 1.0
C      1  0.4719660000000  0.4524030000000  0.5449340000000 1.0
C      1  0.5164350000000  0.4527790000000  0.5507760000000 1.0
C      1  0.5486390000000  0.4524050000000  0.5195470000000 1.0
C      1  0.4554580000000  0.4680730000000  0.5282910000000 1.0
C      1  0.4933530000000  0.4687300000000  0.5532710000000 1.0
C      1  0.5364190000000  0.4687580000000  0.5389270000000 1.0
C      1  0.5520430000000  0.4679310000000  0.4962930000000 1.0
C      1  0.5288020000000  0.4664280000000  0.4574660000000 1.0
C      1  0.4838910000000  0.4660480000000  0.4515660000000 1.0
C      1  0.4513900000000  0.4670800000000  0.4830710000000 1.0
C      1  0.4681140000000  0.4286440000000  0.5053010000000 1.0
C      1  0.4826400000000  0.4292760000000  0.5293460000000 1.0
C      1  0.5105350000000  0.4295110000000  0.5330110000000 1.0
C      1  0.5307860000000  0.4291740000000  0.5135340000000 1.0
C      1  0.5281510000000  0.4283020000000  0.4856040000000 1.0
C      1  0.5046040000000  0.4277360000000  0.4702620000000 1.0
C      1  0.4778870000000  0.4278770000000  0.4790020000000 1.0
C      1  0.5271680000000  0.5618890000000  0.4822260000000 1.0
C      1  0.5074240000000  0.5597510000000  0.4402970000000 1.0
C      1  0.4774880000000  0.5614690000000  0.4756990000000 1.0
C      1  0.4678610000000  0.5610100000000  0.5023460000000 1.0
C      1  0.4816730000000  0.5620920000000  0.5271300000000 1.0
C      1  0.5098340000000  0.5623300000000  0.5308300000000 1.0
C      1  0.5295940000000  0.5615320000000  0.5104560000000 1.0
C      1  0.4712290000000  0.5394440000000  0.5435280000000 1.0
C      1  0.5160630000000  0.5398230000000  0.5494170000000 1.0
C      1  0.5477290000000  0.5392280000000  0.5174830000000 1.0
C      1  0.5423160000000  0.5382660000000  0.4724800000000 1.0
C      1  0.5076470000000  0.5328690000000  0.4403260000000 1.0
C      1  0.4657660000000  0.5376180000000  0.4624240000000 1.0
C      1  0.4488990000000  0.5383930000000  0.5045000000000 1.0
C      1  0.5039100000000  0.5682760000000  0.4664930000000 1.0
END
