TITL C-126534-1606-7 0.0322711036196034 125000 -28.29725928376 0 0 5 (D2h) n - 1
REM
REM in /rds/project/t2_vol4/rds-t2-cs072/BORA/CARBON/from-Arr/AIRSS/Generating-Clusters/GAP-ML-2020/Higher-Symm/SD-CG/HFTN-CG
REM
REM
REM
REM
REM
REM ./C.cell (b20cbc046b6831c77cfcea5457e17084)
REM AIRSS Version 0.9.1 bugfix July 2018 build 013d7b7c2542+ Fri, 06 Jul 2018 19:26:36 +0100
REM compiler GCC version 9.3.0
REM options -cpp -mtune=generic -march=x86-64 -g -O0
REM seed -441221039 -99866395 120293406 -1888824192 731603606 1601099584 930329347 166189189 -929297406 428944345 1742763261 214108810 1870992113 440239936 -1583633011 -1551936284 -1812630949 -1237369779 -2146872236 -549569490 -342378099 1192816831 -1315518862 847958568 957459735 909965337 1880401865 -1068599047 1276096507 1781348363 1442899616 1475464757 544981
REM
CELL 1.54180   50.00000   50.00000   50.00000   90.00000   90.00000   90.00000
LATT -1
SFAC C  
C      1  0.4673460000000  0.4871610000000  0.5028200000000 1.0
C      1  0.5187390000000  0.4871530000000  0.5017000000000 1.0
C      1  0.4673500000000  0.5129390000000  0.5028210000000 1.0
C      1  0.5187430000000  0.5129310000000  0.5017000000000 1.0
C      1  0.4930440000000  0.5000460000000  0.5022600000000 1.0
END
