TITL C-126795-9168-8 0.0182017295339076 125000 -98.0502229341202 0 0 16 (Cs) n - 1
REM
REM in /rds/project/t2_vol4/rds-t2-cs072/BORA/CARBON/from-Arr/AIRSS/Generating-Clusters/GAP-ML-2020/Higher-Symm/SD-CG/HFTN-CG
REM
REM
REM
REM
REM
REM ./C.cell (b20cbc046b6831c77cfcea5457e17084)
REM AIRSS Version 0.9.1 bugfix July 2018 build 013d7b7c2542+ Fri, 06 Jul 2018 19:26:36 +0100
REM compiler GCC version 9.3.0
REM options -cpp -mtune=generic -march=x86-64 -g -O0
REM seed -1494751067 -1005465018 1042425838 2089731960 -1388768078 -1422319021 443041078 1353964224 1105186240 -256368590 124555359 1850123042 -432069577 -87686440 -429340824 249905298 1384818609 782354747 -1438605647 -1079932690 -14210277 -1971208909 1270464201 1452078627 -2108038378 1311976935 -1662042383 1846367445 1697597033 1663861330 -1130938244 -1513722735 -302287541
REM
CELL 1.54180   50.00000   50.00000   50.00000   90.00000   90.00000   90.00000
LATT -1
SFAC C  
C      1  0.4634720000000  0.5258400000000  0.5410660000000 1.0
C      1  0.4548840000000  0.5106270000000  0.5227800000000 1.0
C      1  0.4600100000000  0.5107290000000  0.4691290000000 1.0
C      1  0.4719010000000  0.5260080000000  0.4528580000000 1.0
C      1  0.5283190000000  0.5072840000000  0.4512760000000 1.0
C      1  0.5494530000000  0.5082250000000  0.4688300000000 1.0
C      1  0.5426530000000  0.5080890000000  0.5400020000000 1.0
C      1  0.5185770000000  0.5070890000000  0.5532330000000 1.0
C      1  0.5340850000000  0.4937740000000  0.5168030000000 1.0
C      1  0.5096000000000  0.4883210000000  0.5334890000000 1.0
C      1  0.4868490000000  0.4767230000000  0.5264360000000 1.0
C      1  0.4664600000000  0.4890710000000  0.5113030000000 1.0
C      1  0.4692110000000  0.4891250000000  0.4825090000000 1.0
C      1  0.4921020000000  0.4768270000000  0.4714650000000 1.0
C      1  0.5157720000000  0.4884440000000  0.4688910000000 1.0
C      1  0.5366520000000  0.4938250000000  0.4899330000000 1.0
END
