TITL C-123194-8093-9 -24.1079036264452 125000 -217.12116418663 0 0 31 (C1) n - 1
REM
REM in /rds/project/t2_vol4/rds-t2-cs072/BORA/CARBON/from-Arr/AIRSS/Generating-Clusters/GAP-ML-2020/Higher-Symm/SD-CG/HFTN-CG
REM
REM
REM
REM
REM
REM ./C.cell (b20cbc046b6831c77cfcea5457e17084)
REM AIRSS Version 0.9.1 bugfix July 2018 build 013d7b7c2542+ Fri, 06 Jul 2018 19:26:36 +0100
REM compiler GCC version 9.3.0
REM options -cpp -mtune=generic -march=x86-64 -g -O0
REM seed -227441292 1532828994 -1462279883 623542421 -630743703 1206790697 1825232866 -15700670 -639110568 1558627467 1169490681 123946414 50233544 -639608039 17411870 796066476 -1026146708 1775370612 2126213013 -1519610729 648857438 837448594 959340716 444595123 -854681950 1707880310 -861801750 1272148881 960556014 1064864364 -1140727480 -1383255917 -28510429
REM
CELL 1.54180   50.00000   50.00000   50.00000   90.00000   90.00000   90.00000
LATT -1
SFAC C  
C      1  0.4598860000000  0.5089650000000  0.5276480000000 1.0
C      1  0.4517860000000  0.4854380000000  0.4846670000000 1.0
C      1  0.4512200000000  0.4864960000000  0.5139680000000 1.0
C      1  0.4596710000000  0.5070270000000  0.4695800000000 1.0
C      1  0.4682360000000  0.5322970000000  0.4836300000000 1.0
C      1  0.4661400000000  0.4610550000000  0.5153340000000 1.0
C      1  0.4676560000000  0.4604020000000  0.4859150000000 1.0
C      1  0.4693700000000  0.5325050000000  0.5120500000000 1.0
C      1  0.5162120000000  0.4574080000000  0.4896090000000 1.0
C      1  0.5184740000000  0.5415000000000  0.5096950000000 1.0
C      1  0.5167410000000  0.5473430000000  0.4823840000000 1.0
C      1  0.5146390000000  0.4543930000000  0.5177910000000 1.0
C      1  0.5262720000000  0.4901040000000  0.4568010000000 1.0
C      1  0.5246070000000  0.5146990000000  0.5479700000000 1.0
C      1  0.5255260000000  0.5182410000000  0.4502820000000 1.0
C      1  0.5218030000000  0.4862960000000  0.5515330000000 1.0
C      1  0.5379420000000  0.5378370000000  0.4650470000000 1.0
C      1  0.5334830000000  0.4734250000000  0.5290240000000 1.0
C      1  0.5340550000000  0.4802760000000  0.4829630000000 1.0
C      1  0.5359530000000  0.5201930000000  0.5211160000000 1.0
C      1  0.4926100000000  0.4596360000000  0.4731600000000 1.0
C      1  0.4938110000000  0.5414910000000  0.5250220000000 1.0
C      1  0.4909200000000  0.5428560000000  0.4689550000000 1.0
C      1  0.4886830000000  0.4586030000000  0.5312700000000 1.0
C      1  0.4972960000000  0.5251510000000  0.4477440000000 1.0
C      1  0.4930650000000  0.4795030000000  0.5518620000000 1.0
C      1  0.4985280000000  0.4797050000000  0.4528520000000 1.0
C      1  0.4983230000000  0.5258190000000  0.5489550000000 1.0
C      1  0.4784940000000  0.5044770000000  0.5500550000000 1.0
C      1  0.4810150000000  0.5018160000000  0.4494210000000 1.0
C      1  0.5415760000000  0.4930510000000  0.5083960000000 1.0
END
