TITL C-123172-8067-3 38.1748874211209 125000 -400.345581060185 0 0 59 (C1) n - 1
REM
REM in /rds/project/t2_vol4/rds-t2-cs072/BORA/CARBON/from-Arr/AIRSS/Generating-Clusters/GAP-ML-2020/Higher-Symm/SD-CG/HFTN-CG
REM
REM
REM
REM
REM
REM ./C.cell (b20cbc046b6831c77cfcea5457e17084)
REM AIRSS Version 0.9.1 bugfix July 2018 build 013d7b7c2542+ Fri, 06 Jul 2018 19:26:36 +0100
REM compiler GCC version 9.3.0
REM options -cpp -mtune=generic -march=x86-64 -g -O0
REM seed -988712635 1428337408 -826525650 1900028342 905837211 -234801909 -87247570 2044384710 -1828755545 -1645586148 778398931 -1108017264 -1798229070 581501071 336742704 -1502092696 1205646564 1301879620 1555833105 2075996544 -132974074 -779785253 1797100352 156429248 736070113 -1927217809 48773405 -761912047 -1082537790 1453511721 -254818598 -1088470681 1867935649
REM
CELL 1.54180   50.00000   50.00000   50.00000   90.00000   90.00000   90.00000
LATT -1
SFAC C  
C      1  0.5112730000000  0.4859450000000  0.4780380000000 1.0
C      1  0.5031940000000  0.4890780000000  0.5058770000000 1.0
C      1  0.5456060000000  0.4692100000000  0.5303100000000 1.0
C      1  0.5411200000000  0.4705180000000  0.4717210000000 1.0
C      1  0.5209140000000  0.5104630000000  0.5135460000000 1.0
C      1  0.5242740000000  0.5126160000000  0.4828120000000 1.0
C      1  0.5061610000000  0.4562400000000  0.4430080000000 1.0
C      1  0.5058340000000  0.4571690000000  0.5570060000000 1.0
C      1  0.4749530000000  0.5713700000000  0.5148860000000 1.0
C      1  0.4751790000000  0.5716670000000  0.4855830000000 1.0
C      1  0.4384040000000  0.5401960000000  0.4861810000000 1.0
C      1  0.4375950000000  0.5403470000000  0.5145920000000 1.0
C      1  0.5032540000000  0.5754200000000  0.5154540000000 1.0
C      1  0.5035910000000  0.5759850000000  0.4852970000000 1.0
C      1  0.5130680000000  0.4338650000000  0.4855700000000 1.0
C      1  0.5126860000000  0.4340640000000  0.5150790000000 1.0
C      1  0.4391230000000  0.5117300000000  0.4862070000000 1.0
C      1  0.4380350000000  0.5116920000000  0.5153650000000 1.0
C      1  0.4944390000000  0.4409890000000  0.5362550000000 1.0
C      1  0.4952220000000  0.4411370000000  0.4647280000000 1.0
C      1  0.4618810000000  0.5498410000000  0.5271800000000 1.0
C      1  0.4627760000000  0.5494930000000  0.4738440000000 1.0
C      1  0.5713540000000  0.5426640000000  0.4848430000000 1.0
C      1  0.5705830000000  0.5423530000000  0.5169030000000 1.0
C      1  0.4634100000000  0.5019060000000  0.5281990000000 1.0
C      1  0.4656580000000  0.5017590000000  0.4749390000000 1.0
C      1  0.4774110000000  0.5279650000000  0.5356310000000 1.0
C      1  0.4791460000000  0.5277450000000  0.4663110000000 1.0
C      1  0.4463420000000  0.4456920000000  0.5156960000000 1.0
C      1  0.4467780000000  0.4455880000000  0.4863380000000 1.0
C      1  0.4220140000000  0.4619380000000  0.4873550000000 1.0
C      1  0.4215450000000  0.4619090000000  0.5145550000000 1.0
C      1  0.5099640000000  0.5319540000000  0.4631110000000 1.0
C      1  0.5084470000000  0.5302150000000  0.5358180000000 1.0
C      1  0.4860770000000  0.4764910000000  0.5663850000000 1.0
C      1  0.4868870000000  0.4762670000000  0.4357890000000 1.0
C      1  0.5483360000000  0.4957250000000  0.5156910000000 1.0
C      1  0.5500530000000  0.4964360000000  0.4841270000000 1.0
C      1  0.4655170000000  0.4769960000000  0.5469870000000 1.0
C      1  0.4672090000000  0.4771530000000  0.4561100000000 1.0
C      1  0.5272010000000  0.4945410000000  0.4327720000000 1.0
C      1  0.5274760000000  0.4945120000000  0.5691070000000 1.0
C      1  0.5721230000000  0.5139690000000  0.5155940000000 1.0
C      1  0.5742270000000  0.5139470000000  0.4855370000000 1.0
C      1  0.5460650000000  0.5570230000000  0.5153700000000 1.0
C      1  0.5467960000000  0.5574460000000  0.4857370000000 1.0
C      1  0.5213350000000  0.5584200000000  0.4723730000000 1.0
C      1  0.5205960000000  0.5571990000000  0.5280680000000 1.0
C      1  0.4996600000000  0.4989710000000  0.5756830000000 1.0
C      1  0.4999390000000  0.4989620000000  0.4265030000000 1.0
C      1  0.5143070000000  0.5175920000000  0.5617410000000 1.0
C      1  0.5155610000000  0.5189260000000  0.4367900000000 1.0
C      1  0.5398100000000  0.4460350000000  0.4860130000000 1.0
C      1  0.5394730000000  0.4465390000000  0.5149950000000 1.0
C      1  0.4672820000000  0.4510430000000  0.4680530000000 1.0
C      1  0.4663320000000  0.4506910000000  0.5344840000000 1.0
C      1  0.5313430000000  0.4691520000000  0.4444560000000 1.0
C      1  0.5306530000000  0.4703090000000  0.5545240000000 1.0
C      1  0.4761020000000  0.4935750000000  0.5022810000000 1.0
END
