TITL C-127511-398-4 -20.1326010529397 125000 -410.494804103912 0 0 60 (S4) n - 1
REM
REM in /rds/project/t2_vol4/rds-t2-cs072/BORA/CARBON/from-Arr/AIRSS/Generating-Clusters/GAP-ML-2020/Higher-Symm/SD-CG/HFTN-CG
REM
REM
REM
REM
REM
REM ./C.cell (b20cbc046b6831c77cfcea5457e17084)
REM AIRSS Version 0.9.1 bugfix July 2018 build 013d7b7c2542+ Fri, 06 Jul 2018 19:26:36 +0100
REM compiler GCC version 9.3.0
REM options -cpp -mtune=generic -march=x86-64 -g -O0
REM seed 1900349156 -842690505 -1210844986 1787660989 1026754349 2070631908 -1898879821 1286242549 -83196110 -1243615256 -1283794490 1398940042 1854957114 -1904634304 -2050549580 1703290879 1566900703 -278597745 -1324066828 1887847095 213888324 -787585654 -1339540900 -2129796661 1796675488 1367176667 752338119 795707636 -949373828 -2075682190 448301335 -1028446186 983377853
REM
CELL 1.54180   50.00000   50.00000   50.00000   90.00000   90.00000   90.00000
LATT -1
SFAC C  
C      1  0.5433340000000  0.5557090000000  0.4679820000000 1.0
C      1  0.5320170000000  0.4442850000000  0.5433260000000 1.0
C      1  0.4566740000000  0.5557110000000  0.5320250000000 1.0
C      1  0.4679740000000  0.4442950000000  0.4566660000000 1.0
C      1  0.4789990000000  0.5153490000000  0.4978140000000 1.0
C      1  0.5021860000000  0.4846540000000  0.4789970000000 1.0
C      1  0.5210030000000  0.5153460000000  0.5021880000000 1.0
C      1  0.4978120000000  0.4846510000000  0.5210010000000 1.0
C      1  0.5448370000000  0.5380680000000  0.5149210000000 1.0
C      1  0.4850790000000  0.4619260000000  0.5448310000000 1.0
C      1  0.4551690000000  0.5380770000000  0.4850840000000 1.0
C      1  0.5149150000000  0.4619290000000  0.4551640000000 1.0
C      1  0.5017690000000  0.4791650000000  0.4348150000000 1.0
C      1  0.5651860000000  0.5208340000000  0.5017720000000 1.0
C      1  0.4982280000000  0.4791570000000  0.5651830000000 1.0
C      1  0.4348180000000  0.5208440000000  0.4982310000000 1.0
C      1  0.4392840000000  0.5108030000000  0.5239600000000 1.0
C      1  0.4760400000000  0.4892060000000  0.4392820000000 1.0
C      1  0.5607180000000  0.5107970000000  0.4760410000000 1.0
C      1  0.5239590000000  0.4891940000000  0.5607160000000 1.0
C      1  0.4748460000000  0.4963080000000  0.5648810000000 1.0
C      1  0.4351190000000  0.5036970000000  0.4748470000000 1.0
C      1  0.5251530000000  0.4963120000000  0.4351180000000 1.0
C      1  0.5648820000000  0.5036830000000  0.5251540000000 1.0
C      1  0.4975360000000  0.5148870000000  0.5212500000000 1.0
C      1  0.4787500000000  0.4851130000000  0.4975340000000 1.0
C      1  0.5024660000000  0.5148900000000  0.4787520000000 1.0
C      1  0.5212480000000  0.4851100000000  0.5024640000000 1.0
C      1  0.5462300000000  0.5304610000000  0.4593410000000 1.0
C      1  0.5406590000000  0.4695320000000  0.5462260000000 1.0
C      1  0.4537750000000  0.5304630000000  0.5406630000000 1.0
C      1  0.4593360000000  0.4695440000000  0.4537710000000 1.0
C      1  0.5572890000000  0.4772400000000  0.5237900000000 1.0
C      1  0.4762110000000  0.5227520000000  0.5572920000000 1.0
C      1  0.4427080000000  0.4772520000000  0.4762070000000 1.0
C      1  0.5237930000000  0.5227560000000  0.4427110000000 1.0
C      1  0.5268830000000  0.5171870000000  0.5552300000000 1.0
C      1  0.4447690000000  0.4828100000000  0.5268800000000 1.0
C      1  0.4731200000000  0.5171980000000  0.4447720000000 1.0
C      1  0.5552280000000  0.4828050000000  0.4731180000000 1.0
C      1  0.5256250000000  0.5591420000000  0.5113520000000 1.0
C      1  0.4886470000000  0.4408550000000  0.5256160000000 1.0
C      1  0.4743840000000  0.5591470000000  0.4886550000000 1.0
C      1  0.5113440000000  0.4408560000000  0.4743760000000 1.0
C      1  0.5039530000000  0.5567150000000  0.5291180000000 1.0
C      1  0.4708820000000  0.4432850000000  0.5039450000000 1.0
C      1  0.4960560000000  0.5567190000000  0.4708900000000 1.0
C      1  0.5291100000000  0.4432810000000  0.4960480000000 1.0
C      1  0.4533400000000  0.4679320000000  0.5024970000000 1.0
C      1  0.4975040000000  0.5320750000000  0.4533440000000 1.0
C      1  0.5466560000000  0.4679250000000  0.4974990000000 1.0
C      1  0.5025010000000  0.5320690000000  0.5466600000000 1.0
C      1  0.4509770000000  0.5231590000000  0.4602130000000 1.0
C      1  0.5397870000000  0.4768480000000  0.4509730000000 1.0
C      1  0.5490270000000  0.5231460000000  0.5397900000000 1.0
C      1  0.4602100000000  0.4768470000000  0.5490240000000 1.0
C      1  0.5215560000000  0.5624710000000  0.4825630000000 1.0
C      1  0.5174360000000  0.4375260000000  0.5215470000000 1.0
C      1  0.4784540000000  0.5624720000000  0.5174450000000 1.0
C      1  0.4825540000000  0.4375310000000  0.4784450000000 1.0
END
