TITL C-127506-445-3 0.0564740155660723 125000 -234.735826596148 0 0 36 (C3) n - 1
REM
REM in /rds/project/t2_vol4/rds-t2-cs072/BORA/CARBON/from-Arr/AIRSS/Generating-Clusters/GAP-ML-2020/Higher-Symm/SD-CG/HFTN-CG
REM
REM
REM
REM
REM
REM ./C.cell (b20cbc046b6831c77cfcea5457e17084)
REM AIRSS Version 0.9.1 bugfix July 2018 build 013d7b7c2542+ Fri, 06 Jul 2018 19:26:36 +0100
REM compiler GCC version 9.3.0
REM options -cpp -mtune=generic -march=x86-64 -g -O0
REM seed -755497796 -1230538570 358740445 787285112 995110780 464703989 2025183448 1769493645 -1244537128 -2021572884 1091882382 2092634543 928655383 1749050420 -22329258 498939167 -1573442228 1148676034 1427352295 1119917698 -1292049093 -1182379685 995304446 -1168717363 2001596466 -1658597601 177738731 -302575389 -1423733224 -942580642 -632594366 -575929865 255532717
REM
CELL 1.54180   50.00000   50.00000   50.00000   90.00000   90.00000   90.00000
LATT -1
SFAC C  
C      1  0.4881510000000  0.4517400000000  0.5105220000000 1.0
C      1  0.4873670000000  0.5328320000000  0.5366420000000 1.0
C      1  0.4864730000000  0.5148930000000  0.4533580000000 1.0
C      1  0.4867870000000  0.5480070000000  0.5100480000000 1.0
C      1  0.4882970000000  0.4671860000000  0.5369660000000 1.0
C      1  0.4869070000000  0.4842710000000  0.4535090000000 1.0
C      1  0.4692920000000  0.5143580000000  0.5477080000000 1.0
C      1  0.4678750000000  0.5331040000000  0.4639820000000 1.0
C      1  0.4693830000000  0.4512200000000  0.4895970000000 1.0
C      1  0.4697050000000  0.4852480000000  0.5478510000000 1.0
C      1  0.4688310000000  0.4656460000000  0.4643140000000 1.0
C      1  0.4680140000000  0.5477880000000  0.4891210000000 1.0
C      1  0.5571070000000  0.4722620000000  0.4998260000000 1.0
C      1  0.5568240000000  0.5155980000000  0.5236310000000 1.0
C      1  0.5561580000000  0.5145380000000  0.4742020000000 1.0
C      1  0.5562980000000  0.5293420000000  0.4995450000000 1.0
C      1  0.5572390000000  0.4862520000000  0.5237750000000 1.0
C      1  0.5565510000000  0.4868050000000  0.4743380000000 1.0
C      1  0.5340240000000  0.5309190000000  0.4637110000000 1.0
C      1  0.5354820000000  0.4542640000000  0.4910670000000 1.0
C      1  0.5353330000000  0.5162960000000  0.5437790000000 1.0
C      1  0.5348920000000  0.4697020000000  0.4640120000000 1.0
C      1  0.5341730000000  0.5466330000000  0.4906120000000 1.0
C      1  0.5357740000000  0.4851440000000  0.5439320000000 1.0
C      1  0.5123850000000  0.5542910000000  0.5023320000000 1.0
C      1  0.5128020000000  0.4752990000000  0.4517060000000 1.0
C      1  0.5141540000000  0.4709650000000  0.5454200000000 1.0
C      1  0.5139180000000  0.4461070000000  0.5028650000000 1.0
C      1  0.5121040000000  0.5245770000000  0.4514630000000 1.0
C      1  0.5133190000000  0.5298710000000  0.5451300000000 1.0
C      1  0.4381700000000  0.5297740000000  0.4673650000000 1.0
C      1  0.4395530000000  0.4548290000000  0.4910410000000 1.0
C      1  0.4394660000000  0.5128180000000  0.5441120000000 1.0
C      1  0.4390430000000  0.4681660000000  0.4676680000000 1.0
C      1  0.4382990000000  0.5433500000000  0.4906050000000 1.0
C      1  0.4398470000000  0.4859070000000  0.5442440000000 1.0
END
