TITL C-122785-4640-3 -0.0453754248851972 125000 -55.875296114647 0 0 9 (Cs) n - 1
REM
REM in /rds/project/t2_vol4/rds-t2-cs072/BORA/CARBON/from-Arr/AIRSS/Generating-Clusters/GAP-ML-2020/Higher-Symm/SD-CG/HFTN-CG
REM
REM
REM
REM
REM
REM ./C.cell (b20cbc046b6831c77cfcea5457e17084)
REM AIRSS Version 0.9.1 bugfix July 2018 build 013d7b7c2542+ Fri, 06 Jul 2018 19:26:36 +0100
REM compiler GCC version 9.3.0
REM options -cpp -mtune=generic -march=x86-64 -g -O0
REM seed 267354441 438092958 -738512967 -231421283 -1555579065 -63065034 1776372813 1526393543 915374825 -1834601025 517318633 -18340057 -363861856 1052415780 -1664421421 -936530192 -1261066302 1241930340 -1899848519 1820620740 -1250431329 1462231844 -847323174 50190324 1661306930 -1570045832 -591143584 -856689183 1152305430 -554791602 -1848267962 1252025429 871643870
REM
CELL 1.54180   50.00000   50.00000   50.00000   90.00000   90.00000   90.00000
LATT -1
SFAC C  
C      1  0.5000000000000  0.5368820000000  0.4872310000000 1.0
C      1  0.5000000000000  0.5299470000000  0.5119600000000 1.0
C      1  0.5000000000000  0.5174530000000  0.5351230000000 1.0
C      1  0.5000000000000  0.4912160000000  0.5346020000000 1.0
C      1  0.5000000000000  0.4660750000000  0.5260530000000 1.0
C      1  0.5000000000000  0.4665770000000  0.4996890000000 1.0
C      1  0.5000000000000  0.4717320000000  0.4737910000000 1.0
C      1  0.5000000000000  0.4972160000000  0.4673880000000 1.0
C      1  0.5000000000000  0.5229020000000  0.4641640000000 1.0
END
