TITL C-123295-4710-7 -0.23450254587428 125000 -589.993164348208 0 0 85 (C1) n - 1
REM
REM in /rds/project/t2_vol4/rds-t2-cs072/BORA/CARBON/from-Arr/AIRSS/Generating-Clusters/GAP-ML-2020/Higher-Symm/SD-CG/HFTN-CG
REM
REM
REM
REM
REM
REM ./C.cell (b20cbc046b6831c77cfcea5457e17084)
REM AIRSS Version 0.9.1 bugfix July 2018 build 013d7b7c2542+ Fri, 06 Jul 2018 19:26:36 +0100
REM compiler GCC version 9.3.0
REM options -cpp -mtune=generic -march=x86-64 -g -O0
REM seed -2018720979 -218819665 1131309319 599860923 -165055441 -842432989 150099949 -2078657351 -1898434332 -6014271 515823901 225635758 -1341493869 594755814 129619281 -338150269 1654811273 1113626990 -939192433 807303054 -1133960205 -1253075571 10551303 -55418110 644806056 -1828099550 1339732475 -1703319566 247704801 -1762945055 1877788677 -1351160010 152135673
REM
CELL 1.54180   50.00000   50.00000   50.00000   90.00000   90.00000   90.00000
LATT -1
SFAC C  
C      1  0.4747970000000  0.4384080000000  0.4420910000000 1.0
C      1  0.4797790000000  0.4157060000000  0.4829170000000 1.0
C      1  0.5554810000000  0.5563080000000  0.4941150000000 1.0
C      1  0.5214320000000  0.4962380000000  0.5404510000000 1.0
C      1  0.5273300000000  0.5666540000000  0.5413620000000 1.0
C      1  0.4283210000000  0.4676440000000  0.4940280000000 1.0
C      1  0.5775230000000  0.5205440000000  0.5213220000000 1.0
C      1  0.5260000000000  0.4211770000000  0.4871300000000 1.0
C      1  0.4286340000000  0.4661020000000  0.5246130000000 1.0
C      1  0.5593580000000  0.4330680000000  0.5257200000000 1.0
C      1  0.5111060000000  0.4658710000000  0.4286220000000 1.0
C      1  0.4789150000000  0.5788870000000  0.4867640000000 1.0
C      1  0.5510760000000  0.4295430000000  0.4992920000000 1.0
C      1  0.4379620000000  0.4433990000000  0.4842010000000 1.0
C      1  0.4698440000000  0.5114410000000  0.4467310000000 1.0
C      1  0.4935770000000  0.5220680000000  0.5704170000000 1.0
C      1  0.5172710000000  0.5791200000000  0.5172420000000 1.0
C      1  0.5355510000000  0.5538180000000  0.4535360000000 1.0
C      1  0.4314100000000  0.4932850000000  0.4777980000000 1.0
C      1  0.5547230000000  0.5399760000000  0.4708960000000 1.0
C      1  0.4461400000000  0.4924660000000  0.4536250000000 1.0
C      1  0.4429650000000  0.4656900000000  0.5841480000000 1.0
C      1  0.4624570000000  0.4296350000000  0.5230040000000 1.0
C      1  0.5564310000000  0.4548300000000  0.4859140000000 1.0
C      1  0.5184630000000  0.4285360000000  0.4600790000000 1.0
C      1  0.4899220000000  0.4227820000000  0.4575960000000 1.0
C      1  0.5206800000000  0.4907690000000  0.4195510000000 1.0
C      1  0.4891430000000  0.5556700000000  0.4430810000000 1.0
C      1  0.4954310000000  0.5754920000000  0.4635650000000 1.0
C      1  0.5299870000000  0.4663620000000  0.5338530000000 1.0
C      1  0.4820130000000  0.4621390000000  0.4312970000000 1.0
C      1  0.5046860000000  0.5354080000000  0.4820140000000 1.0
C      1  0.4515970000000  0.5689580000000  0.4857700000000 1.0
C      1  0.4349630000000  0.5767430000000  0.5067910000000 1.0
C      1  0.4892030000000  0.5134050000000  0.4719940000000 1.0
C      1  0.5113320000000  0.5581630000000  0.5628780000000 1.0
C      1  0.5675980000000  0.5058480000000  0.5452700000000 1.0
C      1  0.5411050000000  0.5193900000000  0.5537730000000 1.0
C      1  0.5651690000000  0.5457650000000  0.5184820000000 1.0
C      1  0.5445900000000  0.4729140000000  0.5047660000000 1.0
C      1  0.4399530000000  0.5113680000000  0.5363570000000 1.0
C      1  0.4437840000000  0.5568270000000  0.5224210000000 1.0
C      1  0.4913790000000  0.4291900000000  0.5262520000000 1.0
C      1  0.5201490000000  0.5083430000000  0.5143760000000 1.0
C      1  0.5075710000000  0.5317010000000  0.5098830000000 1.0
C      1  0.5735630000000  0.4787450000000  0.5099320000000 1.0
C      1  0.5572480000000  0.4910970000000  0.4534250000000 1.0
C      1  0.4242100000000  0.4887560000000  0.5434010000000 1.0
C      1  0.4868210000000  0.4665520000000  0.5580570000000 1.0
C      1  0.4976810000000  0.4676900000000  0.4792800000000 1.0
C      1  0.5325170000000  0.4966970000000  0.4918010000000 1.0
C      1  0.5473300000000  0.5471470000000  0.5397900000000 1.0
C      1  0.5785030000000  0.5043690000000  0.4986230000000 1.0
C      1  0.4465300000000  0.4468900000000  0.5377760000000 1.0
C      1  0.4330780000000  0.5304580000000  0.5170550000000 1.0
C      1  0.4469170000000  0.5453750000000  0.4696030000000 1.0
C      1  0.4846260000000  0.5492360000000  0.5582890000000 1.0
C      1  0.5569560000000  0.4535190000000  0.5436390000000 1.0
C      1  0.5094460000000  0.4917620000000  0.4741190000000 1.0
C      1  0.5152870000000  0.5434220000000  0.4358290000000 1.0
C      1  0.4553300000000  0.4251550000000  0.4948750000000 1.0
C      1  0.4815460000000  0.4673320000000  0.4995780000000 1.0
C      1  0.5010900000000  0.4177380000000  0.5012850000000 1.0
C      1  0.5208240000000  0.5315800000000  0.5728260000000 1.0
C      1  0.4696830000000  0.4892250000000  0.5095860000000 1.0
C      1  0.5339730000000  0.5756300000000  0.4941040000000 1.0
C      1  0.4277800000000  0.4800660000000  0.5693830000000 1.0
C      1  0.5517620000000  0.4632750000000  0.4587770000000 1.0
C      1  0.5041420000000  0.4514450000000  0.5411610000000 1.0
C      1  0.5235030000000  0.5754940000000  0.4681040000000 1.0
C      1  0.4397710000000  0.5213330000000  0.4887650000000 1.0
C      1  0.5235740000000  0.5195840000000  0.4227530000000 1.0
C      1  0.4643110000000  0.5405100000000  0.4470410000000 1.0
C      1  0.5596320000000  0.5104530000000  0.4760840000000 1.0
C      1  0.4803950000000  0.5301310000000  0.5187300000000 1.0
C      1  0.4604100000000  0.4569680000000  0.5628030000000 1.0
C      1  0.4895920000000  0.5771910000000  0.5131620000000 1.0
C      1  0.4639230000000  0.4846460000000  0.4343720000000 1.0
C      1  0.4704910000000  0.5048320000000  0.5343690000000 1.0
C      1  0.4730870000000  0.5565590000000  0.5310140000000 1.0
C      1  0.5734830000000  0.4782800000000  0.5390010000000 1.0
C      1  0.4922290000000  0.4964310000000  0.5546140000000 1.0
C      1  0.5435310000000  0.5016470000000  0.4312340000000 1.0
C      1  0.5296460000000  0.4503900000000  0.4454110000000 1.0
C      1  0.4687810000000  0.5147380000000  0.4943610000000 1.0
END
