TITL C-127518-258-9 -0.0529802694372189 125000 -522.175945283655 0 0 79 (C1) n - 1
REM
REM in /rds/project/t2_vol4/rds-t2-cs072/BORA/CARBON/from-Arr/AIRSS/Generating-Clusters/GAP-ML-2020/Higher-Symm/SD-CG/HFTN-CG
REM
REM
REM
REM
REM
REM ./C.cell (b20cbc046b6831c77cfcea5457e17084)
REM AIRSS Version 0.9.1 bugfix July 2018 build 013d7b7c2542+ Fri, 06 Jul 2018 19:26:36 +0100
REM compiler GCC version 9.3.0
REM options -cpp -mtune=generic -march=x86-64 -g -O0
REM seed -1581239983 2020965905 890222652 1515576270 -1152774446 -1517485525 -1552553384 185513989 -127109636 -1046344770 1736038656 1311254206 -1437184184 1278359170 -691165861 2084697770 -1534875121 413110282 729541781 -818503224 423937492 -1381932477 902589510 1276402611 -1192724554 -589664221 -1337395829 -1341680731 -1765777915 -932437474 -181768080 2054952713 -2004142334
REM
CELL 1.54180   50.00000   50.00000   50.00000   90.00000   90.00000   90.00000
LATT -1
SFAC C  
C      1  0.4408710000000  0.5262130000000  0.4511800000000 1.0
C      1  0.4581890000000  0.5485450000000  0.4518690000000 1.0
C      1  0.5054430000000  0.5675510000000  0.4575660000000 1.0
C      1  0.5324640000000  0.5574760000000  0.4588210000000 1.0
C      1  0.5594960000000  0.5174780000000  0.4609040000000 1.0
C      1  0.5769480000000  0.4963500000000  0.4639760000000 1.0
C      1  0.5561170000000  0.4787610000000  0.4594300000000 1.0
C      1  0.5230800000000  0.4450890000000  0.4567810000000 1.0
C      1  0.4959840000000  0.4371820000000  0.4566110000000 1.0
C      1  0.4505380000000  0.4521130000000  0.4584420000000 1.0
C      1  0.4337250000000  0.4752720000000  0.4564700000000 1.0
C      1  0.5372750000000  0.4859990000000  0.4375550000000 1.0
C      1  0.5187800000000  0.4654570000000  0.4356730000000 1.0
C      1  0.4913220000000  0.4549320000000  0.4338810000000 1.0
C      1  0.4643280000000  0.4605440000000  0.4338610000000 1.0
C      1  0.4455840000000  0.4825090000000  0.4315880000000 1.0
C      1  0.4483170000000  0.5095940000000  0.4279820000000 1.0
C      1  0.4704480000000  0.5214910000000  0.4165460000000 1.0
C      1  0.4762930000000  0.5455120000000  0.4287570000000 1.0
C      1  0.5022070000000  0.5529150000000  0.4332780000000 1.0
C      1  0.5277300000000  0.5394730000000  0.4364090000000 1.0
C      1  0.5408360000000  0.5151050000000  0.4384210000000 1.0
C      1  0.5039070000000  0.4663850000000  0.5972720000000 1.0
C      1  0.4831280000000  0.4653960000000  0.5800240000000 1.0
C      1  0.4587150000000  0.4805140000000  0.5768170000000 1.0
C      1  0.4535020000000  0.5052440000000  0.5869010000000 1.0
C      1  0.4586460000000  0.5269190000000  0.5710780000000 1.0
C      1  0.4853630000000  0.5388290000000  0.5684150000000 1.0
C      1  0.5078580000000  0.5449060000000  0.5824830000000 1.0
C      1  0.5305290000000  0.5335120000000  0.5719290000000 1.0
C      1  0.5512150000000  0.5149350000000  0.5790890000000 1.0
C      1  0.5500400000000  0.4870290000000  0.5845930000000 1.0
C      1  0.5285130000000  0.4680550000000  0.5850290000000 1.0
C      1  0.5556380000000  0.5080270000000  0.5491840000000 1.0
C      1  0.5548850000000  0.4795330000000  0.5545740000000 1.0
C      1  0.5319050000000  0.4616650000000  0.5559290000000 1.0
C      1  0.5095960000000  0.4555300000000  0.5408400000000 1.0
C      1  0.4848220000000  0.4607970000000  0.5507110000000 1.0
C      1  0.4607480000000  0.4763990000000  0.5467890000000 1.0
C      1  0.4530580000000  0.4968120000000  0.5300860000000 1.0
C      1  0.4588830000000  0.5212170000000  0.5405910000000 1.0
C      1  0.4860660000000  0.5304010000000  0.5406060000000 1.0
C      1  0.5089890000000  0.5194270000000  0.5296800000000 1.0
C      1  0.5325820000000  0.5247450000000  0.5435260000000 1.0
C      1  0.5870380000000  0.4949590000000  0.4905970000000 1.0
C      1  0.5670720000000  0.4546230000000  0.4988450000000 1.0
C      1  0.5304350000000  0.4273030000000  0.4992300000000 1.0
C      1  0.4860910000000  0.4238630000000  0.5009870000000 1.0
C      1  0.4457790000000  0.4445780000000  0.5030590000000 1.0
C      1  0.4205490000000  0.4812360000000  0.4967300000000 1.0
C      1  0.4232130000000  0.5263150000000  0.4954670000000 1.0
C      1  0.4517650000000  0.5612340000000  0.4990650000000 1.0
C      1  0.4943170000000  0.5759970000000  0.5046110000000 1.0
C      1  0.5391830000000  0.5683560000000  0.5054400000000 1.0
C      1  0.5725580000000  0.5370870000000  0.5027510000000 1.0
C      1  0.5435450000000  0.4726120000000  0.4868070000000 1.0
C      1  0.5212220000000  0.4530860000000  0.4859970000000 1.0
C      1  0.4905260000000  0.4494640000000  0.4856980000000 1.0
C      1  0.4633710000000  0.4621960000000  0.4854410000000 1.0
C      1  0.4464880000000  0.4874490000000  0.4821220000000 1.0
C      1  0.4478750000000  0.5172410000000  0.4796600000000 1.0
C      1  0.4678960000000  0.5433220000000  0.4804290000000 1.0
C      1  0.4972050000000  0.5542020000000  0.4840290000000 1.0
C      1  0.5287330000000  0.5471500000000  0.4861920000000 1.0
C      1  0.5478500000000  0.5241830000000  0.4878530000000 1.0
C      1  0.5377520000000  0.4985450000000  0.4990000000000 1.0
C      1  0.4210880000000  0.4559690000000  0.5072990000000 1.0
C      1  0.4066490000000  0.5046920000000  0.4987670000000 1.0
C      1  0.4256950000000  0.5524180000000  0.5026130000000 1.0
C      1  0.4678370000000  0.5804260000000  0.5100430000000 1.0
C      1  0.5188290000000  0.5837890000000  0.5145900000000 1.0
C      1  0.5655600000000  0.5621570000000  0.5103780000000 1.0
C      1  0.5924180000000  0.5186720000000  0.5034460000000 1.0
C      1  0.5896320000000  0.4693910000000  0.5006450000000 1.0
C      1  0.5574960000000  0.4295110000000  0.5017610000000 1.0
C      1  0.5099230000000  0.4099940000000  0.5042400000000 1.0
C      1  0.4597240000000  0.4213340000000  0.5072470000000 1.0
C      1  0.5103440000000  0.5020010000000  0.5065700000000 1.0
C      1  0.4934740000000  0.5000360000000  0.4856310000000 1.0
END
