TITL C-126800-9188-6 -0.00317220367015902 125000 -109.405013069303 0 0 17 (C2v) n - 1
REM
REM in /rds/project/t2_vol4/rds-t2-cs072/BORA/CARBON/from-Arr/AIRSS/Generating-Clusters/GAP-ML-2020/Higher-Symm/SD-CG/HFTN-CG
REM
REM
REM
REM
REM
REM ./C.cell (b20cbc046b6831c77cfcea5457e17084)
REM AIRSS Version 0.9.1 bugfix July 2018 build 013d7b7c2542+ Fri, 06 Jul 2018 19:26:36 +0100
REM compiler GCC version 9.3.0
REM options -cpp -mtune=generic -march=x86-64 -g -O0
REM seed -1268825663 -88183435 -291614396 703456212 -1360841988 -372645022 -1074662450 508476789 2014794911 1146622952 1157850097 -944251179 -1945898603 -956840046 1755681703 -1410752912 -1190849713 -2094118433 -1368189462 -1312395895 1447958725 179675864 -830274782 -1491006319 196244667 467661716 -442273298 1909941614 897724848 2065577344 -821743532 134584909 1325092188
REM
CELL 1.54180   50.00000   50.00000   50.00000   90.00000   90.00000   90.00000
LATT -1
SFAC C  
C      1  0.4704660000000  0.4798970000000  0.5119130000000 1.0
C      1  0.4818850000000  0.4769940000000  0.4853740000000 1.0
C      1  0.5274570000000  0.4777410000000  0.4655560000000 1.0
C      1  0.5160330000000  0.4777660000000  0.5139260000000 1.0
C      1  0.4918630000000  0.4803800000000  0.5298030000000 1.0
C      1  0.4704420000000  0.5298750000000  0.5105920000000 1.0
C      1  0.4818580000000  0.5313830000000  0.4839370000000 1.0
C      1  0.5274320000000  0.5296350000000  0.4641850000000 1.0
C      1  0.5160070000000  0.5321540000000  0.5124890000000 1.0
C      1  0.4918390000000  0.5303590000000  0.5284820000000 1.0
C      1  0.5286590000000  0.5036500000000  0.4634180000000 1.0
C      1  0.5236420000000  0.5051670000000  0.5209040000000 1.0
C      1  0.5002730000000  0.5056910000000  0.5411320000000 1.0
C      1  0.4571600000000  0.5047170000000  0.5050850000000 1.0
C      1  0.4729460000000  0.5040220000000  0.4785160000000 1.0
C      1  0.5096860000000  0.5356170000000  0.4852470000000 1.0
C      1  0.5097170000000  0.4728630000000  0.4869060000000 1.0
END
