TITL C-129396-7713-2 0.126252211561283 125000 -1316.55710436247 0 0 189 (C1) n - 1
REM
REM in /rds/project/t2_vol4/rds-t2-cs072/BORA/CARBON/from-Arr/AIRSS/Generating-Clusters/GAP-ML-2020/Higher-Symm/SD-CG/HFTN-CG/C160-200
REM
REM
REM
REM
REM
REM ./C.cell (6b4489405718ea1b717e0baf1da4c2d9)
REM AIRSS Version 0.9.1 bugfix July 2018 build 013d7b7c2542+ Fri, 06 Jul 2018 19:26:36 +0100
REM compiler GCC version 9.3.0
REM options -cpp -mtune=generic -march=x86-64 -g -O0
REM seed 285710111 -1885867343 -497734861 -1462373228 -1981431189 825054441 1827780705 -509635817 856882998 -1184948696 1109916479 1719773983 -984640754 -894176571 -1272596366 -1435865328 -214852422 1721917751 1900201146 -934487195 -2143007801 103468081 -963416699 628636834 -1609596140 -1547847048 526235088 2087032699 -1486274089 -1364163619 2121360893 116887113 -1204511161
REM
CELL 1.54180   50.00000   50.00000   50.00000   90.00000   90.00000   90.00000
LATT -1
SFAC C  
C      1  0.5591270000000  0.5120320000000  0.5067020000000 1.0
C      1  0.5547970000000  0.4857030000000  0.5189170000000 1.0
C      1  0.5583840000000  0.4988350000000  0.4821150000000 1.0
C      1  0.5287370000000  0.4728330000000  0.4516120000000 1.0
C      1  0.5315540000000  0.5570980000000  0.5008150000000 1.0
C      1  0.5250110000000  0.4702140000000  0.5494560000000 1.0
C      1  0.4988400000000  0.4365140000000  0.4638860000000 1.0
C      1  0.4990190000000  0.5609770000000  0.4639230000000 1.0
C      1  0.4956090000000  0.5000840000000  0.5711250000000 1.0
C      1  0.4869990000000  0.4907590000000  0.6028550000000 1.0
C      1  0.4898940000000  0.4136450000000  0.4410990000000 1.0
C      1  0.4893000000000  0.5941670000000  0.4553030000000 1.0
C      1  0.4461280000000  0.5497220000000  0.5555860000000 1.0
C      1  0.4451560000000  0.4238530000000  0.5135180000000 1.0
C      1  0.4454810000000  0.5232000000000  0.4311430000000 1.0
C      1  0.5206890000000  0.3949890000000  0.4645090000000 1.0
C      1  0.5188570000000  0.5833110000000  0.4261980000000 1.0
C      1  0.5184040000000  0.5208690000000  0.6084070000000 1.0
C      1  0.5995140000000  0.5499120000000  0.5138930000000 1.0
C      1  0.6136880000000  0.4814150000000  0.5187050000000 1.0
C      1  0.5914330000000  0.4745260000000  0.4473000000000 1.0
C      1  0.4868670000000  0.4419740000000  0.5249390000000 1.0
C      1  0.4873730000000  0.5055100000000  0.4427420000000 1.0
C      1  0.4886560000000  0.5466990000000  0.5335770000000 1.0
C      1  0.5251020000000  0.4836010000000  0.5229250000000 1.0
C      1  0.5297340000000  0.4895140000000  0.4762730000000 1.0
C      1  0.5336100000000  0.5273540000000  0.5042270000000 1.0
C      1  0.4168620000000  0.4257160000000  0.5042270000000 1.0
C      1  0.4173360000000  0.5306280000000  0.4371190000000 1.0
C      1  0.4179260000000  0.5398090000000  0.5583640000000 1.0
C      1  0.4492240000000  0.5213880000000  0.5880990000000 1.0
C      1  0.4477460000000  0.4058980000000  0.4722700000000 1.0
C      1  0.4495980000000  0.5653040000000  0.4377080000000 1.0
C      1  0.4014560000000  0.4604140000000  0.5367330000000 1.0
C      1  0.4022330000000  0.4849200000000  0.4475820000000 1.0
C      1  0.4027980000000  0.5544070000000  0.5140050000000 1.0
C      1  0.5422160000000  0.5409340000000  0.5711320000000 1.0
C      1  0.5408000000000  0.4161120000000  0.5012540000000 1.0
C      1  0.5405050000000  0.5413650000000  0.4258110000000 1.0
C      1  0.3947520000000  0.4610980000000  0.4654130000000 1.0
C      1  0.3953360000000  0.5492280000000  0.4852150000000 1.0
C      1  0.3948630000000  0.4887960000000  0.5460520000000 1.0
C      1  0.3836790000000  0.4572620000000  0.4898700000000 1.0
C      1  0.3853350000000  0.5277510000000  0.4716400000000 1.0
C      1  0.3864490000000  0.5122270000000  0.5351640000000 1.0
C      1  0.4922270000000  0.3917560000000  0.4599580000000 1.0
C      1  0.4903110000000  0.5882010000000  0.4270420000000 1.0
C      1  0.4900140000000  0.5182080000000  0.6126530000000 1.0
C      1  0.5327220000000  0.6056120000000  0.4756150000000 1.0
C      1  0.5302080000000  0.4659480000000  0.6028160000000 1.0
C      1  0.5323810000000  0.4286440000000  0.4209650000000 1.0
C      1  0.4924190000000  0.4252770000000  0.5932480000000 1.0
C      1  0.4929570000000  0.4555930000000  0.3886910000000 1.0
C      1  0.4957930000000  0.6195640000000  0.5171550000000 1.0
C      1  0.4517460000000  0.5816930000000  0.5224350000000 1.0
C      1  0.4492680000000  0.4410530000000  0.5551500000000 1.0
C      1  0.4509390000000  0.4789910000000  0.4204710000000 1.0
C      1  0.5718170000000  0.4964820000000  0.4354650000000 1.0
C      1  0.5794380000000  0.5665980000000  0.5256570000000 1.0
C      1  0.5649890000000  0.4419790000000  0.5358350000000 1.0
C      1  0.4978150000000  0.4614890000000  0.5432960000000 1.0
C      1  0.5007820000000  0.4808320000000  0.4445460000000 1.0
C      1  0.5036710000000  0.5620890000000  0.5122320000000 1.0
C      1  0.4697750000000  0.5369590000000  0.6030910000000 1.0
C      1  0.4709910000000  0.3908570000000  0.4806190000000 1.0
C      1  0.4692850000000  0.5703870000000  0.4168580000000 1.0
C      1  0.5877230000000  0.5376090000000  0.4622320000000 1.0
C      1  0.5865880000000  0.4988840000000  0.5560740000000 1.0
C      1  0.5866820000000  0.4515560000000  0.4902750000000 1.0
C      1  0.4824740000000  0.4073890000000  0.5726560000000 1.0
C      1  0.4827870000000  0.4827070000000  0.3841410000000 1.0
C      1  0.4860020000000  0.6093600000000  0.5428710000000 1.0
C      1  0.4891680000000  0.5295460000000  0.5631190000000 1.0
C      1  0.4869390000000  0.4365550000000  0.4928590000000 1.0
C      1  0.4891430000000  0.5365800000000  0.4462340000000 1.0
C      1  0.3977610000000  0.4467210000000  0.5116940000000 1.0
C      1  0.3984590000000  0.5136950000000  0.4513330000000 1.0
C      1  0.3994010000000  0.5368320000000  0.5365460000000 1.0
C      1  0.4780430000000  0.4819220000000  0.5539970000000 1.0
C      1  0.4830910000000  0.4614620000000  0.4571010000000 1.0
C      1  0.4852250000000  0.5581260000000  0.4898420000000 1.0
C      1  0.5377050000000  0.5339780000000  0.4568520000000 1.0
C      1  0.5372380000000  0.5161550000000  0.5516100000000 1.0
C      1  0.5369380000000  0.4463740000000  0.4936260000000 1.0
C      1  0.5649340000000  0.5172420000000  0.4603300000000 1.0
C      1  0.5627460000000  0.5065510000000  0.5383230000000 1.0
C      1  0.5631910000000  0.4578090000000  0.5096240000000 1.0
C      1  0.5244080000000  0.5443150000000  0.5947090000000 1.0
C      1  0.5238650000000  0.3944440000000  0.4920540000000 1.0
C      1  0.5224370000000  0.5596610000000  0.4123240000000 1.0
C      1  0.5407840000000  0.4207430000000  0.4487820000000 1.0
C      1  0.5393720000000  0.5852280000000  0.4541480000000 1.0
C      1  0.5368440000000  0.4947550000000  0.5968320000000 1.0
C      1  0.4697680000000  0.6040210000000  0.4761110000000 1.0
C      1  0.4668020000000  0.4682760000000  0.6003180000000 1.0
C      1  0.4693050000000  0.4269520000000  0.4232800000000 1.0
C      1  0.5686410000000  0.5805880000000  0.4550400000000 1.0
C      1  0.5654610000000  0.4960960000000  0.5918050000000 1.0
C      1  0.5697220000000  0.4277760000000  0.4528090000000 1.0
C      1  0.5539910000000  0.4555120000000  0.5610010000000 1.0
C      1  0.5523940000000  0.4707220000000  0.4309760000000 1.0
C      1  0.5584300000000  0.5772490000000  0.5055540000000 1.0
C      1  0.4854940000000  0.4662640000000  0.4890940000000 1.0
C      1  0.4873900000000  0.5260470000000  0.4912300000000 1.0
C      1  0.4891830000000  0.5198230000000  0.5220040000000 1.0
C      1  0.5820150000000  0.4261820000000  0.4784520000000 1.0
C      1  0.5822090000000  0.5582820000000  0.4437110000000 1.0
C      1  0.5818980000000  0.5166420000000  0.5797530000000 1.0
C      1  0.4573730000000  0.4474630000000  0.5264580000000 1.0
C      1  0.4586740000000  0.4986620000000  0.4401600000000 1.0
C      1  0.4595220000000  0.5553760000000  0.5306450000000 1.0
C      1  0.5390380000000  0.4544310000000  0.4096230000000 1.0
C      1  0.5414560000000  0.6028380000000  0.5030740000000 1.0
C      1  0.5388420000000  0.4443900000000  0.5854690000000 1.0
C      1  0.4593650000000  0.4513980000000  0.4357110000000 1.0
C      1  0.4597430000000  0.5820750000000  0.4919260000000 1.0
C      1  0.4565740000000  0.4663590000000  0.5729640000000 1.0
C      1  0.6102520000000  0.5004980000000  0.5383620000000 1.0
C      1  0.6009650000000  0.4712350000000  0.4740950000000 1.0
C      1  0.6034130000000  0.5404560000000  0.4856260000000 1.0
C      1  0.5189320000000  0.5135160000000  0.5264380000000 1.0
C      1  0.5168640000000  0.4709990000000  0.4972160000000 1.0
C      1  0.5186000000000  0.5179900000000  0.4785190000000 1.0
C      1  0.5104470000000  0.4025620000000  0.5642480000000 1.0
C      1  0.5106510000000  0.4926520000000  0.3839590000000 1.0
C      1  0.5140430000000  0.6038620000000  0.5507730000000 1.0
C      1  0.4655540000000  0.5047900000000  0.5365460000000 1.0
C      1  0.4592040000000  0.4693810000000  0.5038770000000 1.0
C      1  0.4611280000000  0.5279600000000  0.4788470000000 1.0
C      1  0.5069070000000  0.4186480000000  0.4171960000000 1.0
C      1  0.5066810000000  0.6132590000000  0.4701040000000 1.0
C      1  0.5040970000000  0.4677800000000  0.6117080000000 1.0
C      1  0.5201600000000  0.4226430000000  0.5838120000000 1.0
C      1  0.5204350000000  0.4656900000000  0.3908990000000 1.0
C      1  0.5234920000000  0.6124490000000  0.5238590000000 1.0
C      1  0.5201180000000  0.3960700000000  0.5382090000000 1.0
C      1  0.5191900000000  0.5189930000000  0.3909040000000 1.0
C      1  0.5218240000000  0.5833690000000  0.5694300000000 1.0
C      1  0.4759180000000  0.5468720000000  0.4002520000000 1.0
C      1  0.4782300000000  0.5628680000000  0.5904840000000 1.0
C      1  0.4776730000000  0.3878070000000  0.5097610000000 1.0
C      1  0.5278410000000  0.4436590000000  0.4641670000000 1.0
C      1  0.5287170000000  0.5598120000000  0.4690230000000 1.0
C      1  0.5244160000000  0.4949250000000  0.5680460000000 1.0
C      1  0.4128250000000  0.4390260000000  0.4596610000000 1.0
C      1  0.4130610000000  0.5653920000000  0.4687770000000 1.0
C      1  0.4113040000000  0.4943210000000  0.5699060000000 1.0
C      1  0.6134690000000  0.5249010000000  0.5223680000000 1.0
C      1  0.6146810000000  0.4881990000000  0.4919180000000 1.0
C      1  0.6173060000000  0.5169650000000  0.4950650000000 1.0
C      1  0.4581990000000  0.5238160000000  0.4033790000000 1.0
C      1  0.4607070000000  0.5727840000000  0.5693350000000 1.0
C      1  0.4588400000000  0.4014690000000  0.5282980000000 1.0
C      1  0.4307810000000  0.4495780000000  0.4416680000000 1.0
C      1  0.4311600000000  0.5770630000000  0.4863560000000 1.0
C      1  0.4276000000000  0.4722120000000  0.5723590000000 1.0
C      1  0.4395780000000  0.4867240000000  0.4943920000000 1.0
C      1  0.4411710000000  0.5150000000000  0.4927030000000 1.0
C      1  0.4436750000000  0.5013030000000  0.5183420000000 1.0
C      1  0.4599070000000  0.4256750000000  0.4880280000000 1.0
C      1  0.4602370000000  0.5410370000000  0.4505950000000 1.0
C      1  0.4601690000000  0.5241220000000  0.5615600000000 1.0
C      1  0.5708880000000  0.5446350000000  0.4225270000000 1.0
C      1  0.5726760000000  0.5420740000000  0.5735780000000 1.0
C      1  0.5713320000000  0.4126320000000  0.4996240000000 1.0
C      1  0.4207390000000  0.4182220000000  0.4768670000000 1.0
C      1  0.4213400000000  0.5583270000000  0.4430720000000 1.0
C      1  0.4212210000000  0.5195160000000  0.5779050000000 1.0
C      1  0.5720510000000  0.5636920000000  0.5532860000000 1.0
C      1  0.5713340000000  0.4151250000000  0.5283760000000 1.0
C      1  0.5705970000000  0.5165460000000  0.4139130000000 1.0
C      1  0.5440180000000  0.5684940000000  0.5604110000000 1.0
C      1  0.5428080000000  0.4115560000000  0.5303510000000 1.0
C      1  0.5425250000000  0.5191550000000  0.4065310000000 1.0
C      1  0.4604650000000  0.4958520000000  0.3959700000000 1.0
C      1  0.4631460000000  0.5933290000000  0.5488340000000 1.0
C      1  0.4604440000000  0.4115110000000  0.5551810000000 1.0
C      1  0.4880250000000  0.6203330000000  0.4905210000000 1.0
C      1  0.4845080000000  0.4474980000000  0.6077070000000 1.0
C      1  0.4868370000000  0.4318600000000  0.4016230000000 1.0
C      1  0.5070350000000  0.5671060000000  0.5892170000000 1.0
C      1  0.5059120000000  0.3876570000000  0.5139610000000 1.0
C      1  0.5042500000000  0.5439060000000  0.3961390000000 1.0
C      1  0.4206250000000  0.4511470000000  0.5552410000000 1.0
C      1  0.4225610000000  0.4741180000000  0.4311620000000 1.0
C      1  0.4231770000000  0.5740740000000  0.5129220000000 1.0
C      1  0.5745950000000  0.4527210000000  0.4400960000000 1.0
C      1  0.5737570000000  0.5816520000000  0.4818100000000 1.0
C      1  0.5728520000000  0.4765340000000  0.5715480000000 1.0
END
