TITL C-129390-2050-3 35.7682924275712 125000 -1206.34156534907 0 0 172 (C1) n - 1
REM
REM in /rds/project/t2_vol4/rds-t2-cs072/BORA/CARBON/from-Arr/AIRSS/Generating-Clusters/GAP-ML-2020/Higher-Symm/SD-CG/HFTN-CG/C160-200
REM
REM
REM
REM
REM
REM ./C.cell (6b4489405718ea1b717e0baf1da4c2d9)
REM AIRSS Version 0.9.1 bugfix July 2018 build 013d7b7c2542+ Fri, 06 Jul 2018 19:26:36 +0100
REM compiler GCC version 9.3.0
REM options -cpp -mtune=generic -march=x86-64 -g -O0
REM seed -524481265 515967663 -89790068 841555874 -1133546342 843075890 -2073545384 -513865510 -2108786990 -1187313652 1003479999 111398469 -639271323 404728122 462569559 221706660 2086796627 1520782225 -1890358791 349866070 -470327145 1674978246 1114753791 1710617073 328264772 1601062477 -2147296685 -1788103172 -513831954 -1322539326 820143444 -1570474886 969370524
REM
CELL 1.54180   50.00000   50.00000   50.00000   90.00000   90.00000   90.00000
LATT -1
SFAC C  
C      1  0.4235580000000  0.4373360000000  0.5142850000000 1.0
C      1  0.4957040000000  0.4571260000000  0.5555900000000 1.0
C      1  0.5216370000000  0.4126630000000  0.5728790000000 1.0
C      1  0.5882980000000  0.4713340000000  0.4798590000000 1.0
C      1  0.5220290000000  0.4757690000000  0.6033860000000 1.0
C      1  0.5237840000000  0.4572440000000  0.4781260000000 1.0
C      1  0.4288540000000  0.4712000000000  0.5431560000000 1.0
C      1  0.4280390000000  0.4442750000000  0.4599720000000 1.0
C      1  0.4957490000000  0.5682440000000  0.4199900000000 1.0
C      1  0.4385760000000  0.4268710000000  0.5382590000000 1.0
C      1  0.3912850000000  0.5076650000000  0.5266350000000 1.0
C      1  0.4504520000000  0.4567380000000  0.4143210000000 1.0
C      1  0.3927580000000  0.5493730000000  0.4917920000000 1.0
C      1  0.4527070000000  0.5900350000000  0.5056150000000 1.0
C      1  0.4506690000000  0.5326670000000  0.4034870000000 1.0
C      1  0.4771610000000  0.5254750000000  0.3973900000000 1.0
C      1  0.5724870000000  0.5515160000000  0.5126130000000 1.0
C      1  0.4981570000000  0.5072300000000  0.4307850000000 1.0
C      1  0.3962160000000  0.5081170000000  0.4666310000000 1.0
C      1  0.5401940000000  0.4807730000000  0.4014520000000 1.0
C      1  0.4110040000000  0.5115420000000  0.4287960000000 1.0
C      1  0.4782240000000  0.5697000000000  0.5782910000000 1.0
C      1  0.5361620000000  0.4359610000000  0.5145390000000 1.0
C      1  0.5351380000000  0.4333620000000  0.5867120000000 1.0
C      1  0.4421580000000  0.5684760000000  0.5246410000000 1.0
C      1  0.5070840000000  0.5232620000000  0.5983440000000 1.0
C      1  0.4571140000000  0.4546580000000  0.5802560000000 1.0
C      1  0.4770340000000  0.5505220000000  0.4939910000000 1.0
C      1  0.5474480000000  0.4878910000000  0.5962690000000 1.0
C      1  0.5193040000000  0.3959680000000  0.5047470000000 1.0
C      1  0.5299410000000  0.5366450000000  0.5908230000000 1.0
C      1  0.5146480000000  0.4494220000000  0.5973760000000 1.0
C      1  0.5995330000000  0.5496290000000  0.4414890000000 1.0
C      1  0.5214570000000  0.5258690000000  0.4155910000000 1.0
C      1  0.5038770000000  0.5976220000000  0.5545780000000 1.0
C      1  0.4138310000000  0.4648270000000  0.5171340000000 1.0
C      1  0.5662930000000  0.4728350000000  0.5812040000000 1.0
C      1  0.4538370000000  0.4865700000000  0.4496280000000 1.0
C      1  0.4809260000000  0.4957710000000  0.4067140000000 1.0
C      1  0.4347210000000  0.5576670000000  0.4667140000000 1.0
C      1  0.4490610000000  0.3897570000000  0.5108240000000 1.0
C      1  0.5109610000000  0.4896190000000  0.5602680000000 1.0
C      1  0.5303920000000  0.5623400000000  0.5775810000000 1.0
C      1  0.4703360000000  0.5577950000000  0.5255000000000 1.0
C      1  0.5209480000000  0.4602280000000  0.3988750000000 1.0
C      1  0.4844730000000  0.4018550000000  0.5463900000000 1.0
C      1  0.4262210000000  0.4732090000000  0.4619880000000 1.0
C      1  0.4787500000000  0.5262370000000  0.5963330000000 1.0
C      1  0.4577280000000  0.4038720000000  0.5343510000000 1.0
C      1  0.4759390000000  0.4473720000000  0.4047660000000 1.0
C      1  0.4518610000000  0.4823550000000  0.5893630000000 1.0
C      1  0.5480970000000  0.4880810000000  0.5106630000000 1.0
C      1  0.4263410000000  0.4817570000000  0.4915110000000 1.0
C      1  0.5842000000000  0.4329750000000  0.5068410000000 1.0
C      1  0.5659130000000  0.5189380000000  0.4765950000000 1.0
C      1  0.5620920000000  0.5733080000000  0.4632140000000 1.0
C      1  0.5437480000000  0.5355950000000  0.5149330000000 1.0
C      1  0.4854980000000  0.4266270000000  0.4223370000000 1.0
C      1  0.4797020000000  0.4771130000000  0.4619930000000 1.0
C      1  0.4860030000000  0.4459490000000  0.5112330000000 1.0
C      1  0.4992610000000  0.5440450000000  0.4051990000000 1.0
C      1  0.5119100000000  0.6084430000000  0.4816220000000 1.0
C      1  0.5703980000000  0.5446410000000  0.5567880000000 1.0
C      1  0.5867950000000  0.5589700000000  0.4638410000000 1.0
C      1  0.4486170000000  0.5585670000000  0.4170450000000 1.0
C      1  0.5026880000000  0.4944180000000  0.5059220000000 1.0
C      1  0.5475780000000  0.5147630000000  0.5858260000000 1.0
C      1  0.5473140000000  0.5866940000000  0.5358420000000 1.0
C      1  0.4719790000000  0.5867250000000  0.4559350000000 1.0
C      1  0.4930800000000  0.4157510000000  0.5702350000000 1.0
C      1  0.5081870000000  0.4655230000000  0.5045140000000 1.0
C      1  0.5873080000000  0.5388330000000  0.5350090000000 1.0
C      1  0.4556530000000  0.5149560000000  0.4541470000000 1.0
C      1  0.5020730000000  0.5317510000000  0.5379280000000 1.0
C      1  0.5657750000000  0.4302580000000  0.4538340000000 1.0
C      1  0.4780610000000  0.4611130000000  0.5344630000000 1.0
C      1  0.6200930000000  0.5072490000000  0.4793240000000 1.0
C      1  0.4117150000000  0.4846380000000  0.5630240000000 1.0
C      1  0.5125890000000  0.4209890000000  0.4283590000000 1.0
C      1  0.5857660000000  0.5397730000000  0.4881990000000 1.0
C      1  0.4285400000000  0.5386910000000  0.5273550000000 1.0
C      1  0.5576640000000  0.4722100000000  0.4231660000000 1.0
C      1  0.4349520000000  0.5643600000000  0.4387790000000 1.0
C      1  0.5540960000000  0.4168060000000  0.5363240000000 1.0
C      1  0.5624850000000  0.5174550000000  0.4454790000000 1.0
C      1  0.5677160000000  0.4085620000000  0.5122030000000 1.0
C      1  0.5322160000000  0.5059760000000  0.3982050000000 1.0
C      1  0.4399030000000  0.4473210000000  0.5579250000000 1.0
C      1  0.5314610000000  0.4634610000000  0.5233530000000 1.0
C      1  0.5710620000000  0.4916840000000  0.4914640000000 1.0
C      1  0.4762320000000  0.6013300000000  0.5467390000000 1.0
C      1  0.5609300000000  0.4450520000000  0.5765380000000 1.0
C      1  0.5925520000000  0.4832110000000  0.5381430000000 1.0
C      1  0.5557070000000  0.4442860000000  0.4304920000000 1.0
C      1  0.4360170000000  0.5727060000000  0.5533620000000 1.0
C      1  0.5057100000000  0.4328250000000  0.4732460000000 1.0
C      1  0.4414970000000  0.5260340000000  0.4765100000000 1.0
C      1  0.4764410000000  0.4952090000000  0.4910170000000 1.0
C      1  0.4549640000000  0.4844560000000  0.5303960000000 1.0
C      1  0.5707400000000  0.4362800000000  0.5512050000000 1.0
C      1  0.3989120000000  0.5307190000000  0.4492510000000 1.0
C      1  0.3969780000000  0.5074260000000  0.5544610000000 1.0
C      1  0.5632200000000  0.5800440000000  0.5131410000000 1.0
C      1  0.5027740000000  0.4944150000000  0.5913510000000 1.0
C      1  0.5472050000000  0.4415620000000  0.4870720000000 1.0
C      1  0.5177890000000  0.5487610000000  0.5219660000000 1.0
C      1  0.5060290000000  0.5776860000000  0.5747820000000 1.0
C      1  0.4365940000000  0.4307960000000  0.4870990000000 1.0
C      1  0.5522690000000  0.4898230000000  0.4452080000000 1.0
C      1  0.5100690000000  0.3957490000000  0.5321490000000 1.0
C      1  0.4932360000000  0.4683300000000  0.3967370000000 1.0
C      1  0.5453210000000  0.4142400000000  0.4685500000000 1.0
C      1  0.4428000000000  0.4015810000000  0.4892850000000 1.0
C      1  0.4424180000000  0.4390540000000  0.4361260000000 1.0
C      1  0.6109830000000  0.4828260000000  0.4677120000000 1.0
C      1  0.4059030000000  0.4896750000000  0.4474980000000 1.0
C      1  0.6097410000000  0.5071330000000  0.4536740000000 1.0
C      1  0.5515810000000  0.5669580000000  0.5583450000000 1.0
C      1  0.4241970000000  0.5465350000000  0.5565520000000 1.0
C      1  0.5428250000000  0.5371910000000  0.4335080000000 1.0
C      1  0.4538810000000  0.5175660000000  0.5266810000000 1.0
C      1  0.4049820000000  0.5288820000000  0.5093410000000 1.0
C      1  0.4815850000000  0.5250110000000  0.4479290000000 1.0
C      1  0.5575490000000  0.5901310000000  0.4864880000000 1.0
C      1  0.4172270000000  0.5102480000000  0.4877780000000 1.0
C      1  0.5070760000000  0.5598300000000  0.4988740000000 1.0
C      1  0.4277200000000  0.4976500000000  0.5827680000000 1.0
C      1  0.5858210000000  0.4512110000000  0.5314040000000 1.0
C      1  0.5390040000000  0.6090900000000  0.4808800000000 1.0
C      1  0.5271000000000  0.4999530000000  0.4893680000000 1.0
C      1  0.5312470000000  0.4381620000000  0.4157670000000 1.0
C      1  0.4153680000000  0.5239350000000  0.5716360000000 1.0
C      1  0.3917070000000  0.4822420000000  0.5162680000000 1.0
C      1  0.4673030000000  0.4284560000000  0.4439480000000 1.0
C      1  0.4043120000000  0.5530020000000  0.4673460000000 1.0
C      1  0.4736460000000  0.5346440000000  0.5432120000000 1.0
C      1  0.5206270000000  0.5471360000000  0.4743480000000 1.0
C      1  0.4336860000000  0.5105280000000  0.4115670000000 1.0
C      1  0.4546460000000  0.4769540000000  0.5006720000000 1.0
C      1  0.5994380000000  0.5137120000000  0.5258330000000 1.0
C      1  0.5615740000000  0.5157890000000  0.5602160000000 1.0
C      1  0.5192180000000  0.4149730000000  0.4552590000000 1.0
C      1  0.4748960000000  0.6039610000000  0.5183640000000 1.0
C      1  0.5368210000000  0.5617070000000  0.4499110000000 1.0
C      1  0.5142730000000  0.5795950000000  0.4392090000000 1.0
C      1  0.4633520000000  0.4476490000000  0.4918580000000 1.0
C      1  0.5132140000000  0.5062800000000  0.5369470000000 1.0
C      1  0.4990820000000  0.5955590000000  0.4583050000000 1.0
C      1  0.5435420000000  0.5103210000000  0.5314470000000 1.0
C      1  0.4595270000000  0.5855420000000  0.5634610000000 1.0
C      1  0.5467450000000  0.3985390000000  0.4930620000000 1.0
C      1  0.5386600000000  0.5265390000000  0.4869380000000 1.0
C      1  0.5783620000000  0.4900890000000  0.5615350000000 1.0
C      1  0.5028310000000  0.6077840000000  0.5099470000000 1.0
C      1  0.4627980000000  0.5225590000000  0.4974330000000 1.0
C      1  0.5280010000000  0.4837660000000  0.4634930000000 1.0
C      1  0.4736370000000  0.4979510000000  0.5967170000000 1.0
C      1  0.4571930000000  0.5746880000000  0.4801130000000 1.0
C      1  0.5034750000000  0.4852460000000  0.4481580000000 1.0
C      1  0.5322620000000  0.4021350000000  0.5494190000000 1.0
C      1  0.5215210000000  0.6013280000000  0.5330160000000 1.0
C      1  0.5219300000000  0.4656690000000  0.5509710000000 1.0
C      1  0.5089850000000  0.4230380000000  0.5030300000000 1.0
C      1  0.4526980000000  0.4864570000000  0.4172940000000 1.0
C      1  0.4789330000000  0.4452260000000  0.4668550000000 1.0
C      1  0.5776950000000  0.4442670000000  0.4801450000000 1.0
C      1  0.5928090000000  0.5228560000000  0.4387610000000 1.0
C      1  0.6073910000000  0.5217020000000  0.4993310000000 1.0
C      1  0.4688200000000  0.5750630000000  0.4293860000000 1.0
C      1  0.4936930000000  0.5378060000000  0.4685470000000 1.0
C      1  0.4703990000000  0.5426490000000  0.5750560000000 1.0
C      1  0.4868600000000  0.4435720000000  0.5806720000000 1.0
END
