TITL C-122801-4659-8 0.354546875542494 125000 -785.818399091056 0 0 115 (C2v) n - 1
REM
REM in /rds/project/t2_vol4/rds-t2-cs072/BORA/CARBON/from-Arr/AIRSS/Generating-Clusters/GAP-ML-2020/Higher-Symm/SD-CG/HFTN-CG
REM
REM
REM
REM
REM
REM ./C.cell (b20cbc046b6831c77cfcea5457e17084)
REM AIRSS Version 0.9.1 bugfix July 2018 build 013d7b7c2542+ Fri, 06 Jul 2018 19:26:36 +0100
REM compiler GCC version 9.3.0
REM options -cpp -mtune=generic -march=x86-64 -g -O0
REM seed 1999901532 -532782977 -361763792 -145419584 830175891 1977759754 192857285 -480939149 1155325407 -299049556 -16421537 -442826887 511519113 -511547722 -1041184654 641351183 1737138697 -883309239 -608283375 1210467043 2106274927 -118312992 -207226511 -1037538143 -1499629741 1252028077 1072743359 1207866025 -1321105064 -137284442 7296758 -1612782922 -1412053564
REM
CELL 1.54180   50.00000   50.00000   50.00000   90.00000   90.00000   90.00000
LATT -1
SFAC C  
C      1  0.4670920000000  0.5608340000000  0.4707640000000 1.0
C      1  0.5333910000000  0.5608300000000  0.5291710000000 1.0
C      1  0.4672760000000  0.4411140000000  0.4718630000000 1.0
C      1  0.5331670000000  0.4411100000000  0.5281010000000 1.0
C      1  0.5333810000000  0.5608230000000  0.4707530000000 1.0
C      1  0.4671010000000  0.5608410000000  0.5291820000000 1.0
C      1  0.5331580000000  0.4411030000000  0.4718520000000 1.0
C      1  0.4672850000000  0.4411210000000  0.5281120000000 1.0
C      1  0.4853230000000  0.4221830000000  0.4859750000000 1.0
C      1  0.5151130000000  0.4221810000000  0.5139940000000 1.0
C      1  0.4854340000000  0.5787770000000  0.4857780000000 1.0
C      1  0.5150550000000  0.5787750000000  0.5141520000000 1.0
C      1  0.5151090000000  0.4221780000000  0.4859700000000 1.0
C      1  0.4853270000000  0.4221860000000  0.5139990000000 1.0
C      1  0.5150500000000  0.5787720000000  0.4857730000000 1.0
C      1  0.4854390000000  0.5787800000000  0.5141570000000 1.0
C      1  0.5750570000000  0.4869610000000  0.4492770000000 1.0
C      1  0.4254010000000  0.4869980000000  0.5506760000000 1.0
C      1  0.5741410000000  0.5155490000000  0.4482370000000 1.0
C      1  0.4263260000000  0.5155870000000  0.5517090000000 1.0
C      1  0.4253840000000  0.4869860000000  0.4493020000000 1.0
C      1  0.5750740000000  0.4869730000000  0.5506510000000 1.0
C      1  0.4263090000000  0.5155740000000  0.4482620000000 1.0
C      1  0.5741580000000  0.5155620000000  0.5516840000000 1.0
C      1  0.5148480000000  0.5605740000000  0.4212680000000 1.0
C      1  0.4856340000000  0.5605980000000  0.5786670000000 1.0
C      1  0.5148660000000  0.4413800000000  0.4229630000000 1.0
C      1  0.4855770000000  0.4414040000000  0.5770010000000 1.0
C      1  0.4856080000000  0.5605790000000  0.4212730000000 1.0
C      1  0.5148740000000  0.5605930000000  0.5786620000000 1.0
C      1  0.4855510000000  0.4413850000000  0.4229680000000 1.0
C      1  0.5148910000000  0.4413990000000  0.5769960000000 1.0
C      1  0.5595370000000  0.4459240000000  0.4307210000000 1.0
C      1  0.4409070000000  0.4459610000000  0.5692420000000 1.0
C      1  0.5593840000000  0.5556490000000  0.4297680000000 1.0
C      1  0.4410970000000  0.5556860000000  0.5701680000000 1.0
C      1  0.4408840000000  0.4459440000000  0.4307410000000 1.0
C      1  0.5595600000000  0.4459410000000  0.5692220000000 1.0
C      1  0.4410740000000  0.5556690000000  0.4297880000000 1.0
C      1  0.5594070000000  0.5556660000000  0.5701480000000 1.0
C      1  0.4545090000000  0.5160570000000  0.5148650000000 1.0
C      1  0.5459580000000  0.5160380000000  0.4850810000000 1.0
C      1  0.4540500000000  0.4861450000000  0.5149280000000 1.0
C      1  0.5464080000000  0.4861260000000  0.4850250000000 1.0
C      1  0.5459630000000  0.5160410000000  0.5148500000000 1.0
C      1  0.4545040000000  0.5160530000000  0.4850960000000 1.0
C      1  0.5464130000000  0.4861300000000  0.5149120000000 1.0
C      1  0.4540450000000  0.4861420000000  0.4850410000000 1.0
C      1  0.4649980000000  0.5649800000000  0.4404570000000 1.0
C      1  0.5354860000000  0.5649830000000  0.5594770000000 1.0
C      1  0.4648390000000  0.4371680000000  0.4419370000000 1.0
C      1  0.5356020000000  0.4371700000000  0.5580280000000 1.0
C      1  0.5354660000000  0.5649680000000  0.4404450000000 1.0
C      1  0.4650180000000  0.5649950000000  0.5594880000000 1.0
C      1  0.5355830000000  0.4371560000000  0.4419260000000 1.0
C      1  0.4648580000000  0.4371820000000  0.5580390000000 1.0
C      1  0.5693920000000  0.5293560000000  0.5264910000000 1.0
C      1  0.4310800000000  0.5293720000000  0.4734510000000 1.0
C      1  0.5726810000000  0.4733840000000  0.5233500000000 1.0
C      1  0.4277720000000  0.4734030000000  0.4766070000000 1.0
C      1  0.4310890000000  0.5293790000000  0.5265140000000 1.0
C      1  0.5693830000000  0.5293490000000  0.4734280000000 1.0
C      1  0.4277800000000  0.4734090000000  0.5233730000000 1.0
C      1  0.5726730000000  0.4733790000000  0.4765830000000 1.0
C      1  0.5153400000000  0.5167170000000  0.5510410000000 1.0
C      1  0.4851280000000  0.5167100000000  0.4489040000000 1.0
C      1  0.5151200000000  0.4855520000000  0.5499500000000 1.0
C      1  0.4853380000000  0.4855440000000  0.4500030000000 1.0
C      1  0.4851450000000  0.5167230000000  0.5510460000000 1.0
C      1  0.5153230000000  0.5167050000000  0.4488990000000 1.0
C      1  0.4853540000000  0.4855570000000  0.5499550000000 1.0
C      1  0.5151030000000  0.4855390000000  0.4499980000000 1.0
C      1  0.5149910000000  0.4663090000000  0.5919590000000 1.0
C      1  0.4854600000000  0.4662910000000  0.4079990000000 1.0
C      1  0.5149610000000  0.5353180000000  0.5934590000000 1.0
C      1  0.4855130000000  0.5353000000000  0.4064820000000 1.0
C      1  0.4854900000000  0.4663140000000  0.5919640000000 1.0
C      1  0.5149610000000  0.4662860000000  0.4079940000000 1.0
C      1  0.4855440000000  0.5353230000000  0.5934640000000 1.0
C      1  0.5149300000000  0.5352960000000  0.4064770000000 1.0
C      1  0.4773250000000  0.4715010000000  0.4752950000000 1.0
C      1  0.5231270000000  0.4714990000000  0.5246620000000 1.0
C      1  0.4752550000000  0.5309500000000  0.4713960000000 1.0
C      1  0.5252170000000  0.5309490000000  0.5285460000000 1.0
C      1  0.5231190000000  0.4714930000000  0.4752870000000 1.0
C      1  0.4773330000000  0.4715070000000  0.5246700000000 1.0
C      1  0.5252080000000  0.5309420000000  0.4713870000000 1.0
C      1  0.4752650000000  0.5309570000000  0.5285550000000 1.0
C      1  0.4397930000000  0.5556390000000  0.5140620000000 1.0
C      1  0.5606880000000  0.5556150000000  0.4858740000000 1.0
C      1  0.4407990000000  0.4468230000000  0.5139710000000 1.0
C      1  0.5596450000000  0.4468000000000  0.4859910000000 1.0
C      1  0.5606930000000  0.5556190000000  0.5140420000000 1.0
C      1  0.4397880000000  0.5556360000000  0.4858940000000 1.0
C      1  0.5596500000000  0.4468030000000  0.5139520000000 1.0
C      1  0.4407940000000  0.4468200000000  0.4860110000000 1.0
C      1  0.4684490000000  0.4853570000000  0.4222940000000 1.0
C      1  0.5320080000000  0.4853650000000  0.5776600000000 1.0
C      1  0.4683540000000  0.5161900000000  0.4207210000000 1.0
C      1  0.5321140000000  0.5161980000000  0.5792240000000 1.0
C      1  0.5319820000000  0.4853460000000  0.4222830000000 1.0
C      1  0.4684750000000  0.4853760000000  0.5776700000000 1.0
C      1  0.5320880000000  0.5161790000000  0.4207110000000 1.0
C      1  0.4683800000000  0.5162090000000  0.5792350000000 1.0
C      1  0.5591160000000  0.5283670000000  0.5729450000000 1.0
C      1  0.4413560000000  0.5283690000000  0.4269980000000 1.0
C      1  0.5592230000000  0.4732980000000  0.5704040000000 1.0
C      1  0.4412300000000  0.4733000000000  0.4295520000000 1.0
C      1  0.4413800000000  0.5283860000000  0.5729650000000 1.0
C      1  0.5590920000000  0.5283490000000  0.4269780000000 1.0
C      1  0.4412530000000  0.4733180000000  0.5704230000000 1.0
C      1  0.5592000000000  0.4732800000000  0.4295330000000 1.0
C      1  0.4132620000000  0.4803510000000  0.4999920000000 1.0
C      1  0.5871930000000  0.4803210000000  0.4999630000000 1.0
C      1  0.5002260000000  0.4723100000000  0.4999780000000 1.0
END
