TITL C-127515-157-3 27.2754593026301 125000 -727.178015752536 0 0 100 (C1) n - 1
REM
REM in /rds/project/t2_vol4/rds-t2-cs072/BORA/CARBON/from-Arr/AIRSS/Generating-Clusters/GAP-ML-2020/Higher-Symm/SD-CG/HFTN-CG
REM
REM
REM
REM
REM
REM ./C.cell (b20cbc046b6831c77cfcea5457e17084)
REM AIRSS Version 0.9.1 bugfix July 2018 build 013d7b7c2542+ Fri, 06 Jul 2018 19:26:36 +0100
REM compiler GCC version 9.3.0
REM options -cpp -mtune=generic -march=x86-64 -g -O0
REM seed -1668757685 -1879890759 1640559909 -186934098 -639094332 435026957 281232793 708384428 2029067827 -965262788 1366845355 539045836 548890489 1250923784 1817128015 -1862837292 -701034254 -669083034 855614908 -1810030195 1711914895 1560179 150125201 -686143504 -444639144 -414956290 618681827 -648930306 1332398014 -885787328 1565326317 2005999363 -1756833770
REM
CELL 1.54180   50.00000   50.00000   50.00000   90.00000   90.00000   90.00000
LATT -1
SFAC C  
C      1  0.5058450000000  0.4363010000000  0.4476650000000 1.0
C      1  0.5030520000000  0.4778380000000  0.5794970000000 1.0
C      1  0.5104300000000  0.5771010000000  0.4652100000000 1.0
C      1  0.5141960000000  0.4249290000000  0.5450150000000 1.0
C      1  0.5018980000000  0.5784330000000  0.5294670000000 1.0
C      1  0.5047740000000  0.4919550000000  0.4174940000000 1.0
C      1  0.4406260000000  0.5464500000000  0.5141430000000 1.0
C      1  0.4256840000000  0.4874150000000  0.4621470000000 1.0
C      1  0.4287940000000  0.4707390000000  0.5337760000000 1.0
C      1  0.5247800000000  0.5098040000000  0.4709360000000 1.0
C      1  0.5171320000000  0.4733620000000  0.5123730000000 1.0
C      1  0.5080040000000  0.5146700000000  0.5278340000000 1.0
C      1  0.4680510000000  0.4954750000000  0.5196210000000 1.0
C      1  0.4780180000000  0.5203830000000  0.4791770000000 1.0
C      1  0.4747550000000  0.4917670000000  0.4926980000000 1.0
C      1  0.4439980000000  0.4864990000000  0.4401690000000 1.0
C      1  0.4477070000000  0.4495170000000  0.5329510000000 1.0
C      1  0.4558870000000  0.5623760000000  0.5319050000000 1.0
C      1  0.5476030000000  0.5341770000000  0.5647350000000 1.0
C      1  0.5571480000000  0.5337740000000  0.4350190000000 1.0
C      1  0.5601310000000  0.4382590000000  0.4966300000000 1.0
C      1  0.4281500000000  0.5167180000000  0.5496230000000 1.0
C      1  0.4344300000000  0.5365480000000  0.4656000000000 1.0
C      1  0.4296100000000  0.4673970000000  0.4840030000000 1.0
C      1  0.5756680000000  0.4833510000000  0.4838310000000 1.0
C      1  0.5839120000000  0.5074430000000  0.5485170000000 1.0
C      1  0.5755200000000  0.5136940000000  0.4788570000000 1.0
C      1  0.4551700000000  0.4875150000000  0.5737610000000 1.0
C      1  0.4686270000000  0.5798110000000  0.4416510000000 1.0
C      1  0.4565450000000  0.4209900000000  0.4411400000000 1.0
C      1  0.4773970000000  0.4410870000000  0.4421450000000 1.0
C      1  0.4760560000000  0.4684350000000  0.5714130000000 1.0
C      1  0.4821680000000  0.5820290000000  0.4664750000000 1.0
C      1  0.5305480000000  0.5762140000000  0.4861650000000 1.0
C      1  0.5276300000000  0.4507600000000  0.4348650000000 1.0
C      1  0.5287460000000  0.4652260000000  0.5739580000000 1.0
C      1  0.5690780000000  0.4902150000000  0.4380850000000 1.0
C      1  0.5728390000000  0.4625750000000  0.5349830000000 1.0
C      1  0.5646930000000  0.5458560000000  0.5208030000000 1.0
C      1  0.4962350000000  0.5394390000000  0.4322440000000 1.0
C      1  0.5051250000000  0.4162150000000  0.4983650000000 1.0
C      1  0.4880530000000  0.5252570000000  0.5833430000000 1.0
C      1  0.4618600000000  0.5140260000000  0.5815010000000 1.0
C      1  0.4681120000000  0.5549450000000  0.4319180000000 1.0
C      1  0.4417750000000  0.4257160000000  0.4614980000000 1.0
C      1  0.4797730000000  0.4223960000000  0.5130940000000 1.0
C      1  0.4868190000000  0.5514290000000  0.5693690000000 1.0
C      1  0.4797450000000  0.5157190000000  0.4478670000000 1.0
C      1  0.5013590000000  0.4757350000000  0.4905800000000 1.0
C      1  0.4814890000000  0.5110170000000  0.5349280000000 1.0
C      1  0.5065540000000  0.5261100000000  0.4847650000000 1.0
C      1  0.5271500000000  0.4738880000000  0.4175010000000 1.0
C      1  0.5338190000000  0.4412060000000  0.5592370000000 1.0
C      1  0.5268230000000  0.5795360000000  0.5142810000000 1.0
C      1  0.5169920000000  0.4237020000000  0.4726010000000 1.0
C      1  0.5092330000000  0.5061660000000  0.5849440000000 1.0
C      1  0.5169760000000  0.5590700000000  0.4444570000000 1.0
C      1  0.5263180000000  0.4940100000000  0.5245140000000 1.0
C      1  0.5118370000000  0.5345640000000  0.5095010000000 1.0
C      1  0.5134600000000  0.4854380000000  0.4670790000000 1.0
C      1  0.4447550000000  0.5377150000000  0.4385610000000 1.0
C      1  0.4380170000000  0.4392020000000  0.4852580000000 1.0
C      1  0.4450030000000  0.5314220000000  0.5665600000000 1.0
C      1  0.4533360000000  0.4339920000000  0.5096870000000 1.0
C      1  0.4602990000000  0.5534800000000  0.5582370000000 1.0
C      1  0.4539190000000  0.5118800000000  0.4329290000000 1.0
C      1  0.4908750000000  0.4882490000000  0.4434880000000 1.0
C      1  0.4866910000000  0.4286460000000  0.5406740000000 1.0
C      1  0.4759550000000  0.5763390000000  0.5172030000000 1.0
C      1  0.4205220000000  0.5129730000000  0.4747170000000 1.0
C      1  0.4199810000000  0.4798510000000  0.5081420000000 1.0
C      1  0.4235920000000  0.5258890000000  0.5230450000000 1.0
C      1  0.5404390000000  0.5193400000000  0.4167460000000 1.0
C      1  0.5506690000000  0.4250590000000  0.5189950000000 1.0
C      1  0.5345350000000  0.5575620000000  0.5551550000000 1.0
C      1  0.5518210000000  0.5588120000000  0.4765740000000 1.0
C      1  0.5507720000000  0.4491530000000  0.4522130000000 1.0
C      1  0.5491480000000  0.4855130000000  0.5727870000000 1.0
C      1  0.5447280000000  0.4324700000000  0.4735410000000 1.0
C      1  0.5371000000000  0.5109920000000  0.5785970000000 1.0
C      1  0.5445630000000  0.5536330000000  0.4493630000000 1.0
C      1  0.5459720000000  0.5653270000000  0.5300140000000 1.0
C      1  0.5491970000000  0.4914570000000  0.4179610000000 1.0
C      1  0.5569700000000  0.4404350000000  0.5422930000000 1.0
C      1  0.5244900000000  0.4156040000000  0.5198730000000 1.0
C      1  0.5070650000000  0.5658170000000  0.5555090000000 1.0
C      1  0.5122210000000  0.5202250000000  0.4152490000000 1.0
C      1  0.4679520000000  0.4694890000000  0.4477000000000 1.0
C      1  0.4691420000000  0.4478560000000  0.5520950000000 1.0
C      1  0.4695650000000  0.5715740000000  0.4896650000000 1.0
C      1  0.4329050000000  0.4891120000000  0.5550640000000 1.0
C      1  0.4542460000000  0.5452570000000  0.4874060000000 1.0
C      1  0.4589310000000  0.4730770000000  0.4763930000000 1.0
C      1  0.5733490000000  0.5157770000000  0.4502020000000 1.0
C      1  0.5734250000000  0.4637380000000  0.5048710000000 1.0
C      1  0.5686490000000  0.5293340000000  0.5445480000000 1.0
C      1  0.5722320000000  0.4836410000000  0.5546960000000 1.0
C      1  0.5671790000000  0.5391030000000  0.4926950000000 1.0
C      1  0.5690340000000  0.4704890000000  0.4576390000000 1.0
C      1  0.4164090000000  0.5074450000000  0.5027550000000 1.0
END
