TITL C-123287-4072-10 439.400518638199 125000 -420.28735257923 0 0 63 (C1) n - 1
REM
REM in /rds/project/t2_vol4/rds-t2-cs072/BORA/CARBON/from-Arr/AIRSS/Generating-Clusters/GAP-ML-2020/Higher-Symm/SD-CG/HFTN-CG
REM
REM
REM
REM
REM
REM ./C.cell (b20cbc046b6831c77cfcea5457e17084)
REM AIRSS Version 0.9.1 bugfix July 2018 build 013d7b7c2542+ Fri, 06 Jul 2018 19:26:36 +0100
REM compiler GCC version 9.3.0
REM options -cpp -mtune=generic -march=x86-64 -g -O0
REM seed 1934860776 -1167403431 -785093909 1834737762 -144039621 -654619329 764114103 -629414805 -1576802265 91871060 101403768 -1958521397 1637223248 1135929286 -1959982709 970500610 -173422517 -1005334010 -904214867 -1133757077 -2030698945 242476388 330106553 331210026 -1230419726 -995576806 1305558675 -1940255199 1239589587 -1029371416 658503314 -1042908719 -174569645
REM
CELL 1.54180   50.00000   50.00000   50.00000   90.00000   90.00000   90.00000
LATT -1
SFAC C  
C      1  0.4868870000000  0.4784590000000  0.5032400000000 1.0
C      1  0.4540040000000  0.4592270000000  0.4737170000000 1.0
C      1  0.4800780000000  0.5114500000000  0.4778290000000 1.0
C      1  0.4703830000000  0.5242580000000  0.5034270000000 1.0
C      1  0.4701140000000  0.4985980000000  0.5194330000000 1.0
C      1  0.5255560000000  0.5267280000000  0.4987750000000 1.0
C      1  0.5103560000000  0.5142420000000  0.4764390000000 1.0
C      1  0.5257700000000  0.4885190000000  0.4790560000000 1.0
C      1  0.5166090000000  0.4821240000000  0.5063730000000 1.0
C      1  0.5267480000000  0.5058800000000  0.5202220000000 1.0
C      1  0.5335310000000  0.5500980000000  0.5358460000000 1.0
C      1  0.5263810000000  0.4822210000000  0.5621590000000 1.0
C      1  0.5335010000000  0.4394860000000  0.5023940000000 1.0
C      1  0.5350090000000  0.4846520000000  0.4387260000000 1.0
C      1  0.5357900000000  0.5527760000000  0.4612130000000 1.0
C      1  0.4675230000000  0.4512440000000  0.5340200000000 1.0
C      1  0.4668820000000  0.5242460000000  0.5541310000000 1.0
C      1  0.4747650000000  0.5700320000000  0.4954200000000 1.0
C      1  0.4713800000000  0.5220610000000  0.4503030000000 1.0
C      1  0.4662690000000  0.4323120000000  0.4723530000000 1.0
C      1  0.4426440000000  0.4585910000000  0.5208450000000 1.0
C      1  0.4431600000000  0.4220090000000  0.4859040000000 1.0
C      1  0.4424110000000  0.5195220000000  0.4554520000000 1.0
C      1  0.4480050000000  0.5674250000000  0.4961670000000 1.0
C      1  0.4408630000000  0.5273800000000  0.5477090000000 1.0
C      1  0.5565440000000  0.5356210000000  0.5377230000000 1.0
C      1  0.5619230000000  0.5486720000000  0.4661700000000 1.0
C      1  0.5590830000000  0.4904660000000  0.4492280000000 1.0
C      1  0.5600910000000  0.4414760000000  0.5082540000000 1.0
C      1  0.5523990000000  0.4771550000000  0.5698670000000 1.0
C      1  0.5094910000000  0.4619080000000  0.5505450000000 1.0
C      1  0.5158590000000  0.4416590000000  0.4777060000000 1.0
C      1  0.5157360000000  0.5080060000000  0.4325250000000 1.0
C      1  0.5187250000000  0.5659140000000  0.4813240000000 1.0
C      1  0.5129000000000  0.5370100000000  0.5518870000000 1.0
C      1  0.4869700000000  0.5436560000000  0.5442790000000 1.0
C      1  0.4922810000000  0.5659210000000  0.4722710000000 1.0
C      1  0.4893270000000  0.5002700000000  0.4363300000000 1.0
C      1  0.4907090000000  0.4339660000000  0.4866600000000 1.0
C      1  0.4820720000000  0.4688060000000  0.5520040000000 1.0
C      1  0.4427510000000  0.5395690000000  0.5006310000000 1.0
C      1  0.4287560000000  0.5272420000000  0.5234310000000 1.0
C      1  0.4426580000000  0.4863760000000  0.5177260000000 1.0
C      1  0.4373420000000  0.4470450000000  0.4959920000000 1.0
C      1  0.4308480000000  0.5195260000000  0.4800580000000 1.0
C      1  0.5661350000000  0.4673980000000  0.5181070000000 1.0
C      1  0.5591860000000  0.4812580000000  0.5435110000000 1.0
C      1  0.5574360000000  0.5079570000000  0.5284270000000 1.0
C      1  0.5531840000000  0.5279420000000  0.4832760000000 1.0
C      1  0.5556780000000  0.4989850000000  0.4776340000000 1.0
C      1  0.5162150000000  0.5318490000000  0.4508180000000 1.0
C      1  0.5170110000000  0.5525230000000  0.5086290000000 1.0
C      1  0.5124780000000  0.5070760000000  0.5478630000000 1.0
C      1  0.5156450000000  0.4545320000000  0.5219000000000 1.0
C      1  0.5171900000000  0.4676270000000  0.4583350000000 1.0
C      1  0.4907290000000  0.4766640000000  0.4512920000000 1.0
C      1  0.4875770000000  0.4484710000000  0.5129460000000 1.0
C      1  0.4826070000000  0.4989860000000  0.5473090000000 1.0
C      1  0.4874960000000  0.5487420000000  0.5149160000000 1.0
C      1  0.4898890000000  0.5455610000000  0.4515000000000 1.0
C      1  0.4247130000000  0.5042090000000  0.5051230000000 1.0
C      1  0.5682490000000  0.4927090000000  0.5039420000000 1.0
C      1  0.4749650000000  0.4798980000000  0.4762130000000 1.0
END
