TITL C-129397-7764-2 -104.203000460697 125000 -1331.93738587507 0 0 188 (C1) n - 1
REM
REM in /rds/project/t2_vol4/rds-t2-cs072/BORA/CARBON/from-Arr/AIRSS/Generating-Clusters/GAP-ML-2020/Higher-Symm/SD-CG/HFTN-CG/C160-200
REM
REM
REM
REM
REM
REM ./C.cell (6b4489405718ea1b717e0baf1da4c2d9)
REM AIRSS Version 0.9.1 bugfix July 2018 build 013d7b7c2542+ Fri, 06 Jul 2018 19:26:36 +0100
REM compiler GCC version 9.3.0
REM options -cpp -mtune=generic -march=x86-64 -g -O0
REM seed -1166489892 1461651195 1529156966 500276491 -1576054240 -2051035615 -1214457650 28614587 -1083400466 1983084517 -684073882 -877984798 186081708 -243147902 -735887320 2111142995 1902462170 -1894773045 803511531 -859483902 -1444075226 -1431538901 -1647781541 -1000190931 -1655264111 1883069053 -1441570656 -2106620262 882646513 1103080471 103016880 490499330 -602657861
REM
CELL 1.54180   50.00000   50.00000   50.00000   90.00000   90.00000   90.00000
LATT -1
SFAC C  
C      1  0.4198840000000  0.5747640000000  0.4955700000000 1.0
C      1  0.4414940000000  0.5241920000000  0.4878570000000 1.0
C      1  0.4109080000000  0.4900590000000  0.5641710000000 1.0
C      1  0.5448860000000  0.4624890000000  0.4870880000000 1.0
C      1  0.3900150000000  0.4857850000000  0.5188350000000 1.0
C      1  0.5807860000000  0.4642690000000  0.5645090000000 1.0
C      1  0.4829230000000  0.3996140000000  0.5418520000000 1.0
C      1  0.5616330000000  0.4573230000000  0.5428090000000 1.0
C      1  0.5304090000000  0.5463140000000  0.4865060000000 1.0
C      1  0.4918610000000  0.4132290000000  0.4255060000000 1.0
C      1  0.4977560000000  0.5727110000000  0.4255870000000 1.0
C      1  0.5583200000000  0.5510380000000  0.5875640000000 1.0
C      1  0.4186780000000  0.5299520000000  0.4654750000000 1.0
C      1  0.5939890000000  0.4880330000000  0.5572960000000 1.0
C      1  0.4173030000000  0.4865860000000  0.4420970000000 1.0
C      1  0.4159680000000  0.4267000000000  0.5387110000000 1.0
C      1  0.4668530000000  0.4829270000000  0.4188280000000 1.0
C      1  0.4283900000000  0.4678070000000  0.4880650000000 1.0
C      1  0.5359000000000  0.4214720000000  0.4294800000000 1.0
C      1  0.5109870000000  0.3985850000000  0.5398390000000 1.0
C      1  0.5695880000000  0.4636940000000  0.5898750000000 1.0
C      1  0.4891790000000  0.4716320000000  0.5986950000000 1.0
C      1  0.4981150000000  0.5427900000000  0.4341980000000 1.0
C      1  0.5541100000000  0.4125320000000  0.5369660000000 1.0
C      1  0.5422090000000  0.5914580000000  0.4119470000000 1.0
C      1  0.4442500000000  0.5019110000000  0.5286300000000 1.0
C      1  0.5914680000000  0.4367900000000  0.5100970000000 1.0
C      1  0.4959250000000  0.4385610000000  0.4132970000000 1.0
C      1  0.5025790000000  0.4713830000000  0.4572280000000 1.0
C      1  0.4238760000000  0.5147680000000  0.5093070000000 1.0
C      1  0.5837620000000  0.5558510000000  0.5480470000000 1.0
C      1  0.5334930000000  0.4835490000000  0.5910790000000 1.0
C      1  0.5252170000000  0.5706230000000  0.4091280000000 1.0
C      1  0.4768660000000  0.5037780000000  0.5598950000000 1.0
C      1  0.4819870000000  0.5376920000000  0.4584120000000 1.0
C      1  0.5290840000000  0.6019990000000  0.4554190000000 1.0
C      1  0.4117820000000  0.4582480000000  0.4463360000000 1.0
C      1  0.5281390000000  0.5070360000000  0.4518900000000 1.0
C      1  0.4394240000000  0.4522780000000  0.5107390000000 1.0
C      1  0.5006720000000  0.4486050000000  0.4748290000000 1.0
C      1  0.4062670000000  0.4528320000000  0.4740020000000 1.0
C      1  0.4681380000000  0.4949210000000  0.5124910000000 1.0
C      1  0.4617770000000  0.5007640000000  0.4850040000000 1.0
C      1  0.5491890000000  0.4876660000000  0.5011600000000 1.0
C      1  0.5492220000000  0.3964780000000  0.5142990000000 1.0
C      1  0.5518730000000  0.5502010000000  0.5247240000000 1.0
C      1  0.4754710000000  0.4486910000000  0.5583900000000 1.0
C      1  0.4074000000000  0.5027370000000  0.4648410000000 1.0
C      1  0.4885070000000  0.5011330000000  0.4057400000000 1.0
C      1  0.4388920000000  0.4972870000000  0.4232130000000 1.0
C      1  0.5421410000000  0.5271870000000  0.5392960000000 1.0
C      1  0.5153030000000  0.4496440000000  0.5231470000000 1.0
C      1  0.4335620000000  0.3919350000000  0.4935440000000 1.0
C      1  0.4339590000000  0.5691310000000  0.5453260000000 1.0
C      1  0.5161110000000  0.4950440000000  0.3995200000000 1.0
C      1  0.5529570000000  0.5023240000000  0.5481870000000 1.0
C      1  0.4949730000000  0.4843430000000  0.5211470000000 1.0
C      1  0.4927630000000  0.5829740000000  0.4889260000000 1.0
C      1  0.5325050000000  0.5589510000000  0.5918230000000 1.0
C      1  0.4553020000000  0.5968940000000  0.4639950000000 1.0
C      1  0.4955320000000  0.4495420000000  0.5801200000000 1.0
C      1  0.4924950000000  0.5619200000000  0.5346700000000 1.0
C      1  0.5955010000000  0.5095990000000  0.5080150000000 1.0
C      1  0.5753980000000  0.5079060000000  0.5697240000000 1.0
C      1  0.5676310000000  0.5344880000000  0.4127000000000 1.0
C      1  0.5666650000000  0.5599280000000  0.4520780000000 1.0
C      1  0.5799480000000  0.5903780000000  0.5136950000000 1.0
C      1  0.4743790000000  0.5157170000000  0.5885920000000 1.0
C      1  0.5229450000000  0.5705260000000  0.5247850000000 1.0
C      1  0.4253160000000  0.4113810000000  0.4527120000000 1.0
C      1  0.4145800000000  0.4079310000000  0.4788560000000 1.0
C      1  0.5222590000000  0.4474610000000  0.4950080000000 1.0
C      1  0.5699550000000  0.5095510000000  0.4903650000000 1.0
C      1  0.5378500000000  0.5419030000000  0.4098310000000 1.0
C      1  0.5361880000000  0.5879460000000  0.5475030000000 1.0
C      1  0.4509090000000  0.4339130000000  0.4220870000000 1.0
C      1  0.4784380000000  0.5550810000000  0.4800420000000 1.0
C      1  0.5178150000000  0.4971590000000  0.4996420000000 1.0
C      1  0.4834590000000  0.5986890000000  0.4655340000000 1.0
C      1  0.4601410000000  0.4757640000000  0.5648340000000 1.0
C      1  0.4560000000000  0.3858840000000  0.4768490000000 1.0
C      1  0.4794550000000  0.3824300000000  0.4934820000000 1.0
C      1  0.4607310000000  0.5446530000000  0.4983970000000 1.0
C      1  0.4668160000000  0.4443350000000  0.5081490000000 1.0
C      1  0.4236510000000  0.4558500000000  0.5360330000000 1.0
C      1  0.4424740000000  0.3914600000000  0.5208160000000 1.0
C      1  0.4989330000000  0.5181680000000  0.6039300000000 1.0
C      1  0.5074880000000  0.3853610000000  0.4891730000000 1.0
C      1  0.5336150000000  0.4726830000000  0.4135400000000 1.0
C      1  0.6058000000000  0.5818150000000  0.5175810000000 1.0
C      1  0.4876560000000  0.4544450000000  0.5278660000000 1.0
C      1  0.5075080000000  0.5451300000000  0.6011830000000 1.0
C      1  0.4496990000000  0.3967380000000  0.4507260000000 1.0
C      1  0.5257330000000  0.5332850000000  0.4384630000000 1.0
C      1  0.5825860000000  0.5417290000000  0.4354550000000 1.0
C      1  0.5419850000000  0.4543270000000  0.5908940000000 1.0
C      1  0.5706290000000  0.5894530000000  0.4527560000000 1.0
C      1  0.5629850000000  0.4832300000000  0.5275690000000 1.0
C      1  0.4716420000000  0.5419250000000  0.5237200000000 1.0
C      1  0.5304380000000  0.4142180000000  0.5541730000000 1.0
C      1  0.5339600000000  0.5163600000000  0.3939380000000 1.0
C      1  0.5151120000000  0.5253420000000  0.5048660000000 1.0
C      1  0.5494470000000  0.4647170000000  0.4588360000000 1.0
C      1  0.4949520000000  0.6080180000000  0.5341250000000 1.0
C      1  0.4726360000000  0.4470110000000  0.4808150000000 1.0
C      1  0.6045410000000  0.5552470000000  0.5271890000000 1.0
C      1  0.5776180000000  0.5391770000000  0.5721320000000 1.0
C      1  0.5789070000000  0.4836740000000  0.4416040000000 1.0
C      1  0.4700850000000  0.4531230000000  0.4129970000000 1.0
C      1  0.4403000000000  0.5946580000000  0.4898200000000 1.0
C      1  0.4172040000000  0.5302180000000  0.5714670000000 1.0
C      1  0.5841940000000  0.5048860000000  0.4615240000000 1.0
C      1  0.5834720000000  0.4218130000000  0.4859580000000 1.0
C      1  0.3994180000000  0.4290570000000  0.4892190000000 1.0
C      1  0.4815180000000  0.5092660000000  0.4646760000000 1.0
C      1  0.5584360000000  0.4147770000000  0.4465070000000 1.0
C      1  0.4754280000000  0.4828430000000  0.4487680000000 1.0
C      1  0.5231080000000  0.5806520000000  0.5743230000000 1.0
C      1  0.5283000000000  0.4859510000000  0.5589610000000 1.0
C      1  0.4846450000000  0.5286640000000  0.4107430000000 1.0
C      1  0.4392940000000  0.5257380000000  0.4188770000000 1.0
C      1  0.4420780000000  0.5445010000000  0.5638940000000 1.0
C      1  0.5503610000000  0.6022430000000  0.4366700000000 1.0
C      1  0.4624490000000  0.4856900000000  0.5941410000000 1.0
C      1  0.5083520000000  0.4985290000000  0.4718000000000 1.0
C      1  0.5644100000000  0.5760190000000  0.5365130000000 1.0
C      1  0.5026350000000  0.5950440000000  0.4458950000000 1.0
C      1  0.5766340000000  0.5580350000000  0.4807910000000 1.0
C      1  0.3987950000000  0.5270210000000  0.5487340000000 1.0
C      1  0.4345060000000  0.4797620000000  0.5498500000000 1.0
C      1  0.4075690000000  0.5366850000000  0.5235840000000 1.0
C      1  0.5725200000000  0.4332590000000  0.5321300000000 1.0
C      1  0.5291000000000  0.4783150000000  0.4431030000000 1.0
C      1  0.5617740000000  0.5087630000000  0.4011900000000 1.0
C      1  0.4522280000000  0.5898660000000  0.5404110000000 1.0
C      1  0.5244910000000  0.4435690000000  0.4135860000000 1.0
C      1  0.5391550000000  0.5944140000000  0.4815630000000 1.0
C      1  0.5145260000000  0.5241660000000  0.5360790000000 1.0
C      1  0.3922310000000  0.5000150000000  0.5445890000000 1.0
C      1  0.4569270000000  0.4722100000000  0.4722070000000 1.0
C      1  0.4143530000000  0.5604450000000  0.4720180000000 1.0
C      1  0.4605670000000  0.5429970000000  0.4106740000000 1.0
C      1  0.5036720000000  0.4985790000000  0.5464460000000 1.0
C      1  0.5097390000000  0.4912650000000  0.6058510000000 1.0
C      1  0.4377840000000  0.4099390000000  0.5422450000000 1.0
C      1  0.4807310000000  0.5883190000000  0.5506510000000 1.0
C      1  0.6080040000000  0.5348780000000  0.5063650000000 1.0
C      1  0.4095020000000  0.4925660000000  0.4939130000000 1.0
C      1  0.4589250000000  0.5228010000000  0.5432480000000 1.0
C      1  0.5212150000000  0.5756540000000  0.4954820000000 1.0
C      1  0.5578710000000  0.5401920000000  0.4961910000000 1.0
C      1  0.5320760000000  0.4570660000000  0.5482740000000 1.0
C      1  0.3954330000000  0.4324090000000  0.5175310000000 1.0
C      1  0.5755860000000  0.4572010000000  0.4502380000000 1.0
C      1  0.4668770000000  0.5705390000000  0.4205100000000 1.0
C      1  0.6025170000000  0.5448150000000  0.4793310000000 1.0
C      1  0.4643990000000  0.4100510000000  0.4303760000000 1.0
C      1  0.5984390000000  0.5282630000000  0.4558820000000 1.0
C      1  0.5954740000000  0.4862140000000  0.5261930000000 1.0
C      1  0.5219090000000  0.3893910000000  0.5141040000000 1.0
C      1  0.4261980000000  0.5663960000000  0.4466020000000 1.0
C      1  0.4247000000000  0.5393440000000  0.4380410000000 1.0
C      1  0.5628950000000  0.4916150000000  0.5922230000000 1.0
C      1  0.4174210000000  0.5628660000000  0.5221950000000 1.0
C      1  0.5680140000000  0.5892010000000  0.4839680000000 1.0
C      1  0.5048120000000  0.5446820000000  0.5519980000000 1.0
C      1  0.4486980000000  0.5824350000000  0.4397510000000 1.0
C      1  0.3939700000000  0.4596210000000  0.5261740000000 1.0
C      1  0.4641730000000  0.4191220000000  0.5525480000000 1.0
C      1  0.5242450000000  0.4392370000000  0.5721870000000 1.0
C      1  0.5629380000000  0.4848580000000  0.4151270000000 1.0
C      1  0.4822370000000  0.6029460000000  0.5086280000000 1.0
C      1  0.4548560000000  0.6004780000000  0.5133530000000 1.0
C      1  0.4847630000000  0.5600910000000  0.5918080000000 1.0
C      1  0.5801360000000  0.4306320000000  0.4580170000000 1.0
C      1  0.5217870000000  0.3913750000000  0.4645350000000 1.0
C      1  0.4700460000000  0.3856700000000  0.5204040000000 1.0
C      1  0.4941880000000  0.5822540000000  0.5763720000000 1.0
C      1  0.5377910000000  0.5505080000000  0.4578480000000 1.0
C      1  0.5211620000000  0.6100150000000  0.5378630000000 1.0
C      1  0.6037510000000  0.4600300000000  0.5176130000000 1.0
C      1  0.4364590000000  0.4935760000000  0.6048020000000 1.0
C      1  0.5152560000000  0.4041180000000  0.4388380000000 1.0
C      1  0.5639540000000  0.4011820000000  0.4905770000000 1.0
C      1  0.5492530000000  0.3969160000000  0.4665860000000 1.0
C      1  0.4188300000000  0.5055050000000  0.5870810000000 1.0
C      1  0.4632080000000  0.5431730000000  0.5850470000000 1.0
C      1  0.4256620000000  0.4352020000000  0.4362420000000 1.0
END
