TITL C-126798-9259-11 -0.0982170773342991 125000 -799.805121943827 0 0 115 (C2) n - 1
REM
REM in /rds/project/t2_vol4/rds-t2-cs072/BORA/CARBON/from-Arr/AIRSS/Generating-Clusters/GAP-ML-2020/Higher-Symm/SD-CG/HFTN-CG
REM
REM
REM
REM
REM
REM ./C.cell (b20cbc046b6831c77cfcea5457e17084)
REM AIRSS Version 0.9.1 bugfix July 2018 build 013d7b7c2542+ Fri, 06 Jul 2018 19:26:36 +0100
REM compiler GCC version 9.3.0
REM options -cpp -mtune=generic -march=x86-64 -g -O0
REM seed 535482782 -1100201227 1669724723 2080790400 -521063976 667229369 2001747163 -1409299114 1469099997 -1139822665 -1526334174 1252052117 1614643333 1198315763 1859178099 -612299586 -441649517 1965790356 514992228 1161724768 -1792216873 1808187696 -952123671 -1185182518 1870151594 -846591172 1578130727 -921460820 -1940249519 871026854 -1062447007 314184293 -1022626669
REM
CELL 1.54180   50.00000   50.00000   50.00000   90.00000   90.00000   90.00000
LATT -1
SFAC C  
C      1  0.5538890000000  0.4670170000000  0.5639300000000 1.0
C      1  0.4458570000000  0.4670480000000  0.4354290000000 1.0
C      1  0.5543750000000  0.5320580000000  0.4352090000000 1.0
C      1  0.4453640000000  0.5320170000000  0.5641870000000 1.0
C      1  0.4816540000000  0.5567780000000  0.4393160000000 1.0
C      1  0.5180820000000  0.5567460000000  0.5600930000000 1.0
C      1  0.4814720000000  0.4429350000000  0.5601180000000 1.0
C      1  0.5182750000000  0.4429710000000  0.4392280000000 1.0
C      1  0.6045410000000  0.4537920000000  0.4690660000000 1.0
C      1  0.3952050000000  0.4537650000000  0.5302850000000 1.0
C      1  0.5987580000000  0.5352170000000  0.5223080000000 1.0
C      1  0.4009810000000  0.5352200000000  0.4770890000000 1.0
C      1  0.4028110000000  0.5138270000000  0.5234530000000 1.0
C      1  0.5969300000000  0.5138490000000  0.4759330000000 1.0
C      1  0.4028880000000  0.4897230000000  0.4719450000000 1.0
C      1  0.5968550000000  0.4897170000000  0.5274270000000 1.0
C      1  0.4765610000000  0.4689830000000  0.4704840000000 1.0
C      1  0.5231840000000  0.4689680000000  0.5288770000000 1.0
C      1  0.4762480000000  0.5309510000000  0.5289330000000 1.0
C      1  0.5234910000000  0.5309700000000  0.4704620000000 1.0
C      1  0.4308840000000  0.4527640000000  0.4542620000000 1.0
C      1  0.5688630000000  0.4527450000000  0.5450890000000 1.0
C      1  0.4312200000000  0.5483020000000  0.5468530000000 1.0
C      1  0.5685170000000  0.5483350000000  0.4525520000000 1.0
C      1  0.5052100000000  0.5744650000000  0.4861340000000 1.0
C      1  0.4945250000000  0.5744570000000  0.5132850000000 1.0
C      1  0.5055900000000  0.4257060000000  0.5131710000000 1.0
C      1  0.4941590000000  0.4257130000000  0.4861650000000 1.0
C      1  0.4377450000000  0.5041400000000  0.5624130000000 1.0
C      1  0.5619970000000  0.5041810000000  0.4369670000000 1.0
C      1  0.4391790000000  0.4950400000000  0.4338060000000 1.0
C      1  0.5605640000000  0.4950090000000  0.5655690000000 1.0
C      1  0.4134700000000  0.4967860000000  0.5468590000000 1.0
C      1  0.5862720000000  0.4968210000000  0.4525160000000 1.0
C      1  0.4148070000000  0.5026730000000  0.4475450000000 1.0
C      1  0.5849350000000  0.5026510000000  0.5518340000000 1.0
C      1  0.5465360000000  0.5180870000000  0.5106400000000 1.0
C      1  0.4532050000000  0.5180890000000  0.4887480000000 1.0
C      1  0.5466100000000  0.4823300000000  0.4888350000000 1.0
C      1  0.4531340000000  0.4823200000000  0.5105330000000 1.0
C      1  0.5302290000000  0.4591780000000  0.4852580000000 1.0
C      1  0.4695170000000  0.4591670000000  0.5140970000000 1.0
C      1  0.5296860000000  0.5408510000000  0.5139680000000 1.0
C      1  0.4700520000000  0.5408560000000  0.4854320000000 1.0
C      1  0.5821690000000  0.4402600000000  0.5083890000000 1.0
C      1  0.4175790000000  0.4402570000000  0.4909550000000 1.0
C      1  0.5817030000000  0.5614750000000  0.4884170000000 1.0
C      1  0.4180330000000  0.5614610000000  0.5109960000000 1.0
C      1  0.5131660000000  0.4251390000000  0.4632970000000 1.0
C      1  0.4865830000000  0.4251180000000  0.5360380000000 1.0
C      1  0.5141310000000  0.5744690000000  0.5358990000000 1.0
C      1  0.4856040000000  0.5744880000000  0.4635200000000 1.0
C      1  0.5863050000000  0.5600580000000  0.5151730000000 1.0
C      1  0.4134310000000  0.5600580000000  0.4842380000000 1.0
C      1  0.5871050000000  0.4357330000000  0.4812920000000 1.0
C      1  0.4126430000000  0.4357140000000  0.5180500000000 1.0
C      1  0.5272240000000  0.4608950000000  0.5578430000000 1.0
C      1  0.4725220000000  0.4609250000000  0.4415130000000 1.0
C      1  0.5275290000000  0.5383060000000  0.4409240000000 1.0
C      1  0.4722090000000  0.5382700000000  0.5584750000000 1.0
C      1  0.5394750000000  0.5694030000000  0.5254020000000 1.0
C      1  0.4602610000000  0.5694140000000  0.4740140000000 1.0
C      1  0.5387250000000  0.4309150000000  0.4727700000000 1.0
C      1  0.4610230000000  0.4308960000000  0.5265680000000 1.0
C      1  0.4932470000000  0.4774010000000  0.5232600000000 1.0
C      1  0.5064970000000  0.4774150000000  0.4761040000000 1.0
C      1  0.4935940000000  0.5222440000000  0.4762370000000 1.0
C      1  0.5061460000000  0.5222310000000  0.5231530000000 1.0
C      1  0.5648310000000  0.4303450000000  0.4627360000000 1.0
C      1  0.4349180000000  0.4303180000000  0.5366030000000 1.0
C      1  0.5660170000000  0.5679250000000  0.5343410000000 1.0
C      1  0.4337180000000  0.5679380000000  0.4650750000000 1.0
C      1  0.4605200000000  0.4860520000000  0.5656440000000 1.0
C      1  0.5392230000000  0.4860920000000  0.4337260000000 1.0
C      1  0.4612450000000  0.5138460000000  0.4328590000000 1.0
C      1  0.5384950000000  0.5138120000000  0.5665260000000 1.0
C      1  0.4984880000000  0.5379500000000  0.5668430000000 1.0
C      1  0.5012500000000  0.5379880000000  0.4325560000000 1.0
C      1  0.4988080000000  0.4618630000000  0.4329550000000 1.0
C      1  0.5009380000000  0.4618260000000  0.5664010000000 1.0
C      1  0.5896650000000  0.4687560000000  0.4509560000000 1.0
C      1  0.4100800000000  0.4687200000000  0.5484040000000 1.0
C      1  0.5876710000000  0.5299660000000  0.5483100000000 1.0
C      1  0.4120680000000  0.5299850000000  0.4510840000000 1.0
C      1  0.5428620000000  0.5416770000000  0.5657900000000 1.0
C      1  0.4568770000000  0.5417100000000  0.4336120000000 1.0
C      1  0.5429620000000  0.4582230000000  0.4330750000000 1.0
C      1  0.4567840000000  0.4581820000000  0.5662790000000 1.0
C      1  0.4699180000000  0.4442580000000  0.4862660000000 1.0
C      1  0.5298300000000  0.4442530000000  0.5130800000000 1.0
C      1  0.4701410000000  0.5563010000000  0.5134330000000 1.0
C      1  0.5295960000000  0.5563110000000  0.4859760000000 1.0
C      1  0.5681430000000  0.4499620000000  0.4419990000000 1.0
C      1  0.4316030000000  0.4499230000000  0.5573500000000 1.0
C      1  0.5682490000000  0.5494400000000  0.5559030000000 1.0
C      1  0.4314890000000  0.5494660000000  0.4435020000000 1.0
C      1  0.4899570000000  0.5117800000000  0.4439290000000 1.0
C      1  0.5097840000000  0.5117490000000  0.5554550000000 1.0
C      1  0.4894130000000  0.4880400000000  0.5550650000000 1.0
C      1  0.5103300000000  0.4880720000000  0.4443060000000 1.0
C      1  0.5907710000000  0.4615150000000  0.5277730000000 1.0
C      1  0.4089750000000  0.4615220000000  0.4715830000000 1.0
C      1  0.5907720000000  0.5407900000000  0.4692510000000 1.0
C      1  0.4089670000000  0.5407640000000  0.5301500000000 1.0
C      1  0.5578530000000  0.4362860000000  0.5233270000000 1.0
C      1  0.4418950000000  0.4362930000000  0.4760150000000 1.0
C      1  0.5570430000000  0.5648200000000  0.4740670000000 1.0
C      1  0.4426930000000  0.5648000000000  0.5253470000000 1.0
C      1  0.5434140000000  0.4891980000000  0.5172370000000 1.0
C      1  0.4563290000000  0.4892030000000  0.4821340000000 1.0
C      1  0.5441810000000  0.5116300000000  0.4823120000000 1.0
C      1  0.4555600000000  0.5116160000000  0.5170720000000 1.0
C      1  0.6019760000000  0.5109250000000  0.5064260000000 1.0
C      1  0.3977650000000  0.5109180000000  0.4929570000000 1.0
C      1  0.4998710000000  0.4996660000000  0.4996890000000 1.0
END
