TITL C-123183-8052-1 0.0998555735755157 125000 -596.588359099364 0 0 88 (C1) n - 1
REM
REM in /rds/project/t2_vol4/rds-t2-cs072/BORA/CARBON/from-Arr/AIRSS/Generating-Clusters/GAP-ML-2020/Higher-Symm/SD-CG/HFTN-CG
REM
REM
REM
REM
REM
REM ./C.cell (b20cbc046b6831c77cfcea5457e17084)
REM AIRSS Version 0.9.1 bugfix July 2018 build 013d7b7c2542+ Fri, 06 Jul 2018 19:26:36 +0100
REM compiler GCC version 9.3.0
REM options -cpp -mtune=generic -march=x86-64 -g -O0
REM seed 1958997055 588398692 -1225030150 478685698 -1950976468 -1642304496 1805563601 1421996776 -432376907 -559750420 1095940692 31247346 1144152360 -1986355764 1043540920 1634250897 -1902852203 1561235014 -801802938 247891402 1934700699 1372853023 1635969639 1721755263 -854865573 839974305 -1581645352 2094889154 1679770600 1966269747 1993524860 -1532041650 1294812343
REM
CELL 1.54180   50.00000   50.00000   50.00000   90.00000   90.00000   90.00000
LATT -1
SFAC C  
C      1  0.5075080000000  0.4970100000000  0.4493820000000 1.0
C      1  0.5225600000000  0.5113990000000  0.4714360000000 1.0
C      1  0.5040510000000  0.5254370000000  0.4867330000000 1.0
C      1  0.5172150000000  0.5417190000000  0.5056360000000 1.0
C      1  0.5038660000000  0.5424800000000  0.5302440000000 1.0
C      1  0.5142210000000  0.5171780000000  0.5348710000000 1.0
C      1  0.4967590000000  0.4975190000000  0.5308110000000 1.0
C      1  0.5136270000000  0.4757520000000  0.5288910000000 1.0
C      1  0.4976440000000  0.4673140000000  0.5094220000000 1.0
C      1  0.5029870000000  0.4670350000000  0.4827190000000 1.0
C      1  0.5230310000000  0.4819780000000  0.4688860000000 1.0
C      1  0.5149430000000  0.5606930000000  0.5532620000000 1.0
C      1  0.5155060000000  0.5225170000000  0.5819970000000 1.0
C      1  0.5179010000000  0.4728480000000  0.5786200000000 1.0
C      1  0.5160480000000  0.4338550000000  0.5526370000000 1.0
C      1  0.5186960000000  0.4145350000000  0.5075680000000 1.0
C      1  0.5175110000000  0.4225540000000  0.4613400000000 1.0
C      1  0.5222900000000  0.4529130000000  0.4204400000000 1.0
C      1  0.5157490000000  0.5011980000000  0.4202570000000 1.0
C      1  0.5173730000000  0.5476180000000  0.4272640000000 1.0
C      1  0.5168350000000  0.5792060000000  0.4674260000000 1.0
C      1  0.5195580000000  0.5894420000000  0.5142890000000 1.0
C      1  0.5416090000000  0.5357140000000  0.4325020000000 1.0
C      1  0.5433890000000  0.5731080000000  0.4762660000000 1.0
C      1  0.5429960000000  0.5769170000000  0.5056180000000 1.0
C      1  0.5422230000000  0.5507290000000  0.5557190000000 1.0
C      1  0.5409420000000  0.5257880000000  0.5698930000000 1.0
C      1  0.5429900000000  0.4693300000000  0.5671120000000 1.0
C      1  0.5421920000000  0.4455800000000  0.5507820000000 1.0
C      1  0.5440010000000  0.4240380000000  0.5003520000000 1.0
C      1  0.5434520000000  0.4284810000000  0.4714690000000 1.0
C      1  0.5456210000000  0.4600310000000  0.4305480000000 1.0
C      1  0.5444650000000  0.5085020000000  0.4224410000000 1.0
C      1  0.4737420000000  0.4622200000000  0.5670250000000 1.0
C      1  0.4778330000000  0.4260160000000  0.5222700000000 1.0
C      1  0.4750850000000  0.4223430000000  0.4937940000000 1.0
C      1  0.4823120000000  0.4481430000000  0.4418180000000 1.0
C      1  0.4808830000000  0.4718780000000  0.4261060000000 1.0
C      1  0.4748370000000  0.5314020000000  0.4340530000000 1.0
C      1  0.4805050000000  0.5528590000000  0.4515610000000 1.0
C      1  0.4763180000000  0.5787860000000  0.5010490000000 1.0
C      1  0.4783380000000  0.5767310000000  0.5297530000000 1.0
C      1  0.4733500000000  0.5415800000000  0.5688030000000 1.0
C      1  0.4780890000000  0.4895010000000  0.5760900000000 1.0
C      1  0.5009450000000  0.4162630000000  0.4843620000000 1.0
C      1  0.5072300000000  0.4355590000000  0.4385080000000 1.0
C      1  0.5052670000000  0.4750350000000  0.4121570000000 1.0
C      1  0.4987640000000  0.5263240000000  0.4197510000000 1.0
C      1  0.5051630000000  0.5658410000000  0.4456330000000 1.0
C      1  0.5014770000000  0.5870710000000  0.4910440000000 1.0
C      1  0.5047270000000  0.5839630000000  0.5383830000000 1.0
C      1  0.4991230000000  0.5450230000000  0.5739910000000 1.0
C      1  0.5041100000000  0.4963460000000  0.5861600000000 1.0
C      1  0.4999800000000  0.4523220000000  0.5679020000000 1.0
C      1  0.5041490000000  0.4191260000000  0.5316550000000 1.0
C      1  0.4641250000000  0.5503450000000  0.4987760000000 1.0
C      1  0.4743000000000  0.5464480000000  0.5283550000000 1.0
C      1  0.4599580000000  0.5268080000000  0.5474770000000 1.0
C      1  0.4720490000000  0.4990030000000  0.5467420000000 1.0
C      1  0.4578950000000  0.4711390000000  0.5399640000000 1.0
C      1  0.4714230000000  0.4561890000000  0.5179290000000 1.0
C      1  0.4597790000000  0.4490290000000  0.4895400000000 1.0
C      1  0.4770010000000  0.4630420000000  0.4681000000000 1.0
C      1  0.4782550000000  0.4895370000000  0.4515420000000 1.0
C      1  0.4624750000000  0.5138560000000  0.4570770000000 1.0
C      1  0.4777930000000  0.5347050000000  0.4771290000000 1.0
C      1  0.5557860000000  0.5465210000000  0.4784250000000 1.0
C      1  0.5475110000000  0.5466340000000  0.5079920000000 1.0
C      1  0.5572370000000  0.5378860000000  0.5337580000000 1.0
C      1  0.5582550000000  0.5120110000000  0.5479530000000 1.0
C      1  0.5590140000000  0.4844050000000  0.5467430000000 1.0
C      1  0.5595630000000  0.4594160000000  0.5301580000000 1.0
C      1  0.5606620000000  0.4490550000000  0.5044510000000 1.0
C      1  0.5597780000000  0.4527800000000  0.4750990000000 1.0
C      1  0.5496590000000  0.4736700000000  0.4565640000000 1.0
C      1  0.5585260000000  0.4998690000000  0.4464160000000 1.0
C      1  0.5476650000000  0.5248740000000  0.4609780000000 1.0
C      1  0.4299940000000  0.4511590000000  0.4903060000000 1.0
C      1  0.4163380000000  0.4618020000000  0.4671550000000 1.0
C      1  0.4210020000000  0.4855310000000  0.4609510000000 1.0
C      1  0.4336720000000  0.5104320000000  0.4647680000000 1.0
C      1  0.4234010000000  0.5294270000000  0.4814160000000 1.0
C      1  0.4343160000000  0.5461560000000  0.4998080000000 1.0
C      1  0.4242380000000  0.5472930000000  0.5259660000000 1.0
C      1  0.4303820000000  0.5249820000000  0.5413030000000 1.0
C      1  0.4184840000000  0.5000820000000  0.5398950000000 1.0
C      1  0.4288480000000  0.4750650000000  0.5333910000000 1.0
C      1  0.4186340000000  0.4561000000000  0.5151700000000 1.0
END
