TITL C-122876-6429-2 -54.4203363987648 125000 -722.267955487106 0 0 101 (C1) n - 1
REM
REM in /rds/project/t2_vol4/rds-t2-cs072/BORA/CARBON/from-Arr/AIRSS/Generating-Clusters/GAP-ML-2020/Higher-Symm/SD-CG/HFTN-CG
REM
REM
REM
REM
REM
REM ./C.cell (b20cbc046b6831c77cfcea5457e17084)
REM AIRSS Version 0.9.1 bugfix July 2018 build 013d7b7c2542+ Fri, 06 Jul 2018 19:26:36 +0100
REM compiler GCC version 9.3.0
REM options -cpp -mtune=generic -march=x86-64 -g -O0
REM seed 159755777 -904366565 -33353224 -1684963038 230938095 -927814081 -1786356134 130866312 -1678365044 766803947 1321060725 338900975 -1601041459 -263872787 792539021 1116541440 1046186227 -892204569 -2130107711 -1690167164 1951785275 1290379246 740229844 -1063642498 -776931933 -1322983130 1657028114 -1386901403 521592489 -2129502012 -144209386 1388282563 952549601
REM
CELL 1.54180   50.00000   50.00000   50.00000   90.00000   90.00000   90.00000
LATT -1
SFAC C  
C      1  0.4225840000000  0.5362440000000  0.4993020000000 1.0
C      1  0.4728240000000  0.5363980000000  0.5709880000000 1.0
C      1  0.5575540000000  0.5375980000000  0.5461730000000 1.0
C      1  0.5644050000000  0.5370120000000  0.4585210000000 1.0
C      1  0.4791000000000  0.5369100000000  0.4268970000000 1.0
C      1  0.5298000000000  0.5235660000000  0.3998960000000 1.0
C      1  0.4112070000000  0.5240980000000  0.4428640000000 1.0
C      1  0.4156570000000  0.5239710000000  0.5672070000000 1.0
C      1  0.5375120000000  0.5250710000000  0.5992370000000 1.0
C      1  0.6055270000000  0.5245600000000  0.4972330000000 1.0
C      1  0.4361920000000  0.5046000000000  0.5663550000000 1.0
C      1  0.5434910000000  0.5053600000000  0.5802640000000 1.0
C      1  0.5914840000000  0.5043810000000  0.4833960000000 1.0
C      1  0.5117380000000  0.5043630000000  0.4094650000000 1.0
C      1  0.4179640000000  0.5048610000000  0.4625510000000 1.0
C      1  0.4419840000000  0.4425420000000  0.5265170000000 1.0
C      1  0.5075910000000  0.4428240000000  0.5629890000000 1.0
C      1  0.5623190000000  0.4424050000000  0.5117290000000 1.0
C      1  0.5305750000000  0.4418110000000  0.4442570000000 1.0
C      1  0.4561330000000  0.4422820000000  0.4538780000000 1.0
C      1  0.5608520000000  0.4404680000000  0.4830000000000 1.0
C      1  0.5025200000000  0.4404440000000  0.4370480000000 1.0
C      1  0.4405780000000  0.4406090000000  0.4780700000000 1.0
C      1  0.4603890000000  0.4413060000000  0.5486170000000 1.0
C      1  0.5343610000000  0.4414390000000  0.5522510000000 1.0
C      1  0.4786640000000  0.4838530000000  0.5708090000000 1.0
C      1  0.5598300000000  0.4849490000000  0.5400030000000 1.0
C      1  0.5598140000000  0.4823880000000  0.4542260000000 1.0
C      1  0.4747330000000  0.4834360000000  0.4308540000000 1.0
C      1  0.4168890000000  0.4800460000000  0.5029300000000 1.0
C      1  0.5043790000000  0.4682640000000  0.5771150000000 1.0
C      1  0.5748060000000  0.4680950000000  0.5187200000000 1.0
C      1  0.5417840000000  0.4671120000000  0.4342530000000 1.0
C      1  0.4501570000000  0.4676610000000  0.4408210000000 1.0
C      1  0.4259110000000  0.4674130000000  0.5276590000000 1.0
C      1  0.4784940000000  0.5771570000000  0.4864860000000 1.0
C      1  0.4786160000000  0.5773380000000  0.5154360000000 1.0
C      1  0.5067920000000  0.5770910000000  0.5242390000000 1.0
C      1  0.5239640000000  0.5769090000000  0.4999400000000 1.0
C      1  0.5061150000000  0.5759810000000  0.4771170000000 1.0
C      1  0.5204440000000  0.4174210000000  0.5130210000000 1.0
C      1  0.5187700000000  0.4171630000000  0.4845600000000 1.0
C      1  0.4911900000000  0.4177810000000  0.4774310000000 1.0
C      1  0.4759630000000  0.4183130000000  0.5014440000000 1.0
C      1  0.4939230000000  0.4180850000000  0.5233890000000 1.0
C      1  0.4348630000000  0.4791550000000  0.5529110000000 1.0
C      1  0.5313550000000  0.4793310000000  0.5778690000000 1.0
C      1  0.5850520000000  0.4780990000000  0.4936670000000 1.0
C      1  0.5201260000000  0.4780460000000  0.4181450000000 1.0
C      1  0.4288210000000  0.4787560000000  0.4566860000000 1.0
C      1  0.5027120000000  0.5528240000000  0.4299660000000 1.0
C      1  0.4328650000000  0.5525850000000  0.4778380000000 1.0
C      1  0.4554380000000  0.5523680000000  0.5553940000000 1.0
C      1  0.5394400000000  0.5554160000000  0.5596160000000 1.0
C      1  0.5694830000000  0.5550690000000  0.4804700000000 1.0
C      1  0.5391470000000  0.4287890000000  0.4684280000000 1.0
C      1  0.4818640000000  0.4291420000000  0.4531950000000 1.0
C      1  0.4499910000000  0.4295600000000  0.5023910000000 1.0
C      1  0.4866280000000  0.4298440000000  0.5481940000000 1.0
C      1  0.5418680000000  0.4294450000000  0.5273100000000 1.0
C      1  0.4764950000000  0.5199650000000  0.4692830000000 1.0
C      1  0.4830020000000  0.5225270000000  0.4976000000000 1.0
C      1  0.5037610000000  0.5191340000000  0.5415200000000 1.0
C      1  0.5358140000000  0.5199150000000  0.5045590000000 1.0
C      1  0.5309220000000  0.5181430000000  0.4741380000000 1.0
C      1  0.4890460000000  0.4764610000000  0.4783300000000 1.0
C      1  0.4761090000000  0.4806810000000  0.5038420000000 1.0
C      1  0.4959490000000  0.4762380000000  0.5237330000000 1.0
C      1  0.5206890000000  0.4756660000000  0.5103500000000 1.0
C      1  0.5166240000000  0.4748140000000  0.4825280000000 1.0
C      1  0.4630100000000  0.5093570000000  0.5756600000000 1.0
C      1  0.5593750000000  0.5105100000000  0.5565270000000 1.0
C      1  0.5753970000000  0.5091140000000  0.4597830000000 1.0
C      1  0.4841840000000  0.5094330000000  0.4176620000000 1.0
C      1  0.4164240000000  0.5077050000000  0.4917230000000 1.0
C      1  0.5263140000000  0.5372080000000  0.4229280000000 1.0
C      1  0.4326480000000  0.5370150000000  0.4529870000000 1.0
C      1  0.4294500000000  0.5398870000000  0.5503760000000 1.0
C      1  0.5255470000000  0.5400070000000  0.5806380000000 1.0
C      1  0.5834370000000  0.5395690000000  0.5009450000000 1.0
C      1  0.5356030000000  0.5399070000000  0.4518900000000 1.0
C      1  0.4625310000000  0.5406710000000  0.4518000000000 1.0
C      1  0.4318320000000  0.5491410000000  0.5228730000000 1.0
C      1  0.5009620000000  0.5407040000000  0.5626490000000 1.0
C      1  0.5579090000000  0.5413510000000  0.5172820000000 1.0
C      1  0.4944430000000  0.4933050000000  0.5459610000000 1.0
C      1  0.5411490000000  0.4932600000000  0.5167570000000 1.0
C      1  0.5328170000000  0.4912910000000  0.4667080000000 1.0
C      1  0.4810910000000  0.4948370000000  0.4590350000000 1.0
C      1  0.4650440000000  0.5055290000000  0.5090580000000 1.0
C      1  0.5151400000000  0.5624330000000  0.4543760000000 1.0
C      1  0.4586790000000  0.5641900000000  0.4715010000000 1.0
C      1  0.4564340000000  0.5647780000000  0.5291710000000 1.0
C      1  0.5145250000000  0.5651890000000  0.5484690000000 1.0
C      1  0.5495230000000  0.5652430000000  0.4996840000000 1.0
C      1  0.5470600000000  0.4657980000000  0.5592630000000 1.0
C      1  0.5732960000000  0.4637410000000  0.4725630000000 1.0
C      1  0.4964060000000  0.4642990000000  0.4231510000000 1.0
C      1  0.4240330000000  0.4638080000000  0.4798710000000 1.0
C      1  0.4569480000000  0.4652560000000  0.5628770000000 1.0
C      1  0.5075840000000  0.5244420000000  0.5136390000000 1.0
END
