TITL C-126817-9267-7 -12.9947883477137 125000 -1007.06309958064 0 0 137 (C1) n - 1
REM
REM in /rds/project/t2_vol4/rds-t2-cs072/BORA/CARBON/from-Arr/AIRSS/Generating-Clusters/GAP-ML-2020/Higher-Symm/SD-CG/HFTN-CG
REM
REM
REM
REM
REM
REM ./C.cell (b20cbc046b6831c77cfcea5457e17084)
REM AIRSS Version 0.9.1 bugfix July 2018 build 013d7b7c2542+ Fri, 06 Jul 2018 19:26:36 +0100
REM compiler GCC version 9.3.0
REM options -cpp -mtune=generic -march=x86-64 -g -O0
REM seed 1089098385 658471547 1017957087 -623554979 1681376023 -2041939374 -1976913024 -263424662 1816071108 -1972426497 -210487922 -1847231758 2030680518 -1388606408 1831615252 -167121642 -1478093469 -838607060 210892022 154133955 1045991204 1813649925 1561410418 745619509 -138488235 1649149374 68548729 603988776 -1179361670 2046446640 1421859036 -1085525930 -1127163636
REM
CELL 1.54180   50.00000   50.00000   50.00000   90.00000   90.00000   90.00000
LATT -1
SFAC C  
C      1  0.4960140000000  0.4805050000000  0.5996090000000 1.0
C      1  0.4712220000000  0.4841460000000  0.5893450000000 1.0
C      1  0.4531450000000  0.5059420000000  0.5856620000000 1.0
C      1  0.4663940000000  0.5317420000000  0.5762240000000 1.0
C      1  0.4922000000000  0.5488530000000  0.5776300000000 1.0
C      1  0.5209720000000  0.5443440000000  0.5773310000000 1.0
C      1  0.5401750000000  0.5207840000000  0.5768460000000 1.0
C      1  0.5446020000000  0.4930190000000  0.5858200000000 1.0
C      1  0.5208430000000  0.4779060000000  0.5885610000000 1.0
C      1  0.4773970000000  0.5357440000000  0.4158610000000 1.0
C      1  0.5057970000000  0.5412320000000  0.4166860000000 1.0
C      1  0.5314320000000  0.5278820000000  0.4159840000000 1.0
C      1  0.5423740000000  0.5012030000000  0.4149660000000 1.0
C      1  0.5333960000000  0.4737040000000  0.4137980000000 1.0
C      1  0.5083500000000  0.4584970000000  0.4134480000000 1.0
C      1  0.4791170000000  0.4627280000000  0.4133070000000 1.0
C      1  0.4594700000000  0.4844490000000  0.4132090000000 1.0
C      1  0.4589230000000  0.5134880000000  0.4142420000000 1.0
C      1  0.5973410000000  0.5038860000000  0.5283800000000 1.0
C      1  0.5753690000000  0.4393040000000  0.5277220000000 1.0
C      1  0.5192280000000  0.4017430000000  0.5244250000000 1.0
C      1  0.4519210000000  0.4110440000000  0.5243990000000 1.0
C      1  0.4098640000000  0.4635550000000  0.5272960000000 1.0
C      1  0.4080310000000  0.5319630000000  0.5281730000000 1.0
C      1  0.4487020000000  0.5852850000000  0.5266130000000 1.0
C      1  0.5137570000000  0.5975030000000  0.5254100000000 1.0
C      1  0.5744460000000  0.5672170000000  0.5271030000000 1.0
C      1  0.5605040000000  0.5551120000000  0.5489620000000 1.0
C      1  0.5802520000000  0.5039350000000  0.5514330000000 1.0
C      1  0.5622730000000  0.4494970000000  0.5512850000000 1.0
C      1  0.5158640000000  0.4196450000000  0.5467890000000 1.0
C      1  0.4606290000000  0.4272030000000  0.5467710000000 1.0
C      1  0.4250270000000  0.4696710000000  0.5509360000000 1.0
C      1  0.4249330000000  0.5276620000000  0.5512280000000 1.0
C      1  0.4581200000000  0.5709450000000  0.5502530000000 1.0
C      1  0.5110230000000  0.5813250000000  0.5487350000000 1.0
C      1  0.5389030000000  0.4827870000000  0.5136700000000 1.0
C      1  0.5200680000000  0.4636130000000  0.5054680000000 1.0
C      1  0.4952690000000  0.4689620000000  0.5202790000000 1.0
C      1  0.4680170000000  0.4680030000000  0.5052320000000 1.0
C      1  0.4621510000000  0.4949160000000  0.5148780000000 1.0
C      1  0.4576160000000  0.5194320000000  0.4993840000000 1.0
C      1  0.4784260000000  0.5391460000000  0.5076890000000 1.0
C      1  0.5343280000000  0.5329240000000  0.5060670000000 1.0
C      1  0.5448410000000  0.5060580000000  0.4985090000000 1.0
C      1  0.5459690000000  0.5846100000000  0.4623710000000 1.0
C      1  0.5889710000000  0.5356420000000  0.4634060000000 1.0
C      1  0.5890390000000  0.4708360000000  0.4644180000000 1.0
C      1  0.5499910000000  0.4179170000000  0.4617250000000 1.0
C      1  0.4852510000000  0.4032330000000  0.4610570000000 1.0
C      1  0.4271760000000  0.4354320000000  0.4611510000000 1.0
C      1  0.4058870000000  0.4977250000000  0.4639040000000 1.0
C      1  0.4247850000000  0.5597060000000  0.4630080000000 1.0
C      1  0.4802810000000  0.5942890000000  0.4621200000000 1.0
C      1  0.4673140000000  0.4415160000000  0.4288620000000 1.0
C      1  0.4365500000000  0.4752010000000  0.4289430000000 1.0
C      1  0.4354230000000  0.5214750000000  0.4294550000000 1.0
C      1  0.4644250000000  0.5569680000000  0.4303690000000 1.0
C      1  0.5094040000000  0.5653570000000  0.4318870000000 1.0
C      1  0.5501380000000  0.5445780000000  0.4303620000000 1.0
C      1  0.5670140000000  0.5020920000000  0.4305550000000 1.0
C      1  0.5524810000000  0.4583660000000  0.4298210000000 1.0
C      1  0.5134370000000  0.4348660000000  0.4291110000000 1.0
C      1  0.4477940000000  0.4524030000000  0.5554430000000 1.0
C      1  0.4341580000000  0.5002350000000  0.5601810000000 1.0
C      1  0.4467640000000  0.5456340000000  0.5593170000000 1.0
C      1  0.4862330000000  0.5709820000000  0.5600590000000 1.0
C      1  0.5305440000000  0.5594300000000  0.5533550000000 1.0
C      1  0.5628750000000  0.5272210000000  0.5573690000000 1.0
C      1  0.5624170000000  0.4807660000000  0.5597090000000 1.0
C      1  0.5351460000000  0.4405440000000  0.5552070000000 1.0
C      1  0.4892650000000  0.4303880000000  0.5510680000000 1.0
C      1  0.4934390000000  0.4596580000000  0.5491720000000 1.0
C      1  0.4692620000000  0.4720860000000  0.5608550000000 1.0
C      1  0.4599130000000  0.4970250000000  0.5447250000000 1.0
C      1  0.4757910000000  0.5201450000000  0.5508610000000 1.0
C      1  0.4939740000000  0.5254250000000  0.5286210000000 1.0
C      1  0.5217680000000  0.5337770000000  0.5322350000000 1.0
C      1  0.5349050000000  0.5145460000000  0.5491330000000 1.0
C      1  0.5376890000000  0.4864490000000  0.5433230000000 1.0
C      1  0.5201740000000  0.4656940000000  0.5602110000000 1.0
C      1  0.6016400000000  0.5173990000000  0.4818080000000 1.0
C      1  0.5862540000000  0.4486510000000  0.4819950000000 1.0
C      1  0.5337680000000  0.4016830000000  0.4788910000000 1.0
C      1  0.4625490000000  0.4017840000000  0.4785190000000 1.0
C      1  0.4104840000000  0.4492210000000  0.4804560000000 1.0
C      1  0.3999670000000  0.5193730000000  0.4818630000000 1.0
C      1  0.4347890000000  0.5799470000000  0.4805550000000 1.0
C      1  0.5011000000000  0.6027060000000  0.4795370000000 1.0
C      1  0.5678210000000  0.5792980000000  0.4803810000000 1.0
C      1  0.4703850000000  0.5192830000000  0.4739300000000 1.0
C      1  0.4913080000000  0.5399830000000  0.4818700000000 1.0
C      1  0.5188810000000  0.5355040000000  0.4814480000000 1.0
C      1  0.5307850000000  0.5092440000000  0.4737550000000 1.0
C      1  0.5172770000000  0.4871590000000  0.4653490000000 1.0
C      1  0.5163950000000  0.4607040000000  0.4776230000000 1.0
C      1  0.4913780000000  0.4482910000000  0.4702600000000 1.0
C      1  0.4706280000000  0.4669980000000  0.4774220000000 1.0
C      1  0.4764890000000  0.4935920000000  0.4654420000000 1.0
C      1  0.5284210000000  0.5984850000000  0.4798720000000 1.0
C      1  0.5860770000000  0.5582870000000  0.4808810000000 1.0
C      1  0.6014020000000  0.4897320000000  0.4821560000000 1.0
C      1  0.5699440000000  0.4263270000000  0.4809560000000 1.0
C      1  0.5065230000000  0.3954210000000  0.4786460000000 1.0
C      1  0.4379800000000  0.4151290000000  0.4784700000000 1.0
C      1  0.4022590000000  0.4756320000000  0.4815040000000 1.0
C      1  0.4075780000000  0.5459190000000  0.4814810000000 1.0
C      1  0.4578500000000  0.5952460000000  0.4799460000000 1.0
C      1  0.5614720000000  0.5850580000000  0.5083520000000 1.0
C      1  0.6011900000000  0.5260820000000  0.5097560000000 1.0
C      1  0.5914060000000  0.4551550000000  0.5098710000000 1.0
C      1  0.5417180000000  0.4036850000000  0.5070930000000 1.0
C      1  0.4702100000000  0.3983090000000  0.5062050000000 1.0
C      1  0.4138470000000  0.4412980000000  0.5083760000000 1.0
C      1  0.3983460000000  0.5113250000000  0.5100760000000 1.0
C      1  0.4281710000000  0.5757650000000  0.5088680000000 1.0
C      1  0.4927270000000  0.6045130000000  0.5072100000000 1.0
C      1  0.5364030000000  0.5970710000000  0.5078770000000 1.0
C      1  0.5917220000000  0.5523910000000  0.5090290000000 1.0
C      1  0.6008700000000  0.4814150000000  0.5103320000000 1.0
C      1  0.5644360000000  0.4197700000000  0.5087620000000 1.0
C      1  0.4980960000000  0.3944480000000  0.5062750000000 1.0
C      1  0.4308990000000  0.4192500000000  0.5068410000000 1.0
C      1  0.3996680000000  0.4834400000000  0.5093350000000 1.0
C      1  0.4108550000000  0.5539660000000  0.5094710000000 1.0
C      1  0.4653890000000  0.5995450000000  0.5077470000000 1.0
C      1  0.4217520000000  0.4980010000000  0.4397890000000 1.0
C      1  0.4380370000000  0.5488690000000  0.4394170000000 1.0
C      1  0.4838550000000  0.5763540000000  0.4397280000000 1.0
C      1  0.5371510000000  0.5687200000000  0.4397170000000 1.0
C      1  0.5727160000000  0.5290570000000  0.4401010000000 1.0
C      1  0.5733110000000  0.4757460000000  0.4406600000000 1.0
C      1  0.5409510000000  0.4332200000000  0.4384500000000 1.0
C      1  0.4887670000000  0.4276340000000  0.4443030000000 1.0
C      1  0.4403920000000  0.4477780000000  0.4379570000000 1.0
C      1  0.4973520000000  0.4937200000000  0.4480980000000 1.0
C      1  0.4924000000000  0.4982010000000  0.5196060000000 1.0
END
