TITL C-122778-5783-11 -0.0736921129340956 125000 -850.543229580301 0 0 122 (C1) n - 1
REM
REM in /rds/project/t2_vol4/rds-t2-cs072/BORA/CARBON/from-Arr/AIRSS/Generating-Clusters/GAP-ML-2020/Higher-Symm/SD-CG/HFTN-CG
REM
REM
REM
REM
REM
REM ./C.cell (b20cbc046b6831c77cfcea5457e17084)
REM AIRSS Version 0.9.1 bugfix July 2018 build 013d7b7c2542+ Fri, 06 Jul 2018 19:26:36 +0100
REM compiler GCC version 9.3.0
REM options -cpp -mtune=generic -march=x86-64 -g -O0
REM seed -114976770 1785799387 1621036815 -688548146 2003039575 747206628 -1910809079 -664742298 688862661 -917954021 1393357734 1713479142 -1058344153 -455232341 1301139790 1365957265 -48266993 1397137435 -1137496306 -702789286 116808158 1138365026 1968525524 1868736516 1309515139 -1476383672 -675530785 1940386490 1559928704 601595538 832780848 1228895566 -1078865322
REM
CELL 1.54180   50.00000   50.00000   50.00000   90.00000   90.00000   90.00000
LATT -1
SFAC C  
C      1  0.4978210000000  0.4163270000000  0.5498850000000 1.0
C      1  0.5429300000000  0.5825540000000  0.5254190000000 1.0
C      1  0.5407030000000  0.4157830000000  0.4764120000000 1.0
C      1  0.5006200000000  0.5833780000000  0.4492470000000 1.0
C      1  0.4545170000000  0.4153770000000  0.4763400000000 1.0
C      1  0.4569020000000  0.5850670000000  0.5248990000000 1.0
C      1  0.5131590000000  0.5767740000000  0.4744430000000 1.0
C      1  0.4821580000000  0.4237050000000  0.4753820000000 1.0
C      1  0.4695430000000  0.5750640000000  0.5007780000000 1.0
C      1  0.4822680000000  0.4239390000000  0.5267810000000 1.0
C      1  0.5143540000000  0.5763080000000  0.5257220000000 1.0
C      1  0.5246370000000  0.4180500000000  0.5006280000000 1.0
C      1  0.5257750000000  0.5769840000000  0.4353360000000 1.0
C      1  0.4512750000000  0.4230260000000  0.4494830000000 1.0
C      1  0.4317100000000  0.5777680000000  0.5147090000000 1.0
C      1  0.4767750000000  0.4233830000000  0.5670020000000 1.0
C      1  0.5464280000000  0.5755400000000  0.5521560000000 1.0
C      1  0.5643630000000  0.4284260000000  0.4856130000000 1.0
C      1  0.5789140000000  0.5408950000000  0.4744590000000 1.0
C      1  0.5124270000000  0.4633550000000  0.4255340000000 1.0
C      1  0.4372340000000  0.5371850000000  0.4513600000000 1.0
C      1  0.4250040000000  0.4631110000000  0.5278080000000 1.0
C      1  0.4857230000000  0.5365110000000  0.5757290000000 1.0
C      1  0.5580060000000  0.4651510000000  0.5480160000000 1.0
C      1  0.5753970000000  0.4517670000000  0.4726230000000 1.0
C      1  0.5294530000000  0.5500320000000  0.4283250000000 1.0
C      1  0.4387210000000  0.4479800000000  0.4531700000000 1.0
C      1  0.4266130000000  0.5527970000000  0.5269930000000 1.0
C      1  0.4867020000000  0.4485970000000  0.5742970000000 1.0
C      1  0.5567900000000  0.5499070000000  0.5458390000000 1.0
C      1  0.4655460000000  0.5461150000000  0.4472300000000 1.0
C      1  0.4353460000000  0.4531160000000  0.5010140000000 1.0
C      1  0.4674530000000  0.5467670000000  0.5533640000000 1.0
C      1  0.5297560000000  0.4536290000000  0.5525790000000 1.0
C      1  0.5752940000000  0.5537240000000  0.5008800000000 1.0
C      1  0.5302710000000  0.4550480000000  0.4487220000000 1.0
C      1  0.4679090000000  0.4644040000000  0.5017990000000 1.0
C      1  0.4835540000000  0.5350660000000  0.5262010000000 1.0
C      1  0.5112840000000  0.4630430000000  0.5252620000000 1.0
C      1  0.5416130000000  0.5207110000000  0.4952000000000 1.0
C      1  0.5100890000000  0.4634170000000  0.4750780000000 1.0
C      1  0.4793410000000  0.5350380000000  0.4770170000000 1.0
C      1  0.4391750000000  0.5347040000000  0.5083440000000 1.0
C      1  0.4730450000000  0.4653290000000  0.5549280000000 1.0
C      1  0.5325560000000  0.5339140000000  0.5445790000000 1.0
C      1  0.5959720000000  0.4657340000000  0.4867890000000 1.0
C      1  0.5112560000000  0.5343290000000  0.4449640000000 1.0
C      1  0.4619030000000  0.4650060000000  0.4534260000000 1.0
C      1  0.4732640000000  0.5754100000000  0.4517330000000 1.0
C      1  0.4422100000000  0.4231500000000  0.5004920000000 1.0
C      1  0.4713730000000  0.5767460000000  0.5474360000000 1.0
C      1  0.5252950000000  0.4234170000000  0.5476560000000 1.0
C      1  0.5572410000000  0.5773460000000  0.5016270000000 1.0
C      1  0.5262990000000  0.4244100000000  0.4541840000000 1.0
C      1  0.4683940000000  0.4648730000000  0.4235390000000 1.0
C      1  0.4153510000000  0.5355120000000  0.4892130000000 1.0
C      1  0.4446410000000  0.4654730000000  0.5657470000000 1.0
C      1  0.5296840000000  0.5338920000000  0.5755980000000 1.0
C      1  0.5953190000000  0.4653950000000  0.5163530000000 1.0
C      1  0.5547780000000  0.5377610000000  0.4332090000000 1.0
C      1  0.4881980000000  0.5076880000000  0.5774640000000 1.0
C      1  0.5598710000000  0.4934530000000  0.5449780000000 1.0
C      1  0.5845720000000  0.5119330000000  0.4691350000000 1.0
C      1  0.5095610000000  0.4919360000000  0.4228040000000 1.0
C      1  0.4343770000000  0.5080570000000  0.4533100000000 1.0
C      1  0.4248710000000  0.4923070000000  0.5308220000000 1.0
C      1  0.5216580000000  0.5060930000000  0.4455280000000 1.0
C      1  0.4607070000000  0.4953810000000  0.4525740000000 1.0
C      1  0.4377430000000  0.5046130000000  0.5078640000000 1.0
C      1  0.4732210000000  0.4954400000000  0.5556560000000 1.0
C      1  0.5332560000000  0.5044040000000  0.5455330000000 1.0
C      1  0.5971370000000  0.4948610000000  0.4869330000000 1.0
C      1  0.4317310000000  0.4461250000000  0.5509910000000 1.0
C      1  0.5098790000000  0.5524170000000  0.5808640000000 1.0
C      1  0.5762950000000  0.4502020000000  0.5310050000000 1.0
C      1  0.5679860000000  0.5545460000000  0.4516270000000 1.0
C      1  0.4888270000000  0.4466560000000  0.4201150000000 1.0
C      1  0.4222620000000  0.5540960000000  0.4699270000000 1.0
C      1  0.5069260000000  0.5462170000000  0.4742010000000 1.0
C      1  0.4814090000000  0.4542020000000  0.4760650000000 1.0
C      1  0.4679400000000  0.5448010000000  0.5022160000000 1.0
C      1  0.4822710000000  0.4542830000000  0.5265480000000 1.0
C      1  0.5119710000000  0.5456540000000  0.5241190000000 1.0
C      1  0.5525350000000  0.4524560000000  0.5005620000000 1.0
C      1  0.5797350000000  0.5105290000000  0.5316920000000 1.0
C      1  0.5684230000000  0.4941940000000  0.4506040000000 1.0
C      1  0.4882030000000  0.5098020000000  0.4142240000000 1.0
C      1  0.4162000000000  0.4888370000000  0.4666170000000 1.0
C      1  0.4268780000000  0.5118880000000  0.5529600000000 1.0
C      1  0.5098370000000  0.4891850000000  0.5859160000000 1.0
C      1  0.5401630000000  0.4153900000000  0.5250250000000 1.0
C      1  0.5417940000000  0.5836220000000  0.4782860000000 1.0
C      1  0.4989070000000  0.4160610000000  0.4528990000000 1.0
C      1  0.4589290000000  0.5838230000000  0.4751630000000 1.0
C      1  0.4548450000000  0.4150710000000  0.5248450000000 1.0
C      1  0.4988680000000  0.5846590000000  0.5486120000000 1.0
C      1  0.4689390000000  0.4929510000000  0.4227050000000 1.0
C      1  0.4152880000000  0.5070480000000  0.4868790000000 1.0
C      1  0.4434750000000  0.4938010000000  0.5644930000000 1.0
C      1  0.5288590000000  0.5059360000000  0.5764170000000 1.0
C      1  0.5964440000000  0.4942820000000  0.5164320000000 1.0
C      1  0.5502290000000  0.5104090000000  0.4381510000000 1.0
C      1  0.5589790000000  0.4665190000000  0.4536860000000 1.0
C      1  0.4862310000000  0.5341410000000  0.4300290000000 1.0
C      1  0.4245760000000  0.4615120000000  0.4737890000000 1.0
C      1  0.4381500000000  0.5387770000000  0.5486170000000 1.0
C      1  0.5118190000000  0.4618550000000  0.5759760000000 1.0
C      1  0.5752030000000  0.5394580000000  0.5266770000000 1.0
C      1  0.5252030000000  0.4997670000000  0.4977240000000 1.0
C      1  0.5092490000000  0.4933850000000  0.4732670000000 1.0
C      1  0.4797660000000  0.5050130000000  0.4757100000000 1.0
C      1  0.4670650000000  0.4944090000000  0.5024560000000 1.0
C      1  0.4835700000000  0.5048620000000  0.5271670000000 1.0
C      1  0.5127210000000  0.4930680000000  0.5247540000000 1.0
C      1  0.4788630000000  0.4240700000000  0.4355080000000 1.0
C      1  0.4332990000000  0.5765950000000  0.4840200000000 1.0
C      1  0.4504610000000  0.4238830000000  0.5508300000000 1.0
C      1  0.5189890000000  0.5751710000000  0.5655090000000 1.0
C      1  0.5637900000000  0.4285990000000  0.5164420000000 1.0
C      1  0.5500220000000  0.5779360000000  0.4524230000000 1.0
C      1  0.5230620000000  0.4506010000000  0.5001200000000 1.0
C      1  0.5213040000000  0.5378530000000  0.4975980000000 1.0
END
