TITL C-127511-398-6 368.273585012438 125000 -725.71832253868 0 0 99 (C1) n - 1
REM
REM in /rds/project/t2_vol4/rds-t2-cs072/BORA/CARBON/from-Arr/AIRSS/Generating-Clusters/GAP-ML-2020/Higher-Symm/SD-CG/HFTN-CG
REM
REM
REM
REM
REM
REM ./C.cell (b20cbc046b6831c77cfcea5457e17084)
REM AIRSS Version 0.9.1 bugfix July 2018 build 013d7b7c2542+ Fri, 06 Jul 2018 19:26:36 +0100
REM compiler GCC version 9.3.0
REM options -cpp -mtune=generic -march=x86-64 -g -O0
REM seed 726250273 -1617804224 -1338420838 1118103466 1903037320 -1728173321 -577564860 916805416 6452040 -2047163733 -212169581 1992792063 989573676 129788666 -35586552 -489625746 -1213254215 -199061999 -563465166 1774788304 -2064398434 632755816 -1161059863 936551318 -780753459 394492544 850176385 1476362131 -1110199166 245412689 1218609656 -164745568 -149741785
REM
CELL 1.54180   50.00000   50.00000   50.00000   90.00000   90.00000   90.00000
LATT -1
SFAC C  
C      1  0.5755430000000  0.4479130000000  0.4972630000000 1.0
C      1  0.5764450000000  0.5185510000000  0.4662670000000 1.0
C      1  0.5755010000000  0.5232700000000  0.5437470000000 1.0
C      1  0.4277530000000  0.5531700000000  0.5016530000000 1.0
C      1  0.4308510000000  0.4758940000000  0.4547900000000 1.0
C      1  0.4284150000000  0.4719960000000  0.5443090000000 1.0
C      1  0.4624340000000  0.4388150000000  0.4607120000000 1.0
C      1  0.4618950000000  0.5651500000000  0.4668230000000 1.0
C      1  0.4612440000000  0.4965320000000  0.5722980000000 1.0
C      1  0.5460540000000  0.5532070000000  0.4652560000000 1.0
C      1  0.5548060000000  0.4385180000000  0.4794390000000 1.0
C      1  0.5541830000000  0.5124380000000  0.5606870000000 1.0
C      1  0.5139310000000  0.5807860000000  0.5047680000000 1.0
C      1  0.5129600000000  0.4564540000000  0.5674740000000 1.0
C      1  0.5143340000000  0.4626310000000  0.4271060000000 1.0
C      1  0.4894110000000  0.4176200000000  0.5079890000000 1.0
C      1  0.4888480000000  0.5474430000000  0.5671290000000 1.0
C      1  0.4900900000000  0.5344090000000  0.4245820000000 1.0
C      1  0.6011370000000  0.5050700000000  0.5052120000000 1.0
C      1  0.6117340000000  0.4820570000000  0.4934630000000 1.0
C      1  0.5911530000000  0.5265160000000  0.4890390000000 1.0
C      1  0.4014440000000  0.4977870000000  0.5153230000000 1.0
C      1  0.4012040000000  0.5147280000000  0.4931420000000 1.0
C      1  0.4010180000000  0.4871170000000  0.4897740000000 1.0
C      1  0.4524860000000  0.4713860000000  0.5599610000000 1.0
C      1  0.4541130000000  0.4624340000000  0.4454760000000 1.0
C      1  0.4520940000000  0.5668780000000  0.4945210000000 1.0
C      1  0.5315890000000  0.5294990000000  0.5664090000000 1.0
C      1  0.5307420000000  0.5445950000000  0.4423120000000 1.0
C      1  0.5319470000000  0.4263980000000  0.4924150000000 1.0
C      1  0.5802880000000  0.4706960000000  0.4578000000000 1.0
C      1  0.5793320000000  0.5488600000000  0.5018930000000 1.0
C      1  0.5775430000000  0.4776730000000  0.5390760000000 1.0
C      1  0.4271460000000  0.5307370000000  0.4573430000000 1.0
C      1  0.4266890000000  0.4477850000000  0.4949590000000 1.0
C      1  0.4256230000000  0.5217840000000  0.5475050000000 1.0
C      1  0.5039000000000  0.5538950000000  0.4394360000000 1.0
C      1  0.5041830000000  0.5249640000000  0.5757150000000 1.0
C      1  0.5047280000000  0.4212110000000  0.4842090000000 1.0
C      1  0.5052170000000  0.4408990000000  0.4402730000000 1.0
C      1  0.5027680000000  0.4770280000000  0.5815440000000 1.0
C      1  0.5067210000000  0.5797700000000  0.4786520000000 1.0
C      1  0.4972000000000  0.5107830000000  0.5251070000000 1.0
C      1  0.4874410000000  0.4738320000000  0.4999850000000 1.0
C      1  0.4908520000000  0.5160560000000  0.4793380000000 1.0
C      1  0.5073720000000  0.4834810000000  0.5197860000000 1.0
C      1  0.5084200000000  0.5258830000000  0.5022270000000 1.0
C      1  0.4986770000000  0.4879190000000  0.4750040000000 1.0
C      1  0.4682210000000  0.4815070000000  0.4278980000000 1.0
C      1  0.4667940000000  0.5712630000000  0.5197610000000 1.0
C      1  0.4667580000000  0.4466490000000  0.5521780000000 1.0
C      1  0.5325680000000  0.5177600000000  0.4289010000000 1.0
C      1  0.5313090000000  0.4272410000000  0.5217120000000 1.0
C      1  0.5310570000000  0.5553550000000  0.5531130000000 1.0
C      1  0.5064200000000  0.5111360000000  0.4194650000000 1.0
C      1  0.5042650000000  0.5645080000000  0.5500590000000 1.0
C      1  0.5047260000000  0.4239980000000  0.5312800000000 1.0
C      1  0.4959900000000  0.4843120000000  0.4203420000000 1.0
C      1  0.4945060000000  0.4391860000000  0.5530760000000 1.0
C      1  0.4944740000000  0.5757410000000  0.5257180000000 1.0
C      1  0.4307700000000  0.5037130000000  0.4457890000000 1.0
C      1  0.4283410000000  0.5461980000000  0.5304240000000 1.0
C      1  0.4289830000000  0.4503910000000  0.5243600000000 1.0
C      1  0.5750150000000  0.4970270000000  0.4486680000000 1.0
C      1  0.5720350000000  0.4531860000000  0.5248780000000 1.0
C      1  0.5734070000000  0.5478260000000  0.5298420000000 1.0
C      1  0.4160860000000  0.4672080000000  0.4773080000000 1.0
C      1  0.4148350000000  0.5365850000000  0.4823520000000 1.0
C      1  0.4150790000000  0.4966270000000  0.5395640000000 1.0
C      1  0.5489310000000  0.5259920000000  0.4739340000000 1.0
C      1  0.5926420000000  0.4660060000000  0.4831260000000 1.0
C      1  0.5894440000000  0.5021080000000  0.5311040000000 1.0
C      1  0.5351080000000  0.5165870000000  0.4989840000000 1.0
C      1  0.5327530000000  0.4884460000000  0.5044900000000 1.0
C      1  0.5258740000000  0.4825250000000  0.4781080000000 1.0
C      1  0.4629000000000  0.4878810000000  0.5042620000000 1.0
C      1  0.4693670000000  0.5112930000000  0.5199620000000 1.0
C      1  0.4648680000000  0.5132420000000  0.4914240000000 1.0
C      1  0.4513600000000  0.4349340000000  0.5312270000000 1.0
C      1  0.4528720000000  0.5053960000000  0.4286680000000 1.0
C      1  0.4511370000000  0.5593230000000  0.5404590000000 1.0
C      1  0.5499190000000  0.5634880000000  0.5341230000000 1.0
C      1  0.5507530000000  0.4958060000000  0.4329140000000 1.0
C      1  0.5491750000000  0.4422950000000  0.5373490000000 1.0
C      1  0.5583540000000  0.5642390000000  0.4886600000000 1.0
C      1  0.5568730000000  0.4829940000000  0.5581620000000 1.0
C      1  0.5578640000000  0.4541940000000  0.4542770000000 1.0
C      1  0.4484360000000  0.4326210000000  0.4848550000000 1.0
C      1  0.4474470000000  0.5206480000000  0.5657650000000 1.0
C      1  0.4486690000000  0.5471430000000  0.4490450000000 1.0
C      1  0.4615170000000  0.5455520000000  0.5631110000000 1.0
C      1  0.4621750000000  0.4224530000000  0.5080660000000 1.0
C      1  0.4629450000000  0.5318320000000  0.4291790000000 1.0
C      1  0.5401070000000  0.4591180000000  0.5585670000000 1.0
C      1  0.5417460000000  0.5752520000000  0.5095030000000 1.0
C      1  0.5412700000000  0.4688620000000  0.4342220000000 1.0
C      1  0.4901160000000  0.5695250000000  0.4600830000000 1.0
C      1  0.4906020000000  0.4301510000000  0.4600260000000 1.0
C      1  0.4891650000000  0.5001630000000  0.5804680000000 1.0
END
