TITL C-123175-8065-6 41.6953887590108 125000 -191.836703590192 0 0 29 (D3) n - 1
REM
REM in /rds/project/t2_vol4/rds-t2-cs072/BORA/CARBON/from-Arr/AIRSS/Generating-Clusters/GAP-ML-2020/Higher-Symm/SD-CG/HFTN-CG
REM
REM
REM
REM
REM
REM ./C.cell (b20cbc046b6831c77cfcea5457e17084)
REM AIRSS Version 0.9.1 bugfix July 2018 build 013d7b7c2542+ Fri, 06 Jul 2018 19:26:36 +0100
REM compiler GCC version 9.3.0
REM options -cpp -mtune=generic -march=x86-64 -g -O0
REM seed 1634749701 1423700225 -825941970 -1398218875 -1614239448 1393021114 -79187650 368259997 1829506665 -1945698158 -888020757 -310896376 -1065664899 -457603956 511551423 -898761331 1616031395 -84456222 762795263 -431473067 401798257 -1260323038 -79095002 1720782781 1481151612 -937137324 1215085180 -1914042111 1819882769 929367866 627761243 848676245 -1101366782
REM
CELL 1.54180   50.00000   50.00000   50.00000   90.00000   90.00000   90.00000
LATT -1
SFAC C  
C      1  0.4411830000000  0.5126270000000  0.5053090000000 1.0
C      1  0.5266490000000  0.5105490000000  0.4452110000000 1.0
C      1  0.5359210000000  0.5093930000000  0.5492940000000 1.0
C      1  0.5606530000000  0.4957460000000  0.5075930000000 1.0
C      1  0.4776860000000  0.4987880000000  0.4441300000000 1.0
C      1  0.4642130000000  0.4983230000000  0.5477570000000 1.0
C      1  0.4566870000000  0.4677640000000  0.4731140000000 1.0
C      1  0.5444140000000  0.4650930000000  0.4753400000000 1.0
C      1  0.4986040000000  0.4658480000000  0.5502330000000 1.0
C      1  0.5464480000000  0.5411100000000  0.4755020000000 1.0
C      1  0.4587030000000  0.5437730000000  0.4742210000000 1.0
C      1  0.5014470000000  0.5418360000000  0.5508830000000 1.0
C      1  0.4894540000000  0.4928100000000  0.5561160000000 1.0
C      1  0.4575780000000  0.4945660000000  0.4618840000000 1.0
C      1  0.5550960000000  0.4914550000000  0.4813620000000 1.0
C      1  0.5103610000000  0.5147830000000  0.5567100000000 1.0
C      1  0.5460210000000  0.5144860000000  0.4638280000000 1.0
C      1  0.4477940000000  0.5173250000000  0.4793940000000 1.0
C      1  0.4793280000000  0.5541450000000  0.4835350000000 1.0
C      1  0.5286500000000  0.5526110000000  0.4885660000000 1.0
C      1  0.4996230000000  0.5531510000000  0.5287830000000 1.0
C      1  0.5234310000000  0.4545850000000  0.4836510000000 1.0
C      1  0.4739470000000  0.4560550000000  0.4867070000000 1.0
C      1  0.5013240000000  0.4548790000000  0.5280510000000 1.0
C      1  0.5022570000000  0.5047030000000  0.4402230000000 1.0
C      1  0.4488030000000  0.5055750000000  0.5286800000000 1.0
C      1  0.5520920000000  0.5024350000000  0.5307440000000 1.0
C      1  0.4995420000000  0.4543450000000  0.4994630000000 1.0
C      1  0.5025590000000  0.5541310000000  0.5003020000000 1.0
END
