TITL C-123303-3667-3 11.4348172807517 125000 -420.491882252833 0 0 62 (C1) n - 1
REM
REM in /rds/project/t2_vol4/rds-t2-cs072/BORA/CARBON/from-Arr/AIRSS/Generating-Clusters/GAP-ML-2020/Higher-Symm/SD-CG/HFTN-CG
REM
REM
REM
REM
REM
REM ./C.cell (b20cbc046b6831c77cfcea5457e17084)
REM AIRSS Version 0.9.1 bugfix July 2018 build 013d7b7c2542+ Fri, 06 Jul 2018 19:26:36 +0100
REM compiler GCC version 9.3.0
REM options -cpp -mtune=generic -march=x86-64 -g -O0
REM seed 1053098546 -801858623 967644590 1228803391 541258930 508596878 -650147018 55408423 1242527349 162729542 1192832030 1880375786 -311375292 -603805297 1285613731 337234301 -65461354 -1977616411 332683409 1258072490 -395537991 1950035149 1343451900 1273676574 638923819 472106290 794977146 1380603598 -2027696256 699314922 -358437099 39169831 -1588910374
REM
CELL 1.54180   50.00000   50.00000   50.00000   90.00000   90.00000   90.00000
LATT -1
SFAC C  
C      1  0.5480500000000  0.5005950000000  0.4497020000000 1.0
C      1  0.4717350000000  0.4774010000000  0.4461210000000 1.0
C      1  0.4915150000000  0.4308610000000  0.5246000000000 1.0
C      1  0.4993290000000  0.5248140000000  0.5739600000000 1.0
C      1  0.5127950000000  0.5509210000000  0.4807510000000 1.0
C      1  0.4583200000000  0.5349380000000  0.5478870000000 1.0
C      1  0.4968770000000  0.4757560000000  0.5656380000000 1.0
C      1  0.4817450000000  0.5156530000000  0.4790910000000 1.0
C      1  0.5599770000000  0.5295160000000  0.5115260000000 1.0
C      1  0.5469340000000  0.5046380000000  0.5204300000000 1.0
C      1  0.4516610000000  0.4646350000000  0.5241980000000 1.0
C      1  0.5377330000000  0.5585810000000  0.4945360000000 1.0
C      1  0.4994410000000  0.5338450000000  0.4390760000000 1.0
C      1  0.5608850000000  0.4779710000000  0.5190320000000 1.0
C      1  0.5251340000000  0.5253120000000  0.5610750000000 1.0
C      1  0.4693060000000  0.4460200000000  0.5363950000000 1.0
C      1  0.4364470000000  0.4995670000000  0.4787700000000 1.0
C      1  0.4486490000000  0.4976210000000  0.4516110000000 1.0
C      1  0.5284220000000  0.5496530000000  0.5446410000000 1.0
C      1  0.5122270000000  0.4557450000000  0.4470490000000 1.0
C      1  0.4627130000000  0.5614050000000  0.5039370000000 1.0
C      1  0.4820460000000  0.5450210000000  0.5608940000000 1.0
C      1  0.4569760000000  0.5116690000000  0.4974630000000 1.0
C      1  0.4588320000000  0.5215770000000  0.4404700000000 1.0
C      1  0.4671970000000  0.5092830000000  0.5551250000000 1.0
C      1  0.4282790000000  0.4640430000000  0.5102600000000 1.0
C      1  0.5214940000000  0.5407340000000  0.4542690000000 1.0
C      1  0.4851800000000  0.5003030000000  0.5757760000000 1.0
C      1  0.5050600000000  0.5228850000000  0.4949730000000 1.0
C      1  0.4831040000000  0.4461170000000  0.4815390000000 1.0
C      1  0.4867080000000  0.4744100000000  0.4935530000000 1.0
C      1  0.4917930000000  0.5285490000000  0.5202320000000 1.0
C      1  0.4610880000000  0.5364720000000  0.5166780000000 1.0
C      1  0.5293330000000  0.4588490000000  0.4693890000000 1.0
C      1  0.5463000000000  0.5276040000000  0.4592080000000 1.0
C      1  0.5093110000000  0.4353850000000  0.5468260000000 1.0
C      1  0.5256900000000  0.4994070000000  0.4979490000000 1.0
C      1  0.4689370000000  0.4883440000000  0.5129080000000 1.0
C      1  0.5556080000000  0.5374480000000  0.4839360000000 1.0
C      1  0.5357410000000  0.4426350000000  0.5464460000000 1.0
C      1  0.5143390000000  0.4771080000000  0.4272550000000 1.0
C      1  0.4845420000000  0.5608750000000  0.4760780000000 1.0
C      1  0.5213090000000  0.4498130000000  0.4947490000000 1.0
C      1  0.4867880000000  0.4509090000000  0.5602270000000 1.0
C      1  0.4834990000000  0.5157750000000  0.4241640000000 1.0
C      1  0.4884970000000  0.4899690000000  0.4689480000000 1.0
C      1  0.5121680000000  0.4754580000000  0.5090490000000 1.0
C      1  0.5091910000000  0.4853940000000  0.5394140000000 1.0
C      1  0.5540810000000  0.4581610000000  0.5371740000000 1.0
C      1  0.4842200000000  0.4507610000000  0.4539330000000 1.0
C      1  0.4856340000000  0.5020750000000  0.5320630000000 1.0
C      1  0.5663030000000  0.4790330000000  0.4927310000000 1.0
C      1  0.5316280000000  0.5032710000000  0.5451160000000 1.0
C      1  0.5441500000000  0.5521560000000  0.5220740000000 1.0
C      1  0.4679010000000  0.5807840000000  0.4870210000000 1.0
C      1  0.5369570000000  0.4918110000000  0.4262240000000 1.0
C      1  0.4212700000000  0.4800040000000  0.4910540000000 1.0
C      1  0.5005350000000  0.5499480000000  0.5399410000000 1.0
C      1  0.4766940000000  0.5374260000000  0.4585930000000 1.0
C      1  0.4996310000000  0.4309290000000  0.4978580000000 1.0
C      1  0.4877180000000  0.4882740000000  0.4240330000000 1.0
C      1  0.5443730000000  0.4838820000000  0.4743800000000 1.0
END
