TITL C-122872-6595-3 -0.00752898937088109 125000 -25.1188610059244 0 0 5 (C2v) n - 1
REM
REM in /rds/project/t2_vol4/rds-t2-cs072/BORA/CARBON/from-Arr/AIRSS/Generating-Clusters/GAP-ML-2020/Higher-Symm/SD-CG/HFTN-CG
REM
REM
REM
REM
REM
REM ./C.cell (b20cbc046b6831c77cfcea5457e17084)
REM AIRSS Version 0.9.1 bugfix July 2018 build 013d7b7c2542+ Fri, 06 Jul 2018 19:26:36 +0100
REM compiler GCC version 9.3.0
REM options -cpp -mtune=generic -march=x86-64 -g -O0
REM seed 1929059388 1887782250 -1488295671 1579226991 -453684859 1532248221 920696595 -673976977 1952874971 1438837012 52015015 -643304019 610110495 -410591781 -376344672 -963374291 -590960392 -991326803 -2110674482 537824062 -1072496769 960905658 -1883286923 -1561930656 -2112087455 -312145053 -1115627724 1747550366 -145652257 -644883551 1881513632 -1209557875 336252437
REM
CELL 1.54180   50.00000   50.00000   50.00000   90.00000   90.00000   90.00000
LATT -1
SFAC C  
C      1  0.4960410000000  0.4871980000000  0.4960800000000 1.0
C      1  0.5193050000000  0.4719870000000  0.4975620000000 1.0
C      1  0.4688440000000  0.4896910000000  0.4907040000000 1.0
C      1  0.5043500000000  0.5140680000000  0.5043070000000 1.0
C      1  0.5114590000000  0.5370570000000  0.5113460000000 1.0
END
