TITL C-126791-263-7 52.8930771127515 125000 -611.586418693849 0 0 89 (C1) n - 1
REM
REM in /rds/project/t2_vol4/rds-t2-cs072/BORA/CARBON/from-Arr/AIRSS/Generating-Clusters/GAP-ML-2020/Higher-Symm/SD-CG/HFTN-CG
REM
REM
REM
REM
REM
REM ./C.cell (b20cbc046b6831c77cfcea5457e17084)
REM AIRSS Version 0.9.1 bugfix July 2018 build 013d7b7c2542+ Fri, 06 Jul 2018 19:26:36 +0100
REM compiler GCC version 9.3.0
REM options -cpp -mtune=generic -march=x86-64 -g -O0
REM seed 930083437 -940294431 -1091511833 1761811089 -2088139225 -875880849 -2008678138 2064596295 58737845 -673568682 1262813058 -1241022411 -1090765040 1103726675 -1012260538 -1869651409 308551078 -1643891356 -1790816371 -571997892 -1038529557 1056047595 -520067351 1280638882 574929052 1847881407 -544321182 -2117211181 697516644 -30476664 -2065477038 1433889764 -476518914
REM
CELL 1.54180   50.00000   50.00000   50.00000   90.00000   90.00000   90.00000
LATT -1
SFAC C  
C      1  0.4551930000000  0.4867260000000  0.5548690000000 1.0
C      1  0.4869040000000  0.5588780000000  0.4535910000000 1.0
C      1  0.5583010000000  0.4506530000000  0.4816200000000 1.0
C      1  0.5483700000000  0.4803440000000  0.4423050000000 1.0
C      1  0.5489440000000  0.5175400000000  0.5582380000000 1.0
C      1  0.4519760000000  0.5216020000000  0.4417410000000 1.0
C      1  0.5212690000000  0.5582630000000  0.5499640000000 1.0
C      1  0.5136940000000  0.4462490000000  0.4548460000000 1.0
C      1  0.4804010000000  0.4420580000000  0.5469520000000 1.0
C      1  0.4393730000000  0.4511890000000  0.5191250000000 1.0
C      1  0.4441100000000  0.5500080000000  0.4821280000000 1.0
C      1  0.5558130000000  0.5451950000000  0.5150570000000 1.0
C      1  0.5093510000000  0.4817120000000  0.4160560000000 1.0
C      1  0.4774400000000  0.4153210000000  0.5076860000000 1.0
C      1  0.4161300000000  0.5115010000000  0.4795730000000 1.0
C      1  0.4913000000000  0.4815310000000  0.5849360000000 1.0
C      1  0.4931100000000  0.5205420000000  0.4155700000000 1.0
C      1  0.5100470000000  0.5199990000000  0.5855940000000 1.0
C      1  0.5165400000000  0.4149710000000  0.4903340000000 1.0
C      1  0.5219620000000  0.5850220000000  0.5110400000000 1.0
C      1  0.4843460000000  0.5859330000000  0.4929930000000 1.0
C      1  0.5839940000000  0.5071780000000  0.5182180000000 1.0
C      1  0.5835780000000  0.4906980000000  0.4794580000000 1.0
C      1  0.4146010000000  0.4933220000000  0.5180110000000 1.0
C      1  0.5377910000000  0.5090770000000  0.4367160000000 1.0
C      1  0.5066100000000  0.4356650000000  0.5338470000000 1.0
C      1  0.4374230000000  0.5370330000000  0.5086710000000 1.0
C      1  0.4584110000000  0.5111090000000  0.5704620000000 1.0
C      1  0.4635520000000  0.4937230000000  0.4367370000000 1.0
C      1  0.5347000000000  0.4912800000000  0.5624170000000 1.0
C      1  0.4886550000000  0.4308110000000  0.4570540000000 1.0
C      1  0.4925490000000  0.5647570000000  0.5387700000000 1.0
C      1  0.5130810000000  0.5700670000000  0.4593740000000 1.0
C      1  0.5723990000000  0.5423730000000  0.4899430000000 1.0
C      1  0.5681030000000  0.4578720000000  0.5079220000000 1.0
C      1  0.4341370000000  0.4630690000000  0.4908340000000 1.0
C      1  0.5052290000000  0.4123630000000  0.5169630000000 1.0
C      1  0.4138000000000  0.5202230000000  0.5071660000000 1.0
C      1  0.5196340000000  0.5087570000000  0.4141400000000 1.0
C      1  0.4898950000000  0.4149720000000  0.4805480000000 1.0
C      1  0.4943740000000  0.5867730000000  0.5203100000000 1.0
C      1  0.5113220000000  0.5861780000000  0.4833670000000 1.0
C      1  0.5859850000000  0.5178980000000  0.4915000000000 1.0
C      1  0.5849570000000  0.4804890000000  0.5069700000000 1.0
C      1  0.4141780000000  0.4841650000000  0.4908750000000 1.0
C      1  0.4824280000000  0.5086070000000  0.5858540000000 1.0
C      1  0.4827730000000  0.4939180000000  0.4149790000000 1.0
C      1  0.5184400000000  0.4916580000000  0.5865370000000 1.0
C      1  0.5386190000000  0.5587830000000  0.4524230000000 1.0
C      1  0.5566400000000  0.4516020000000  0.5334420000000 1.0
C      1  0.4523440000000  0.5371190000000  0.5596530000000 1.0
C      1  0.4649420000000  0.5595610000000  0.5483390000000 1.0
C      1  0.4632490000000  0.4425580000000  0.4515300000000 1.0
C      1  0.5329220000000  0.4419840000000  0.5444540000000 1.0
C      1  0.4411990000000  0.4540160000000  0.4642610000000 1.0
C      1  0.4428850000000  0.5480600000000  0.5356610000000 1.0
C      1  0.5618670000000  0.5476960000000  0.4639460000000 1.0
C      1  0.5498190000000  0.5352620000000  0.4420850000000 1.0
C      1  0.5447880000000  0.4646440000000  0.5551230000000 1.0
C      1  0.4529120000000  0.4671180000000  0.4426290000000 1.0
C      1  0.4793610000000  0.5346010000000  0.4385740000000 1.0
C      1  0.5322240000000  0.4370450000000  0.4773540000000 1.0
C      1  0.4378160000000  0.4790190000000  0.5315370000000 1.0
C      1  0.5282110000000  0.5363050000000  0.5672270000000 1.0
C      1  0.5243090000000  0.4655130000000  0.4352140000000 1.0
C      1  0.4770110000000  0.4673200000000  0.5625300000000 1.0
C      1  0.4616160000000  0.4342030000000  0.5260090000000 1.0
C      1  0.4705410000000  0.5634240000000  0.4783170000000 1.0
C      1  0.5373040000000  0.5656650000000  0.5263690000000 1.0
C      1  0.5659370000000  0.4724160000000  0.4633930000000 1.0
C      1  0.5634110000000  0.5221080000000  0.5331700000000 1.0
C      1  0.4351850000000  0.5290610000000  0.4637800000000 1.0
C      1  0.5392670000000  0.5195760000000  0.5118220000000 1.0
C      1  0.5077230000000  0.5018240000000  0.5446760000000 1.0
C      1  0.4980780000000  0.5425140000000  0.5168210000000 1.0
C      1  0.4565420000000  0.5111330000000  0.4987710000000 1.0
C      1  0.4561450000000  0.4840640000000  0.5056720000000 1.0
C      1  0.5435340000000  0.4993350000000  0.4944140000000 1.0
C      1  0.4862160000000  0.5092030000000  0.4576540000000 1.0
C      1  0.4853880000000  0.4859610000000  0.5408470000000 1.0
C      1  0.5138140000000  0.5035350000000  0.4584010000000 1.0
C      1  0.4890140000000  0.5428550000000  0.4910000000000 1.0
C      1  0.4979610000000  0.4556540000000  0.5053200000000 1.0
C      1  0.5139960000000  0.4608350000000  0.4832610000000 1.0
C      1  0.4836960000000  0.4783560000000  0.5129600000000 1.0
C      1  0.4806970000000  0.5163480000000  0.4851830000000 1.0
C      1  0.5207610000000  0.4896110000000  0.4822570000000 1.0
C      1  0.5119050000000  0.5179170000000  0.5216980000000 1.0
C      1  0.4998540000000  0.5003780000000  0.5004670000000 1.0
END
