TITL C-121822-4992-9 7.88390482583168 125000 -137.345183376808 0 0 21 (Cs) n - 1
REM
REM in /rds/project/t2_vol4/rds-t2-cs072/BORA/CARBON/from-Arr/AIRSS/Generating-Clusters/GAP-ML-2020/Higher-Symm/SD-CG/HFTN-CG
REM
REM
REM
REM
REM
REM ./C.cell (b20cbc046b6831c77cfcea5457e17084)
REM AIRSS Version 0.9.1 bugfix July 2018 build 013d7b7c2542+ Fri, 06 Jul 2018 19:26:36 +0100
REM compiler GCC version 9.3.0
REM options -cpp -mtune=generic -march=x86-64 -g -O0
REM seed -1960400340 -26459158 1897909913 -821846377 -1815649104 -1345793381 354505665 339970425 -887720351 555803293 1942051640 1666720929 -492315557 -140660595 -1338604845 23153404 350161610 -536051758 1538441840 265228427 1862733067 -874326303 -1711881294 -1431528416 995339779 -1977929945 -323748165 1804358213 744742054 705353485 442466588 -7221044 1607608455
REM
CELL 1.54180   50.00000   50.00000   50.00000   90.00000   90.00000   90.00000
LATT -1
SFAC C  
C      1  0.4748560000000  0.5449380000000  0.5045350000000 1.0
C      1  0.4487920000000  0.4964390000000  0.5047320000000 1.0
C      1  0.4844760000000  0.4546900000000  0.5086300000000 1.0
C      1  0.5358610000000  0.4764170000000  0.5108820000000 1.0
C      1  0.5296380000000  0.5347980000000  0.5082320000000 1.0
C      1  0.4702930000000  0.4995860000000  0.5235690000000 1.0
C      1  0.4883190000000  0.4766320000000  0.5264170000000 1.0
C      1  0.5164760000000  0.4837680000000  0.5306200000000 1.0
C      1  0.5120450000000  0.5253310000000  0.5287330000000 1.0
C      1  0.4830590000000  0.5259780000000  0.5241780000000 1.0
C      1  0.5328220000000  0.5307880000000  0.4840200000000 1.0
C      1  0.4804230000000  0.5418060000000  0.4803710000000 1.0
C      1  0.4538430000000  0.4958650000000  0.4802230000000 1.0
C      1  0.4894900000000  0.4567460000000  0.4842310000000 1.0
C      1  0.5383620000000  0.4788220000000  0.4863780000000 1.0
C      1  0.5182630000000  0.5165030000000  0.4648890000000 1.0
C      1  0.4898770000000  0.5227220000000  0.4625480000000 1.0
C      1  0.4751000000000  0.4973270000000  0.4625040000000 1.0
C      1  0.4948880000000  0.4757170000000  0.4646810000000 1.0
C      1  0.5213070000000  0.4879520000000  0.4661850000000 1.0
C      1  0.5208280000000  0.5059740000000  0.5456410000000 1.0
END
