TITL C-122794-4748-2 0.0174504271106163 125000 -78.6043631000894 0 0 13 (C1) n - 1
REM
REM in /rds/project/t2_vol4/rds-t2-cs072/BORA/CARBON/from-Arr/AIRSS/Generating-Clusters/GAP-ML-2020/Higher-Symm/SD-CG/HFTN-CG
REM
REM
REM
REM
REM
REM ./C.cell (b20cbc046b6831c77cfcea5457e17084)
REM AIRSS Version 0.9.1 bugfix July 2018 build 013d7b7c2542+ Fri, 06 Jul 2018 19:26:36 +0100
REM compiler GCC version 9.3.0
REM options -cpp -mtune=generic -march=x86-64 -g -O0
REM seed -1611147997 1228167931 19672434 980117059 181236855 2039362033 -1526585698 1723384033 -1210867336 1301306953 1060057830 -266621601 -537721048 -466982772 -134889488 -249907705 -1641539101 -492938780 -1831591771 -374846377 -437212111 -1836697841 -1082930553 2035208069 504321551 982085110 -894126641 396609070 782720416 -493879514 -482580570 1099299101 1920602323
REM
CELL 1.54180   50.00000   50.00000   50.00000   90.00000   90.00000   90.00000
LATT -1
SFAC C  
C      1  0.5119600000000  0.4762350000000  0.5035560000000 1.0
C      1  0.4972250000000  0.4866410000000  0.4793450000000 1.0
C      1  0.5028470000000  0.5117050000000  0.4667310000000 1.0
C      1  0.4931460000000  0.5269580000000  0.4884720000000 1.0
C      1  0.5094960000000  0.5323010000000  0.5094960000000 1.0
C      1  0.5161920000000  0.5104110000000  0.5250620000000 1.0
C      1  0.4947980000000  0.4913380000000  0.5214870000000 1.0
C      1  0.5809420000000  0.4958010000000  0.4902630000000 1.0
C      1  0.5598610000000  0.4935600000000  0.5037890000000 1.0
C      1  0.5348030000000  0.4912090000000  0.5133920000000 1.0
C      1  0.4236810000000  0.5056700000000  0.4961470000000 1.0
C      1  0.4768020000000  0.5028240000000  0.4965600000000 1.0
C      1  0.4490130000000  0.5034400000000  0.4940420000000 1.0
END
