TITL C-126792-9175-4 -0.425957879428119 125000 -941.836979015 0 0 135 (C1) n - 1
REM
REM in /rds/project/t2_vol4/rds-t2-cs072/BORA/CARBON/from-Arr/AIRSS/Generating-Clusters/GAP-ML-2020/Higher-Symm/SD-CG/HFTN-CG
REM
REM
REM
REM
REM
REM ./C.cell (b20cbc046b6831c77cfcea5457e17084)
REM AIRSS Version 0.9.1 bugfix July 2018 build 013d7b7c2542+ Fri, 06 Jul 2018 19:26:36 +0100
REM compiler GCC version 9.3.0
REM options -cpp -mtune=generic -march=x86-64 -g -O0
REM seed -696362258 441512727 -476022554 -1914540281 -969213807 1800714386 1285944088 -2054812214 2044778162 -1849680489 1654381262 1886726827 2035315434 -1490682407 -1852127525 -1300785892 1695793197 -1995744370 817419619 282197532 1445304188 870426692 -1308397976 -67095490 -848478075 -508533168 1862062452 -1450060061 73155537 220351069 216592260 -641300505 295015255
REM
CELL 1.54180   50.00000   50.00000   50.00000   90.00000   90.00000   90.00000
LATT -1
SFAC C  
C      1  0.5351080000000  0.5275430000000  0.5700820000000 1.0
C      1  0.5379270000000  0.4735850000000  0.5642770000000 1.0
C      1  0.4819080000000  0.4575580000000  0.5631350000000 1.0
C      1  0.4480430000000  0.4933720000000  0.5655590000000 1.0
C      1  0.4780850000000  0.5463360000000  0.5662690000000 1.0
C      1  0.5007680000000  0.5461600000000  0.4031900000000 1.0
C      1  0.5448730000000  0.5140360000000  0.4041270000000 1.0
C      1  0.5278540000000  0.4622230000000  0.4040120000000 1.0
C      1  0.4732800000000  0.4623900000000  0.4029520000000 1.0
C      1  0.4564840000000  0.5142860000000  0.4026370000000 1.0
C      1  0.5271760000000  0.5379150000000  0.4037980000000 1.0
C      1  0.5451300000000  0.4863820000000  0.4042660000000 1.0
C      1  0.5016280000000  0.4534170000000  0.4034990000000 1.0
C      1  0.4567400000000  0.4845680000000  0.4027110000000 1.0
C      1  0.4725620000000  0.5367840000000  0.4029060000000 1.0
C      1  0.4496980000000  0.5649770000000  0.4695340000000 1.0
C      1  0.5462170000000  0.5677630000000  0.4710950000000 1.0
C      1  0.5780040000000  0.4767860000000  0.4718030000000 1.0
C      1  0.5016450000000  0.4177930000000  0.4705220000000 1.0
C      1  0.4221960000000  0.4725400000000  0.4692480000000 1.0
C      1  0.4724560000000  0.5805860000000  0.4776390000000 1.0
C      1  0.5677350000000  0.5507290000000  0.4800550000000 1.0
C      1  0.5687460000000  0.4504900000000  0.4792900000000 1.0
C      1  0.4737920000000  0.4185030000000  0.4780770000000 1.0
C      1  0.4145080000000  0.4991840000000  0.4773200000000 1.0
C      1  0.4661520000000  0.4404540000000  0.4217270000000 1.0
C      1  0.4332470000000  0.5139830000000  0.4212430000000 1.0
C      1  0.4931060000000  0.5680080000000  0.4218600000000 1.0
C      1  0.5629940000000  0.5278810000000  0.4232570000000 1.0
C      1  0.5463090000000  0.4490300000000  0.4232440000000 1.0
C      1  0.3978930000000  0.5293790000000  0.5155210000000 1.0
C      1  0.4944480000000  0.6061630000000  0.5153710000000 1.0
C      1  0.5976260000000  0.5359910000000  0.5186680000000 1.0
C      1  0.5636200000000  0.4170620000000  0.5181460000000 1.0
C      1  0.4413640000000  0.4121200000000  0.5164870000000 1.0
C      1  0.5766010000000  0.5150830000000  0.4443430000000 1.0
C      1  0.5378720000000  0.4315810000000  0.4436710000000 1.0
C      1  0.4468470000000  0.4426890000000  0.4420960000000 1.0
C      1  0.4292760000000  0.5327290000000  0.4418970000000 1.0
C      1  0.5095290000000  0.5772830000000  0.4427430000000 1.0
C      1  0.4084750000000  0.4970540000000  0.5497210000000 1.0
C      1  0.4680520000000  0.5852060000000  0.5503710000000 1.0
C      1  0.5695010000000  0.5554720000000  0.5527370000000 1.0
C      1  0.5736670000000  0.4500210000000  0.5517310000000 1.0
C      1  0.4749860000000  0.4159680000000  0.5522420000000 1.0
C      1  0.5089510000000  0.4776520000000  0.4562360000000 1.0
C      1  0.4814360000000  0.4845580000000  0.4554410000000 1.0
C      1  0.4795290000000  0.5128880000000  0.4553330000000 1.0
C      1  0.5058900000000  0.5234380000000  0.4560270000000 1.0
C      1  0.5240290000000  0.5016560000000  0.4565910000000 1.0
C      1  0.4382030000000  0.5071000000000  0.5181660000000 1.0
C      1  0.4870470000000  0.5603340000000  0.5187780000000 1.0
C      1  0.5517830000000  0.5304700000000  0.5206630000000 1.0
C      1  0.5441920000000  0.4588720000000  0.5189160000000 1.0
C      1  0.4735760000000  0.4447260000000  0.5171580000000 1.0
C      1  0.4312440000000  0.5464980000000  0.5444980000000 1.0
C      1  0.5224030000000  0.5827590000000  0.5429390000000 1.0
C      1  0.5818240000000  0.5029590000000  0.5464500000000 1.0
C      1  0.5270280000000  0.4231030000000  0.5462270000000 1.0
C      1  0.4326920000000  0.4494790000000  0.5429830000000 1.0
C      1  0.4513450000000  0.4339160000000  0.4684170000000 1.0
C      1  0.4221980000000  0.5254210000000  0.4681550000000 1.0
C      1  0.4998810000000  0.5815840000000  0.4687430000000 1.0
C      1  0.5774030000000  0.5251180000000  0.4706230000000 1.0
C      1  0.5472670000000  0.4335250000000  0.4700180000000 1.0
C      1  0.4561640000000  0.4864270000000  0.5219200000000 1.0
C      1  0.4730390000000  0.5366840000000  0.5226090000000 1.0
C      1  0.5253260000000  0.5373180000000  0.5246050000000 1.0
C      1  0.5414060000000  0.4863300000000  0.5225340000000 1.0
C      1  0.4988990000000  0.4553550000000  0.5219760000000 1.0
C      1  0.5718620000000  0.5492960000000  0.5084770000000 1.0
C      1  0.5684130000000  0.4452780000000  0.5073560000000 1.0
C      1  0.4687060000000  0.4172670000000  0.5062210000000 1.0
C      1  0.4113730000000  0.5030490000000  0.5055250000000 1.0
C      1  0.4749360000000  0.5846130000000  0.5059200000000 1.0
C      1  0.4178960000000  0.5485580000000  0.5164720000000 1.0
C      1  0.5198820000000  0.5941520000000  0.5161880000000 1.0
C      1  0.5933870000000  0.5084380000000  0.5194190000000 1.0
C      1  0.5359760000000  0.4128620000000  0.5189420000000 1.0
C      1  0.4275630000000  0.4368490000000  0.5158340000000 1.0
C      1  0.5495720000000  0.5056190000000  0.5039350000000 1.0
C      1  0.5195710000000  0.4534070000000  0.5031670000000 1.0
C      1  0.4609410000000  0.4666480000000  0.5022180000000 1.0
C      1  0.4556750000000  0.5259310000000  0.5027760000000 1.0
C      1  0.5102680000000  0.5495330000000  0.5036160000000 1.0
C      1  0.4968930000000  0.4753340000000  0.5428760000000 1.0
C      1  0.4734540000000  0.4937880000000  0.5445030000000 1.0
C      1  0.4844740000000  0.5222830000000  0.5456050000000 1.0
C      1  0.5147760000000  0.5201540000000  0.5457410000000 1.0
C      1  0.5224920000000  0.4910650000000  0.5437760000000 1.0
C      1  0.4597180000000  0.4898090000000  0.5907750000000 1.0
C      1  0.4845630000000  0.5387280000000  0.5923810000000 1.0
C      1  0.5339490000000  0.5549850000000  0.5757440000000 1.0
C      1  0.5586780000000  0.4796620000000  0.5828480000000 1.0
C      1  0.4978820000000  0.4445610000000  0.5820960000000 1.0
C      1  0.5769870000000  0.4776370000000  0.5612440000000 1.0
C      1  0.5019230000000  0.4229590000000  0.5622780000000 1.0
C      1  0.4251260000000  0.4741340000000  0.5554740000000 1.0
C      1  0.4524030000000  0.5620060000000  0.5568020000000 1.0
C      1  0.5450660000000  0.5713670000000  0.5575590000000 1.0
C      1  0.5248630000000  0.4254960000000  0.4899090000000 1.0
C      1  0.4364340000000  0.4522510000000  0.4882590000000 1.0
C      1  0.4349390000000  0.5450500000000  0.4884660000000 1.0
C      1  0.5221580000000  0.5756420000000  0.4892190000000 1.0
C      1  0.5778170000000  0.5016920000000  0.4908380000000 1.0
C      1  0.5370830000000  0.5687240000000  0.4440190000000 1.0
C      1  0.5767940000000  0.4862370000000  0.4450090000000 1.0
C      1  0.5105300000000  0.4224630000000  0.4438600000000 1.0
C      1  0.4296950000000  0.4659030000000  0.4425450000000 1.0
C      1  0.4459720000000  0.5562210000000  0.4426330000000 1.0
C      1  0.5826160000000  0.4334040000000  0.5306430000000 1.0
C      1  0.4630100000000  0.4012190000000  0.5311780000000 1.0
C      1  0.3918400000000  0.5053350000000  0.5280600000000 1.0
C      1  0.4704650000000  0.6036990000000  0.5288250000000 1.0
C      1  0.5882070000000  0.5584000000000  0.5315030000000 1.0
C      1  0.4772240000000  0.5133410000000  0.4862350000000 1.0
C      1  0.5049970000000  0.5252310000000  0.4868000000000 1.0
C      1  0.5247700000000  0.5024780000000  0.4876190000000 1.0
C      1  0.5092360000000  0.4764130000000  0.4870260000000 1.0
C      1  0.4797560000000  0.4832940000000  0.4862300000000 1.0
C      1  0.5615440000000  0.5259380000000  0.5515450000000 1.0
C      1  0.5435300000000  0.4486120000000  0.5491540000000 1.0
C      1  0.4622230000000  0.4427140000000  0.5474770000000 1.0
C      1  0.4319430000000  0.5158870000000  0.5490260000000 1.0
C      1  0.4940140000000  0.5695940000000  0.5482120000000 1.0
C      1  0.5455020000000  0.5514630000000  0.4232550000000 1.0
C      1  0.5633250000000  0.4729540000000  0.4239100000000 1.0
C      1  0.4941460000000  0.4316400000000  0.4226400000000 1.0
C      1  0.4335430000000  0.4846220000000  0.4216620000000 1.0
C      1  0.4652540000000  0.5586590000000  0.4220000000000 1.0
C      1  0.5058730000000  0.4680130000000  0.5979880000000 1.0
C      1  0.4853030000000  0.4897630000000  0.6006910000000 1.0
C      1  0.4980920000000  0.5163200000000  0.5999890000000 1.0
C      1  0.5249440000000  0.5110820000000  0.5929020000000 1.0
C      1  0.5310720000000  0.4830390000000  0.5938210000000 1.0
END
