TITL C-123284-2919-6 0.156076389949371 125000 -468.413446553368 0 0 67 (C1) n - 1
REM
REM in /rds/project/t2_vol4/rds-t2-cs072/BORA/CARBON/from-Arr/AIRSS/Generating-Clusters/GAP-ML-2020/Higher-Symm/SD-CG/HFTN-CG
REM
REM
REM
REM
REM
REM ./C.cell (b20cbc046b6831c77cfcea5457e17084)
REM AIRSS Version 0.9.1 bugfix July 2018 build 013d7b7c2542+ Fri, 06 Jul 2018 19:26:36 +0100
REM compiler GCC version 9.3.0
REM options -cpp -mtune=generic -march=x86-64 -g -O0
REM seed 1318215709 462352186 1471090792 -454987958 -964966820 1875316351 -894714557 -1239676336 714563859 -441496337 220866139 -1953847636 -1963661417 1345095758 1009432984 498414828 1082999501 1160565561 651739775 1790984038 -1088870403 -1882238212 -843965648 188035455 -1298419159 -918824575 -1931490 952381854 274929985 2120670579 2057784819 2100124390 -904570106
REM
CELL 1.54180   50.00000   50.00000   50.00000   90.00000   90.00000   90.00000
LATT -1
SFAC C  
C      1  0.5437020000000  0.5021320000000  0.4461220000000 1.0
C      1  0.5456200000000  0.4467540000000  0.5186780000000 1.0
C      1  0.5467950000000  0.5529500000000  0.5388290000000 1.0
C      1  0.4172500000000  0.4910540000000  0.4886360000000 1.0
C      1  0.4176550000000  0.4935770000000  0.5175440000000 1.0
C      1  0.4167840000000  0.5170410000000  0.5009940000000 1.0
C      1  0.5591070000000  0.5510100000000  0.5126420000000 1.0
C      1  0.5588590000000  0.4798630000000  0.4484330000000 1.0
C      1  0.5574930000000  0.4713670000000  0.5269880000000 1.0
C      1  0.5583740000000  0.5069570000000  0.4928500000000 1.0
C      1  0.5602360000000  0.4794470000000  0.4985940000000 1.0
C      1  0.5634020000000  0.5229580000000  0.5155090000000 1.0
C      1  0.4827190000000  0.5472130000000  0.5555180000000 1.0
C      1  0.4816940000000  0.5235910000000  0.4361750000000 1.0
C      1  0.4841370000000  0.4331030000000  0.5120940000000 1.0
C      1  0.5418940000000  0.5621050000000  0.4941500000000 1.0
C      1  0.5439460000000  0.4568670000000  0.4436610000000 1.0
C      1  0.5447700000000  0.4794660000000  0.5507960000000 1.0
C      1  0.4392120000000  0.4784520000000  0.4770630000000 1.0
C      1  0.4394280000000  0.4911750000000  0.5347380000000 1.0
C      1  0.4378130000000  0.5339810000000  0.4943160000000 1.0
C      1  0.4517690000000  0.4569040000000  0.4903830000000 1.0
C      1  0.4500940000000  0.5149420000000  0.5472160000000 1.0
C      1  0.4489210000000  0.5328720000000  0.4679300000000 1.0
C      1  0.5201810000000  0.5750730000000  0.5084170000000 1.0
C      1  0.5211740000000  0.4653340000000  0.4270010000000 1.0
C      1  0.5241690000000  0.4607750000000  0.5566940000000 1.0
C      1  0.5220310000000  0.4939300000000  0.4274930000000 1.0
C      1  0.5243160000000  0.4403600000000  0.5373060000000 1.0
C      1  0.5221120000000  0.5681150000000  0.5359830000000 1.0
C      1  0.4749710000000  0.4772190000000  0.5603170000000 1.0
C      1  0.4711490000000  0.5656450000000  0.4925740000000 1.0
C      1  0.4722480000000  0.4623440000000  0.4482960000000 1.0
C      1  0.4963840000000  0.5801990000000  0.4929250000000 1.0
C      1  0.4950810000000  0.4523870000000  0.4318380000000 1.0
C      1  0.5014160000000  0.4709150000000  0.5714910000000 1.0
C      1  0.5060210000000  0.5856760000000  0.4669050000000 1.0
C      1  0.5029500000000  0.4274950000000  0.4400880000000 1.0
C      1  0.5103040000000  0.4874340000000  0.5915420000000 1.0
C      1  0.4685650000000  0.4452320000000  0.4712540000000 1.0
C      1  0.4690450000000  0.5048640000000  0.5652400000000 1.0
C      1  0.4667760000000  0.5543130000000  0.4666790000000 1.0
C      1  0.5497220000000  0.4526500000000  0.4906580000000 1.0
C      1  0.5531390000000  0.5251180000000  0.5439640000000 1.0
C      1  0.5392410000000  0.5182190000000  0.4713200000000 1.0
C      1  0.5103260000000  0.5015010000000  0.4817710000000 1.0
C      1  0.5082320000000  0.4772680000000  0.4715020000000 1.0
C      1  0.5032860000000  0.4944170000000  0.5290760000000 1.0
C      1  0.4548970000000  0.5501770000000  0.5111820000000 1.0
C      1  0.4545890000000  0.4848430000000  0.4535650000000 1.0
C      1  0.4573320000000  0.4688290000000  0.5387810000000 1.0
C      1  0.4576450000000  0.5128250000000  0.4492780000000 1.0
C      1  0.4609040000000  0.4508600000000  0.5166060000000 1.0
C      1  0.4586490000000  0.5411070000000  0.5384180000000 1.0
C      1  0.4997980000000  0.5082140000000  0.4236020000000 1.0
C      1  0.5017070000000  0.4267770000000  0.5315800000000 1.0
C      1  0.5001390000000  0.5679490000000  0.5525020000000 1.0
C      1  0.5155640000000  0.5089120000000  0.5751710000000 1.0
C      1  0.5129670000000  0.5601650000000  0.4569820000000 1.0
C      1  0.5123170000000  0.4275200000000  0.4660030000000 1.0
C      1  0.4888170000000  0.4301630000000  0.4834000000000 1.0
C      1  0.4902020000000  0.5228920000000  0.5695780000000 1.0
C      1  0.4877190000000  0.5487720000000  0.4486380000000 1.0
C      1  0.5386070000000  0.4411270000000  0.4670730000000 1.0
C      1  0.5401870000000  0.5062430000000  0.5592420000000 1.0
C      1  0.5350710000000  0.5474640000000  0.4706830000000 1.0
C      1  0.4983880000000  0.5058580000000  0.5065340000000 1.0
END
