TITL C-123182-8122-8 -74.0255044403706 125000 -177.439206588522 0 0 28 (C1) n - 1
REM
REM in /rds/project/t2_vol4/rds-t2-cs072/BORA/CARBON/from-Arr/AIRSS/Generating-Clusters/GAP-ML-2020/Higher-Symm/SD-CG/HFTN-CG
REM
REM
REM
REM
REM
REM ./C.cell (b20cbc046b6831c77cfcea5457e17084)
REM AIRSS Version 0.9.1 bugfix July 2018 build 013d7b7c2542+ Fri, 06 Jul 2018 19:26:36 +0100
REM compiler GCC version 9.3.0
REM options -cpp -mtune=generic -march=x86-64 -g -O0
REM seed 909040458 1509641593 -1470455192 1471881261 -1513828744 -832000554 -940855879 256671334 291406786 -365314809 848042099 -36026277 -1140861864 683962563 -1842512107 1983069855 -2132740112 365341810 -645224797 -2027662369 2086701824 855880016 629242737 -1170068081 -1687351676 775945444 718580594 -318858961 1921538435 2102979960 1360487103 -170654995 40349461
REM
CELL 1.54180   50.00000   50.00000   50.00000   90.00000   90.00000   90.00000
LATT -1
SFAC C  
C      1  0.5390160000000  0.5244190000000  0.4776750000000 1.0
C      1  0.5285090000000  0.4686630000000  0.5188070000000 1.0
C      1  0.5361900000000  0.4959120000000  0.5228900000000 1.0
C      1  0.4678180000000  0.5168400000000  0.5303440000000 1.0
C      1  0.4571560000000  0.4729280000000  0.5157270000000 1.0
C      1  0.4694700000000  0.5204110000000  0.4638200000000 1.0
C      1  0.5016840000000  0.4843710000000  0.4531280000000 1.0
C      1  0.5093730000000  0.4591250000000  0.5386120000000 1.0
C      1  0.4896250000000  0.5496180000000  0.5066740000000 1.0
C      1  0.4991610000000  0.4853250000000  0.5462620000000 1.0
C      1  0.5114420000000  0.4626760000000  0.4687510000000 1.0
C      1  0.5022480000000  0.5540470000000  0.4831630000000 1.0
C      1  0.4661560000000  0.4491520000000  0.5189080000000 1.0
C      1  0.4885710000000  0.5362390000000  0.5319030000000 1.0
C      1  0.4919050000000  0.5094380000000  0.4464280000000 1.0
C      1  0.5133090000000  0.4556010000000  0.4967920000000 1.0
C      1  0.5191600000000  0.5383850000000  0.4648850000000 1.0
C      1  0.5200160000000  0.5059280000000  0.5458140000000 1.0
C      1  0.4875050000000  0.5279660000000  0.4859830000000 1.0
C      1  0.4882870000000  0.4980930000000  0.5220760000000 1.0
C      1  0.4944230000000  0.4827530000000  0.4801250000000 1.0
C      1  0.5088620000000  0.5304270000000  0.5499250000000 1.0
C      1  0.5094890000000  0.5298320000000  0.4401340000000 1.0
C      1  0.4940870000000  0.4454690000000  0.5172820000000 1.0
C      1  0.5013900000000  0.5055150000000  0.4965890000000 1.0
C      1  0.4537570000000  0.5103410000000  0.4831990000000 1.0
C      1  0.4545850000000  0.5007180000000  0.5095880000000 1.0
C      1  0.5297890000000  0.5107290000000  0.4992880000000 1.0
END
