TITL C-122784-4644-7 0.101497813494044 125000 -1276.59493559545 0 0 179 (C1) n - 1
REM
REM in /rds/project/t2_vol4/rds-t2-cs072/BORA/CARBON/from-Arr/AIRSS/Generating-Clusters/GAP-ML-2020/Higher-Symm/SD-CG/HFTN-CG
REM
REM
REM
REM
REM
REM ./C.cell (b20cbc046b6831c77cfcea5457e17084)
REM AIRSS Version 0.9.1 bugfix July 2018 build 013d7b7c2542+ Fri, 06 Jul 2018 19:26:36 +0100
REM compiler GCC version 9.3.0
REM options -cpp -mtune=generic -march=x86-64 -g -O0
REM seed -1695375995 2028837269 -983626737 -1377211194 1427239334 509225216 -68708733 569352935 717942724 -508098319 1058808348 1178244094 642775958 -779708667 679125407 -1428556099 -1644184127 1922892933 1671648053 518090760 413773287 312326985 1082513592 765291170 1070560094 -938583589 114901526 1669446622 1922868016 -1807652093 -63356219 402996672 798059457
REM
CELL 1.54180   50.00000   50.00000   50.00000   90.00000   90.00000   90.00000
LATT -1
SFAC C  
C      1  0.4861610000000  0.5709340000000  0.4059310000000 1.0
C      1  0.4847530000000  0.4059290000000  0.4291920000000 1.0
C      1  0.4862590000000  0.4289280000000  0.5936510000000 1.0
C      1  0.4848710000000  0.5945280000000  0.5710310000000 1.0
C      1  0.5146180000000  0.5708010000000  0.4060180000000 1.0
C      1  0.5132170000000  0.4056840000000  0.4288220000000 1.0
C      1  0.5147910000000  0.4292980000000  0.5934290000000 1.0
C      1  0.5133380000000  0.5948330000000  0.5711900000000 1.0
C      1  0.4450980000000  0.4506770000000  0.5909060000000 1.0
C      1  0.4443850000000  0.5903720000000  0.5482090000000 1.0
C      1  0.4453560000000  0.5485330000000  0.4091420000000 1.0
C      1  0.4440840000000  0.4097460000000  0.4514710000000 1.0
C      1  0.5551260000000  0.4520790000000  0.5894230000000 1.0
C      1  0.5543610000000  0.5916220000000  0.5487790000000 1.0
C      1  0.5552070000000  0.5480870000000  0.4095460000000 1.0
C      1  0.5546540000000  0.4081700000000  0.4497820000000 1.0
C      1  0.5692930000000  0.5504400000000  0.5625810000000 1.0
C      1  0.5695000000000  0.5607130000000  0.4515810000000 1.0
C      1  0.5701810000000  0.4497220000000  0.4354450000000 1.0
C      1  0.5689530000000  0.4393590000000  0.5470580000000 1.0
C      1  0.4301000000000  0.5485340000000  0.5614690000000 1.0
C      1  0.4308130000000  0.5611880000000  0.4509080000000 1.0
C      1  0.4296430000000  0.4517160000000  0.4391300000000 1.0
C      1  0.4307800000000  0.4380610000000  0.5488440000000 1.0
C      1  0.4074100000000  0.4902430000000  0.4670380000000 1.0
C      1  0.4081470000000  0.4669320000000  0.5093930000000 1.0
C      1  0.4062390000000  0.5086720000000  0.5331510000000 1.0
C      1  0.4066570000000  0.5322620000000  0.4901440000000 1.0
C      1  0.5943090000000  0.4894940000000  0.4655520000000 1.0
C      1  0.5952990000000  0.4657040000000  0.5074940000000 1.0
C      1  0.5930320000000  0.5099470000000  0.5334970000000 1.0
C      1  0.5935400000000  0.5324810000000  0.4908930000000 1.0
C      1  0.5561200000000  0.5241030000000  0.5693800000000 1.0
C      1  0.5564950000000  0.5660120000000  0.4786650000000 1.0
C      1  0.5568900000000  0.4771460000000  0.4312970000000 1.0
C      1  0.5568070000000  0.4321950000000  0.5200930000000 1.0
C      1  0.4429100000000  0.5214670000000  0.5673990000000 1.0
C      1  0.4437410000000  0.5661330000000  0.4780040000000 1.0
C      1  0.4439330000000  0.4784140000000  0.4342150000000 1.0
C      1  0.4441970000000  0.4337260000000  0.5218850000000 1.0
C      1  0.4014270000000  0.5325130000000  0.5186460000000 1.0
C      1  0.4017100000000  0.5184760000000  0.4660080000000 1.0
C      1  0.4023010000000  0.4657590000000  0.4807470000000 1.0
C      1  0.4013400000000  0.4800080000000  0.5334830000000 1.0
C      1  0.5985550000000  0.5338440000000  0.5194460000000 1.0
C      1  0.5986850000000  0.5184320000000  0.4665450000000 1.0
C      1  0.6002510000000  0.4653920000000  0.4787810000000 1.0
C      1  0.5973150000000  0.4810030000000  0.5316540000000 1.0
C      1  0.4862680000000  0.4124290000000  0.5483330000000 1.0
C      1  0.4848550000000  0.5488060000000  0.5861840000000 1.0
C      1  0.4860940000000  0.5854340000000  0.4518760000000 1.0
C      1  0.4850530000000  0.4514440000000  0.4135830000000 1.0
C      1  0.5150110000000  0.4124850000000  0.5480150000000 1.0
C      1  0.5133900000000  0.5492570000000  0.5864850000000 1.0
C      1  0.5146110000000  0.5853410000000  0.4519920000000 1.0
C      1  0.5136830000000  0.4511530000000  0.4130550000000 1.0
C      1  0.4301110000000  0.4734940000000  0.5823180000000 1.0
C      1  0.4305270000000  0.5807820000000  0.5252830000000 1.0
C      1  0.4311520000000  0.5256070000000  0.4184300000000 1.0
C      1  0.4291320000000  0.4197380000000  0.4739080000000 1.0
C      1  0.5690190000000  0.4751290000000  0.5804480000000 1.0
C      1  0.5689020000000  0.5822360000000  0.5260150000000 1.0
C      1  0.5694410000000  0.5251380000000  0.4185640000000 1.0
C      1  0.5699820000000  0.4168790000000  0.4721630000000 1.0
C      1  0.4746310000000  0.5665940000000  0.4723760000000 1.0
C      1  0.4743120000000  0.4719390000000  0.4325000000000 1.0
C      1  0.4747960000000  0.4311200000000  0.5278930000000 1.0
C      1  0.4735510000000  0.5273480000000  0.5679220000000 1.0
C      1  0.5259370000000  0.5666110000000  0.4727930000000 1.0
C      1  0.5259560000000  0.4716040000000  0.4314900000000 1.0
C      1  0.5264500000000  0.4308410000000  0.5271230000000 1.0
C      1  0.5250690000000  0.5283380000000  0.5687490000000 1.0
C      1  0.5302500000000  0.4017430000000  0.4935470000000 1.0
C      1  0.5299470000000  0.4950520000000  0.5981540000000 1.0
C      1  0.5291830000000  0.5963840000000  0.5053100000000 1.0
C      1  0.5299790000000  0.5050660000000  0.4025760000000 1.0
C      1  0.4691870000000  0.4030690000000  0.4941140000000 1.0
C      1  0.4696480000000  0.4943240000000  0.5977810000000 1.0
C      1  0.4701670000000  0.5959290000000  0.5052380000000 1.0
C      1  0.4704020000000  0.5049670000000  0.4028920000000 1.0
C      1  0.5550730000000  0.5689370000000  0.4292210000000 1.0
C      1  0.5543950000000  0.4276620000000  0.4287420000000 1.0
C      1  0.5549680000000  0.4311040000000  0.5698870000000 1.0
C      1  0.5542820000000  0.5725990000000  0.5701910000000 1.0
C      1  0.4455230000000  0.5693950000000  0.4287310000000 1.0
C      1  0.4445080000000  0.4291380000000  0.4307830000000 1.0
C      1  0.4455620000000  0.4298480000000  0.5710680000000 1.0
C      1  0.4443980000000  0.5710870000000  0.5693810000000 1.0
C      1  0.4372240000000  0.4897560000000  0.4632930000000 1.0
C      1  0.4379020000000  0.4644500000000  0.5127310000000 1.0
C      1  0.4356500000000  0.5104350000000  0.5387030000000 1.0
C      1  0.4361750000000  0.5371990000000  0.4887360000000 1.0
C      1  0.5649930000000  0.4872960000000  0.4601170000000 1.0
C      1  0.5656780000000  0.4594450000000  0.5052330000000 1.0
C      1  0.5640420000000  0.5135370000000  0.5408290000000 1.0
C      1  0.5641670000000  0.5372590000000  0.4896010000000 1.0
C      1  0.4863480000000  0.4591510000000  0.5348340000000 1.0
C      1  0.4846490000000  0.5325280000000  0.5397320000000 1.0
C      1  0.4862340000000  0.5386780000000  0.4663590000000 1.0
C      1  0.4859220000000  0.4652120000000  0.4602840000000 1.0
C      1  0.5155640000000  0.4593990000000  0.5350650000000 1.0
C      1  0.5138240000000  0.5330810000000  0.5401750000000 1.0
C      1  0.5154360000000  0.5385560000000  0.4668140000000 1.0
C      1  0.5150280000000  0.4650510000000  0.4598420000000 1.0
C      1  0.5286550000000  0.3955760000000  0.4508520000000 1.0
C      1  0.5297020000000  0.4517750000000  0.6032740000000 1.0
C      1  0.5285790000000  0.6046320000000  0.5487370000000 1.0
C      1  0.5296590000000  0.5483820000000  0.3960260000000 1.0
C      1  0.4696150000000  0.3962620000000  0.4517370000000 1.0
C      1  0.4708580000000  0.4509750000000  0.6039330000000 1.0
C      1  0.4698920000000  0.6039430000000  0.5483490000000 1.0
C      1  0.4709810000000  0.5486250000000  0.3959100000000 1.0
C      1  0.4442320000000  0.5352290000000  0.5177000000000 1.0
C      1  0.4448330000000  0.5183290000000  0.4633440000000 1.0
C      1  0.4515870000000  0.4760630000000  0.4891660000000 1.0
C      1  0.4442570000000  0.4816080000000  0.5382980000000 1.0
C      1  0.5556960000000  0.5368670000000  0.5189170000000 1.0
C      1  0.5565220000000  0.5165180000000  0.4636380000000 1.0
C      1  0.5570240000000  0.4606330000000  0.4774840000000 1.0
C      1  0.5535130000000  0.4866970000000  0.5400440000000 1.0
C      1  0.5765980000000  0.4687990000000  0.5510910000000 1.0
C      1  0.5776070000000  0.5543380000000  0.5326150000000 1.0
C      1  0.5779620000000  0.5314980000000  0.4470800000000 1.0
C      1  0.5795260000000  0.4447110000000  0.4641360000000 1.0
C      1  0.4217690000000  0.4670650000000  0.5539960000000 1.0
C      1  0.4222770000000  0.5524390000000  0.5318540000000 1.0
C      1  0.4228220000000  0.5319250000000  0.4465360000000 1.0
C      1  0.4170160000000  0.4455650000000  0.4652260000000 1.0
C      1  0.5565670000000  0.5877740000000  0.5011620000000 1.0
C      1  0.5573390000000  0.5005600000000  0.4111080000000 1.0
C      1  0.5576160000000  0.4107090000000  0.4970750000000 1.0
C      1  0.5571390000000  0.4996900000000  0.5892500000000 1.0
C      1  0.4429310000000  0.5872870000000  0.5006990000000 1.0
C      1  0.4432620000000  0.5009390000000  0.4124150000000 1.0
C      1  0.4420390000000  0.4135030000000  0.4984920000000 1.0
C      1  0.4424140000000  0.4983140000000  0.5886780000000 1.0
C      1  0.4852860000000  0.5251190000000  0.3897860000000 1.0
C      1  0.4844080000000  0.3892260000000  0.4747030000000 1.0
C      1  0.4850800000000  0.4743960000000  0.6107730000000 1.0
C      1  0.4846170000000  0.6098100000000  0.5250050000000 1.0
C      1  0.5150380000000  0.5251220000000  0.3895390000000 1.0
C      1  0.5143480000000  0.3887920000000  0.4742000000000 1.0
C      1  0.5149510000000  0.4747210000000  0.6107000000000 1.0
C      1  0.5142630000000  0.6099830000000  0.5250840000000 1.0
C      1  0.5166810000000  0.4940920000000  0.4715610000000 1.0
C      1  0.5173330000000  0.4691170000000  0.5050080000000 1.0
C      1  0.5132410000000  0.5040520000000  0.5296710000000 1.0
C      1  0.5156410000000  0.5272270000000  0.4961810000000 1.0
C      1  0.4871890000000  0.4949700000000  0.4709490000000 1.0
C      1  0.4884910000000  0.4691630000000  0.5062010000000 1.0
C      1  0.4837820000000  0.5025210000000  0.5283920000000 1.0
C      1  0.4854930000000  0.5269640000000  0.4951740000000 1.0
C      1  0.4704170000000  0.4279610000000  0.4183190000000 1.0
C      1  0.4718350000000  0.4176880000000  0.5718970000000 1.0
C      1  0.4704580000000  0.5723630000000  0.5818730000000 1.0
C      1  0.4717380000000  0.5816150000000  0.4280520000000 1.0
C      1  0.5278100000000  0.4272690000000  0.4173360000000 1.0
C      1  0.5292590000000  0.4182110000000  0.5715590000000 1.0
C      1  0.5278720000000  0.5730410000000  0.5822990000000 1.0
C      1  0.5289510000000  0.5813000000000  0.4282960000000 1.0
C      1  0.5273700000000  0.4514880000000  0.4822290000000 1.0
C      1  0.5249550000000  0.4843800000000  0.5485310000000 1.0
C      1  0.5263090000000  0.5457010000000  0.5169450000000 1.0
C      1  0.5276710000000  0.5153940000000  0.4538790000000 1.0
C      1  0.4743960000000  0.4538640000000  0.4845910000000 1.0
C      1  0.4734340000000  0.4825100000000  0.5475770000000 1.0
C      1  0.4732980000000  0.5447080000000  0.5160400000000 1.0
C      1  0.4744130000000  0.5157040000000  0.4534050000000 1.0
C      1  0.5157040000000  0.4992680000000  0.4277940000000 1.0
C      1  0.5155710000000  0.4265520000000  0.4996790000000 1.0
C      1  0.5146260000000  0.5007390000000  0.5734480000000 1.0
C      1  0.5150830000000  0.5708640000000  0.5003350000000 1.0
C      1  0.4852270000000  0.4993860000000  0.4278380000000 1.0
C      1  0.4849580000000  0.4272240000000  0.5001890000000 1.0
C      1  0.4843340000000  0.5001970000000  0.5731100000000 1.0
C      1  0.4847260000000  0.5705490000000  0.5001620000000 1.0
C      1  0.5529260000000  0.4863410000000  0.5112700000000 1.0
C      1  0.4747970000000  0.4960750000000  0.4989260000000 1.0
C      1  0.5268490000000  0.4970340000000  0.5017810000000 1.0
END
