TITL C-123176-8302-3 -0.0504709575379268 125000 -463.498569459197 0 0 69 (C1) n - 1
REM
REM in /rds/project/t2_vol4/rds-t2-cs072/BORA/CARBON/from-Arr/AIRSS/Generating-Clusters/GAP-ML-2020/Higher-Symm/SD-CG/HFTN-CG
REM
REM
REM
REM
REM
REM ./C.cell (b20cbc046b6831c77cfcea5457e17084)
REM AIRSS Version 0.9.1 bugfix July 2018 build 013d7b7c2542+ Fri, 06 Jul 2018 19:26:36 +0100
REM compiler GCC version 9.3.0
REM options -cpp -mtune=generic -march=x86-64 -g -O0
REM seed -134021209 2025380962 -1613983842 737953333 -1347323428 929856517 1538222594 94826148 2125220782 -1780995428 919291327 652043203 -321219360 241196537 -672325651 -1188199894 1983243996 1723214272 -890013670 712925569 -1601181415 -926615111 1910144877 1562360756 -399056274 -1340958149 1790763020 -1075092416 -1498593796 1083115628 557103109 -1614042550 -2094328513
REM
CELL 1.54180   50.00000   50.00000   50.00000   90.00000   90.00000   90.00000
LATT -1
SFAC C  
C      1  0.4720600000000  0.5002400000000  0.5159220000000 1.0
C      1  0.5186370000000  0.5260690000000  0.5121070000000 1.0
C      1  0.5164010000000  0.4736640000000  0.5149880000000 1.0
C      1  0.4697930000000  0.4999640000000  0.4847330000000 1.0
C      1  0.5173800000000  0.5262140000000  0.4811590000000 1.0
C      1  0.5144520000000  0.4752010000000  0.4840170000000 1.0
C      1  0.5327370000000  0.4994070000000  0.5144710000000 1.0
C      1  0.4888770000000  0.5259490000000  0.5135720000000 1.0
C      1  0.4855470000000  0.4732150000000  0.5148380000000 1.0
C      1  0.5305140000000  0.4998210000000  0.4838110000000 1.0
C      1  0.4868560000000  0.5260190000000  0.4827070000000 1.0
C      1  0.4843240000000  0.4738640000000  0.4837660000000 1.0
C      1  0.5599820000000  0.5067880000000  0.5236980000000 1.0
C      1  0.4799750000000  0.4449280000000  0.5229090000000 1.0
C      1  0.4468530000000  0.5358060000000  0.5189980000000 1.0
C      1  0.5612190000000  0.5299660000000  0.4811710000000 1.0
C      1  0.4790610000000  0.4480310000000  0.4701380000000 1.0
C      1  0.4666530000000  0.5464380000000  0.4755770000000 1.0
C      1  0.4473460000000  0.5088020000000  0.5296100000000 1.0
C      1  0.5236370000000  0.4461600000000  0.5229310000000 1.0
C      1  0.5384180000000  0.5455310000000  0.5218480000000 1.0
C      1  0.4425310000000  0.5094810000000  0.4773880000000 1.0
C      1  0.5026490000000  0.4340910000000  0.4803150000000 1.0
C      1  0.5386620000000  0.5436830000000  0.4689580000000 1.0
C      1  0.5137770000000  0.5380610000000  0.4301580000000 1.0
C      1  0.5199620000000  0.4729070000000  0.4442180000000 1.0
C      1  0.4550300000000  0.4968090000000  0.4322520000000 1.0
C      1  0.5146570000000  0.5387520000000  0.5620990000000 1.0
C      1  0.5283530000000  0.4678580000000  0.5652380000000 1.0
C      1  0.4644900000000  0.4883800000000  0.5691850000000 1.0
C      1  0.4858270000000  0.5395120000000  0.4325270000000 1.0
C      1  0.4712520000000  0.4735020000000  0.4303960000000 1.0
C      1  0.5379710000000  0.4952990000000  0.4439730000000 1.0
C      1  0.4871410000000  0.5322250000000  0.5585750000000 1.0
C      1  0.4760140000000  0.4624010000000  0.5673630000000 1.0
C      1  0.5411840000000  0.4929300000000  0.5652240000000 1.0
C      1  0.5537680000000  0.4528610000000  0.4700410000000 1.0
C      1  0.4214630000000  0.4727820000000  0.4516010000000 1.0
C      1  0.5154160000000  0.5814750000000  0.4483660000000 1.0
C      1  0.5666910000000  0.4470860000000  0.5474560000000 1.0
C      1  0.4265410000000  0.4693870000000  0.5505980000000 1.0
C      1  0.5089290000000  0.5790730000000  0.5406170000000 1.0
C      1  0.4349680000000  0.4513690000000  0.4481920000000 1.0
C      1  0.5680240000000  0.4739080000000  0.4712500000000 1.0
C      1  0.4900100000000  0.5823890000000  0.4517400000000 1.0
C      1  0.4377990000000  0.4467020000000  0.5477070000000 1.0
C      1  0.5784810000000  0.4697500000000  0.5488160000000 1.0
C      1  0.4853170000000  0.5726870000000  0.5327400000000 1.0
C      1  0.5554330000000  0.5004910000000  0.4686320000000 1.0
C      1  0.4631960000000  0.4507240000000  0.4473240000000 1.0
C      1  0.4739480000000  0.5595330000000  0.4520350000000 1.0
C      1  0.5660010000000  0.4947840000000  0.5481930000000 1.0
C      1  0.4654500000000  0.4429190000000  0.5468840000000 1.0
C      1  0.4741670000000  0.5458440000000  0.5305840000000 1.0
C      1  0.4332360000000  0.4980750000000  0.4533200000000 1.0
C      1  0.5246750000000  0.4528760000000  0.4681400000000 1.0
C      1  0.5295950000000  0.5574240000000  0.4463520000000 1.0
C      1  0.4409320000000  0.4936020000000  0.5521840000000 1.0
C      1  0.5387120000000  0.4463050000000  0.5465710000000 1.0
C      1  0.5280300000000  0.5583540000000  0.5446470000000 1.0
C      1  0.4914670000000  0.5032040000000  0.5697110000000 1.0
C      1  0.5204130000000  0.5105320000000  0.4284070000000 1.0
C      1  0.4780090000000  0.5127610000000  0.4287660000000 1.0
C      1  0.5209120000000  0.5123520000000  0.5706180000000 1.0
C      1  0.5015940000000  0.4739080000000  0.5702260000000 1.0
C      1  0.4980940000000  0.4887010000000  0.4295100000000 1.0
C      1  0.5023850000000  0.4313450000000  0.5082460000000 1.0
C      1  0.4434380000000  0.5362380000000  0.4911010000000 1.0
C      1  0.5626880000000  0.5325910000000  0.5090770000000 1.0
END
