TITL C-122782-4667-7 224.314449796724 125000 -663.459702878042 0 0 97 (C1) n - 1
REM
REM in /rds/project/t2_vol4/rds-t2-cs072/BORA/CARBON/from-Arr/AIRSS/Generating-Clusters/GAP-ML-2020/Higher-Symm/SD-CG/HFTN-CG
REM
REM
REM
REM
REM
REM ./C.cell (b20cbc046b6831c77cfcea5457e17084)
REM AIRSS Version 0.9.1 bugfix July 2018 build 013d7b7c2542+ Fri, 06 Jul 2018 19:26:36 +0100
REM compiler GCC version 9.3.0
REM options -cpp -mtune=generic -march=x86-64 -g -O0
REM seed 365502538 -1600458634 1035421348 -1586364588 -759436536 -610673400 -1249476376 1726009911 1633940269 416954295 -2135556268 -24636465 1958776791 846378520 1621890675 1729609075 -1939287300 1081156268 50307608 1924910873 -1509932475 -2124339070 1065577973 902302732 -191866177 -1251049004 21674580 1302072681 -73925751 226657871 1182589990 849592534 -1046550497
REM
CELL 1.54180   50.00000   50.00000   50.00000   90.00000   90.00000   90.00000
LATT -1
SFAC C  
C      1  0.5162630000000  0.5400190000000  0.5010510000000 1.0
C      1  0.4834430000000  0.4568260000000  0.4986570000000 1.0
C      1  0.4236570000000  0.5371660000000  0.5187600000000 1.0
C      1  0.5757010000000  0.4631900000000  0.4806110000000 1.0
C      1  0.4965040000000  0.5437020000000  0.5229680000000 1.0
C      1  0.5034660000000  0.4572100000000  0.4767540000000 1.0
C      1  0.4462600000000  0.4986090000000  0.4235420000000 1.0
C      1  0.5539240000000  0.5006680000000  0.5760430000000 1.0
C      1  0.4773110000000  0.5232640000000  0.4774000000000 1.0
C      1  0.5250490000000  0.4733720000000  0.5221800000000 1.0
C      1  0.4706270000000  0.5329390000000  0.5075870000000 1.0
C      1  0.5282560000000  0.4699540000000  0.4917350000000 1.0
C      1  0.5382420000000  0.4505210000000  0.5435400000000 1.0
C      1  0.4645810000000  0.5464700000000  0.4558870000000 1.0
C      1  0.4216290000000  0.5110630000000  0.5264510000000 1.0
C      1  0.5782280000000  0.4893100000000  0.4734090000000 1.0
C      1  0.4604400000000  0.5745030000000  0.4985090000000 1.0
C      1  0.5394930000000  0.4251970000000  0.4999320000000 1.0
C      1  0.4698530000000  0.4325130000000  0.5129580000000 1.0
C      1  0.5289180000000  0.5650310000000  0.4860060000000 1.0
C      1  0.5222860000000  0.5048460000000  0.5281210000000 1.0
C      1  0.4746730000000  0.4945160000000  0.4699710000000 1.0
C      1  0.4478930000000  0.5531590000000  0.5166590000000 1.0
C      1  0.5511940000000  0.4478930000000  0.4826890000000 1.0
C      1  0.5384440000000  0.5245820000000  0.5132180000000 1.0
C      1  0.4625840000000  0.4749890000000  0.4877710000000 1.0
C      1  0.5795640000000  0.5117620000000  0.5435260000000 1.0
C      1  0.4204790000000  0.4878370000000  0.4563970000000 1.0
C      1  0.4230580000000  0.4843640000000  0.5104140000000 1.0
C      1  0.5784650000000  0.5155910000000  0.4899410000000 1.0
C      1  0.4855400000000  0.5541110000000  0.4319270000000 1.0
C      1  0.5149690000000  0.4437070000000  0.5672900000000 1.0
C      1  0.5643910000000  0.4602170000000  0.5502610000000 1.0
C      1  0.4370050000000  0.5388280000000  0.4483130000000 1.0
C      1  0.4845000000000  0.5833710000000  0.5095100000000 1.0
C      1  0.5152840000000  0.4158530000000  0.4889900000000 1.0
C      1  0.5382360000000  0.4435550000000  0.4559160000000 1.0
C      1  0.4611050000000  0.5564990000000  0.5431340000000 1.0
C      1  0.4967230000000  0.4718050000000  0.5192480000000 1.0
C      1  0.5048840000000  0.5161870000000  0.4860050000000 1.0
C      1  0.4914940000000  0.5836950000000  0.4653520000000 1.0
C      1  0.5087480000000  0.4149150000000  0.5331570000000 1.0
C      1  0.5348960000000  0.4257490000000  0.5279250000000 1.0
C      1  0.4659740000000  0.5723470000000  0.4707790000000 1.0
C      1  0.4967740000000  0.5131570000000  0.4128700000000 1.0
C      1  0.5033840000000  0.4854160000000  0.5851070000000 1.0
C      1  0.5228240000000  0.5065960000000  0.4262810000000 1.0
C      1  0.4772100000000  0.4927620000000  0.5722020000000 1.0
C      1  0.4943210000000  0.4769410000000  0.4549040000000 1.0
C      1  0.5053220000000  0.5236100000000  0.5454570000000 1.0
C      1  0.5060040000000  0.5689900000000  0.4453350000000 1.0
C      1  0.4944170000000  0.4295810000000  0.5532530000000 1.0
C      1  0.5573000000000  0.5597830000000  0.4936010000000 1.0
C      1  0.4417190000000  0.4393180000000  0.5061110000000 1.0
C      1  0.5627000000000  0.4898690000000  0.4473850000000 1.0
C      1  0.4370480000000  0.5098240000000  0.5521430000000 1.0
C      1  0.5206660000000  0.5294920000000  0.5706290000000 1.0
C      1  0.4795990000000  0.4698480000000  0.4296220000000 1.0
C      1  0.5253510000000  0.5046510000000  0.5831680000000 1.0
C      1  0.4747190000000  0.4942710000000  0.4160830000000 1.0
C      1  0.4288740000000  0.5140740000000  0.4435940000000 1.0
C      1  0.5710100000000  0.4854170000000  0.5557100000000 1.0
C      1  0.4521930000000  0.4874730000000  0.5105560000000 1.0
C      1  0.5495390000000  0.5131590000000  0.4894160000000 1.0
C      1  0.4789460000000  0.5137910000000  0.5528150000000 1.0
C      1  0.5205300000000  0.4873770000000  0.4473170000000 1.0
C      1  0.4819140000000  0.4274090000000  0.4567830000000 1.0
C      1  0.5175130000000  0.5725080000000  0.5431620000000 1.0
C      1  0.4566610000000  0.5320520000000  0.5568010000000 1.0
C      1  0.5422310000000  0.4685060000000  0.4434410000000 1.0
C      1  0.4886660000000  0.5393560000000  0.4094090000000 1.0
C      1  0.5112210000000  0.4590450000000  0.5892290000000 1.0
C      1  0.4895780000000  0.5699280000000  0.5347050000000 1.0
C      1  0.5100780000000  0.4306570000000  0.4644400000000 1.0
C      1  0.4547920000000  0.4556650000000  0.4345840000000 1.0
C      1  0.5452250000000  0.5438320000000  0.5653380000000 1.0
C      1  0.5275720000000  0.4977170000000  0.4774680000000 1.0
C      1  0.4708550000000  0.5068540000000  0.5210940000000 1.0
C      1  0.4513520000000  0.4840070000000  0.5628410000000 1.0
C      1  0.5488590000000  0.5153590000000  0.4355210000000 1.0
C      1  0.5664130000000  0.5396070000000  0.4753640000000 1.0
C      1  0.4328510000000  0.4592950000000  0.5246620000000 1.0
C      1  0.5310370000000  0.5603390000000  0.4566860000000 1.0
C      1  0.4689460000000  0.4381210000000  0.5423740000000 1.0
C      1  0.4484040000000  0.4583920000000  0.5489670000000 1.0
C      1  0.5517300000000  0.5404430000000  0.4503100000000 1.0
C      1  0.5655530000000  0.5250860000000  0.5656760000000 1.0
C      1  0.4345640000000  0.4744470000000  0.4342720000000 1.0
C      1  0.5425570000000  0.5616580000000  0.5434530000000 1.0
C      1  0.4570140000000  0.4381150000000  0.4566380000000 1.0
C      1  0.5055570000000  0.5845240000000  0.4894310000000 1.0
C      1  0.4942690000000  0.4140620000000  0.5091950000000 1.0
C      1  0.5595450000000  0.5477910000000  0.5196320000000 1.0
C      1  0.4400470000000  0.4520760000000  0.4806030000000 1.0
C      1  0.5804970000000  0.5254570000000  0.5191450000000 1.0
C      1  0.4195820000000  0.4746890000000  0.4811200000000 1.0
C      1  0.4970500000000  0.4999800000000  0.5111980000000 1.0
END
