TITL C-126536-1882-5 -17.0372177251696 125000 -332.04914457852 0 0 48 (Td) n - 1
REM
REM in /rds/project/t2_vol4/rds-t2-cs072/BORA/CARBON/from-Arr/AIRSS/Generating-Clusters/GAP-ML-2020/Higher-Symm/SD-CG/HFTN-CG
REM
REM
REM
REM
REM
REM ./C.cell (b20cbc046b6831c77cfcea5457e17084)
REM AIRSS Version 0.9.1 bugfix July 2018 build 013d7b7c2542+ Fri, 06 Jul 2018 19:26:36 +0100
REM compiler GCC version 9.3.0
REM options -cpp -mtune=generic -march=x86-64 -g -O0
REM seed -1684178263 207783932 2127597175 294016591 1362044685 1532815681 -1704112639 65687606 771820891 -1154302761 1293014220 1284803900 1684618461 491173635 173353459 -1480654844 863857878 -1717415660 993252822 75353365 -1099386428 -505869002 -583286262 1241915205 -1581613149 1613687876 1625625404 -18525719 -603405102 -1891731115 238148332 -2036548136 951425610
REM
CELL 1.54180   50.00000   50.00000   50.00000   90.00000   90.00000   90.00000
LATT -1
SFAC C  
C      1  0.4659470000000  0.5137100000000  0.5544040000000 1.0
C      1  0.5544060000000  0.4659500000000  0.5137120000000 1.0
C      1  0.5137090000000  0.5544050000000  0.4659480000000 1.0
C      1  0.5340520000000  0.5137110000000  0.4455950000000 1.0
C      1  0.4659490000000  0.4862880000000  0.4455950000000 1.0
C      1  0.5340520000000  0.4862920000000  0.5544060000000 1.0
C      1  0.4455970000000  0.4659460000000  0.4862890000000 1.0
C      1  0.5544040000000  0.5340540000000  0.4862900000000 1.0
C      1  0.4455930000000  0.5340500000000  0.5137090000000 1.0
C      1  0.4862870000000  0.5544050000000  0.5340510000000 1.0
C      1  0.5137120000000  0.4455960000000  0.5340530000000 1.0
C      1  0.4862930000000  0.4455940000000  0.4659480000000 1.0
C      1  0.5544050000000  0.5137120000000  0.4659490000000 1.0
C      1  0.5137110000000  0.4659490000000  0.5544060000000 1.0
C      1  0.4659460000000  0.5544040000000  0.5137090000000 1.0
C      1  0.4455940000000  0.5137080000000  0.5340510000000 1.0
C      1  0.4455960000000  0.4862870000000  0.4659470000000 1.0
C      1  0.5544050000000  0.4862920000000  0.5340530000000 1.0
C      1  0.4862920000000  0.4659470000000  0.4455950000000 1.0
C      1  0.4862870000000  0.5340520000000  0.5544040000000 1.0
C      1  0.5137100000000  0.5340520000000  0.4455950000000 1.0
C      1  0.5340500000000  0.5544060000000  0.4862900000000 1.0
C      1  0.5340540000000  0.4455970000000  0.5137120000000 1.0
C      1  0.4659510000000  0.4455940000000  0.4862900000000 1.0
C      1  0.4317260000000  0.5276620000000  0.4897210000000 1.0
C      1  0.4897250000000  0.4317270000000  0.5276660000000 1.0
C      1  0.5276670000000  0.4897230000000  0.4317280000000 1.0
C      1  0.5682720000000  0.5276680000000  0.5102780000000 1.0
C      1  0.4317280000000  0.4723320000000  0.5102770000000 1.0
C      1  0.5682740000000  0.4723380000000  0.4897240000000 1.0
C      1  0.5102810000000  0.4317270000000  0.4723360000000 1.0
C      1  0.4897200000000  0.5682720000000  0.4723340000000 1.0
C      1  0.5102740000000  0.5682740000000  0.5276640000000 1.0
C      1  0.4723340000000  0.4897220000000  0.5682730000000 1.0
C      1  0.5276640000000  0.5102800000000  0.5682730000000 1.0
C      1  0.4723350000000  0.5102760000000  0.4317260000000 1.0
C      1  0.4897220000000  0.5276640000000  0.4317270000000 1.0
C      1  0.5276680000000  0.4317280000000  0.4897240000000 1.0
C      1  0.4317270000000  0.4897200000000  0.5276640000000 1.0
C      1  0.5102750000000  0.5276660000000  0.5682730000000 1.0
C      1  0.5102800000000  0.4723350000000  0.4317270000000 1.0
C      1  0.4897220000000  0.4723350000000  0.5682730000000 1.0
C      1  0.4723380000000  0.4317260000000  0.5102780000000 1.0
C      1  0.4723320000000  0.5682720000000  0.4897210000000 1.0
C      1  0.5276620000000  0.5682740000000  0.5102770000000 1.0
C      1  0.5682740000000  0.4897250000000  0.4723360000000 1.0
C      1  0.5682720000000  0.5102810000000  0.5276660000000 1.0
C      1  0.4317270000000  0.5102750000000  0.4723340000000 1.0
END
