TITL C-122799-4742-5 -0.0640133609795843 125000 -238.032677036241 0 0 37 (C2h) n - 1
REM
REM in /rds/project/t2_vol4/rds-t2-cs072/BORA/CARBON/from-Arr/AIRSS/Generating-Clusters/GAP-ML-2020/Higher-Symm/SD-CG/HFTN-CG
REM
REM
REM
REM
REM
REM ./C.cell (b20cbc046b6831c77cfcea5457e17084)
REM AIRSS Version 0.9.1 bugfix July 2018 build 013d7b7c2542+ Fri, 06 Jul 2018 19:26:36 +0100
REM compiler GCC version 9.3.0
REM options -cpp -mtune=generic -march=x86-64 -g -O0
REM seed -955866759 523163240 -245355713 1948061498 -853833168 1045632641 -1180053332 271579422 -1184324504 -1356226956 1539376558 -895124016 -1043236043 -1109378078 -1333226829 -606199207 1541644931 1776690556 1815244041 -1600673873 2110160639 -462659771 1883432556 1946490878 -1372373138 880607763 -985278230 1777665544 722957865 -1966578911 1151212961 -1476055471 -532705181
REM
CELL 1.54180   50.00000   50.00000   50.00000   90.00000   90.00000   90.00000
LATT -1
SFAC C  
C      1  0.4927910000000  0.4872000000000  0.4563570000000 1.0
C      1  0.5057410000000  0.5123010000000  0.4563580000000 1.0
C      1  0.4927880000000  0.4871970000000  0.5444680000000 1.0
C      1  0.5057390000000  0.5122980000000  0.5444690000000 1.0
C      1  0.4762920000000  0.4931420000000  0.5223960000000 1.0
C      1  0.5222370000000  0.5063550000000  0.5223980000000 1.0
C      1  0.4762930000000  0.4931430000000  0.4784290000000 1.0
C      1  0.5222380000000  0.5063560000000  0.4784310000000 1.0
C      1  0.4919140000000  0.5347420000000  0.4705430000000 1.0
C      1  0.5066170000000  0.4647580000000  0.4705410000000 1.0
C      1  0.4919130000000  0.5347400000000  0.5302850000000 1.0
C      1  0.5066150000000  0.4647560000000  0.5302830000000 1.0
C      1  0.5610020000000  0.5281880000000  0.5320520000000 1.0
C      1  0.4375260000000  0.4713080000000  0.5320460000000 1.0
C      1  0.5610040000000  0.5281900000000  0.4687810000000 1.0
C      1  0.4375280000000  0.4713100000000  0.4687750000000 1.0
C      1  0.4683710000000  0.5220620000000  0.4839560000000 1.0
C      1  0.5301600000000  0.4774370000000  0.4839560000000 1.0
C      1  0.4683700000000  0.5220610000000  0.5168700000000 1.0
C      1  0.5301590000000  0.4774360000000  0.5168710000000 1.0
C      1  0.4446460000000  0.5188220000000  0.5325420000000 1.0
C      1  0.5538810000000  0.4806740000000  0.5325440000000 1.0
C      1  0.4446480000000  0.5188240000000  0.4682830000000 1.0
C      1  0.5538830000000  0.4806770000000  0.4682850000000 1.0
C      1  0.4605750000000  0.4686990000000  0.5153630000000 1.0
C      1  0.5379540000000  0.5307990000000  0.5153670000000 1.0
C      1  0.4605760000000  0.4687000000000  0.4854590000000 1.0
C      1  0.5379550000000  0.5308000000000  0.4854640000000 1.0
C      1  0.5665980000000  0.5031410000000  0.4631240000000 1.0
C      1  0.4319330000000  0.4963600000000  0.4631200000000 1.0
C      1  0.5665960000000  0.5031380000000  0.5377070000000 1.0
C      1  0.4319310000000  0.4963570000000  0.5377020000000 1.0
C      1  0.4873790000000  0.4521260000000  0.4861910000000 1.0
C      1  0.5111520000000  0.5473730000000  0.4861950000000 1.0
C      1  0.4873780000000  0.4521250000000  0.5146310000000 1.0
C      1  0.5111510000000  0.5473720000000  0.5146350000000 1.0
C      1  0.4992650000000  0.4997490000000  0.5004130000000 1.0
END
