TITL C-122872-6595-6 0.042008854912152 125000 -420.845925670677 0 0 62 (D3) n - 1
REM
REM in /rds/project/t2_vol4/rds-t2-cs072/BORA/CARBON/from-Arr/AIRSS/Generating-Clusters/GAP-ML-2020/Higher-Symm/SD-CG/HFTN-CG
REM
REM
REM
REM
REM
REM ./C.cell (b20cbc046b6831c77cfcea5457e17084)
REM AIRSS Version 0.9.1 bugfix July 2018 build 013d7b7c2542+ Fri, 06 Jul 2018 19:26:36 +0100
REM compiler GCC version 9.3.0
REM options -cpp -mtune=generic -march=x86-64 -g -O0
REM seed 705860485 -332266681 -1535585883 -706147815 -2094121067 1634073953 1606099851 -1606932159 1601798946 -359974159 -2146075889 -852533772 -1281395423 1291093246 48281415 983620054 -326967219 1414178966 -835293357 -1303572660 -553312555 408222023 406047509 -1445730512 -1436202864 -1346670276 43709590 -791727932 -2090657083 1443569549 -1675576508 1860245087 1066643566
REM
CELL 1.54180   50.00000   50.00000   50.00000   90.00000   90.00000   90.00000
LATT -1
SFAC C  
C      1  0.5137910000000  0.5253460000000  0.5170540000000 1.0
C      1  0.5137920000000  0.4721150000000  0.5127220000000 1.0
C      1  0.5137930000000  0.5024820000000  0.4687880000000 1.0
C      1  0.4843570000000  0.4746190000000  0.5170580000000 1.0
C      1  0.4843570000000  0.5278490000000  0.5127160000000 1.0
C      1  0.4843580000000  0.4974740000000  0.4687880000000 1.0
C      1  0.5084310000000  0.5179930000000  0.4244570000000 1.0
C      1  0.5084270000000  0.5559830000000  0.5526530000000 1.0
C      1  0.5084290000000  0.4259670000000  0.5214550000000 1.0
C      1  0.4897230000000  0.4819560000000  0.4244600000000 1.0
C      1  0.4897200000000  0.4439880000000  0.5526620000000 1.0
C      1  0.4897190000000  0.5739980000000  0.5214410000000 1.0
C      1  0.5124890000000  0.4424820000000  0.4726500000000 1.0
C      1  0.5124880000000  0.5520020000000  0.4631620000000 1.0
C      1  0.5124860000000  0.5054590000000  0.5627530000000 1.0
C      1  0.4856610000000  0.5574750000000  0.4726400000000 1.0
C      1  0.4856630000000  0.4479540000000  0.4631700000000 1.0
C      1  0.4856600000000  0.4945140000000  0.5627530000000 1.0
C      1  0.5167410000000  0.4428790000000  0.5005720000000 1.0
C      1  0.5167410000000  0.5276230000000  0.4495450000000 1.0
C      1  0.5167390000000  0.5294420000000  0.5484480000000 1.0
C      1  0.4814080000000  0.5570830000000  0.5005610000000 1.0
C      1  0.4814110000000  0.4723300000000  0.4495490000000 1.0
C      1  0.4814080000000  0.4705290000000  0.5484530000000 1.0
C      1  0.4639070000000  0.5433960000000  0.4610470000000 1.0
C      1  0.4639050000000  0.5115920000000  0.5563560000000 1.0
C      1  0.4639080000000  0.4449540000000  0.4811580000000 1.0
C      1  0.5342440000000  0.4565590000000  0.4610560000000 1.0
C      1  0.5342410000000  0.4883800000000  0.5563600000000 1.0
C      1  0.5342420000000  0.5550050000000  0.4811510000000 1.0
C      1  0.5651910000000  0.4626190000000  0.5021590000000 1.0
C      1  0.5651920000000  0.5163800000000  0.4658480000000 1.0
C      1  0.5651900000000  0.5209450000000  0.5305620000000 1.0
C      1  0.4329580000000  0.5373430000000  0.5021490000000 1.0
C      1  0.4329600000000  0.4835750000000  0.4658480000000 1.0
C      1  0.4329580000000  0.4790220000000  0.5305620000000 1.0
C      1  0.4807520000000  0.5607830000000  0.5463050000000 1.0
C      1  0.4807550000000  0.4290620000000  0.5287850000000 1.0
C      1  0.4807560000000  0.5100960000000  0.4234720000000 1.0
C      1  0.5173950000000  0.4391870000000  0.5463170000000 1.0
C      1  0.5173930000000  0.5709040000000  0.5287740000000 1.0
C      1  0.5173970000000  0.4898520000000  0.4234740000000 1.0
C      1  0.4400450000000  0.5032570000000  0.5405930000000 1.0
C      1  0.4400470000000  0.4627710000000  0.4818210000000 1.0
C      1  0.4400460000000  0.5339120000000  0.4761450000000 1.0
C      1  0.5581020000000  0.4967120000000  0.5405970000000 1.0
C      1  0.5581030000000  0.5371880000000  0.4818180000000 1.0
C      1  0.5581050000000  0.4660460000000  0.4761540000000 1.0
C      1  0.5308150000000  0.5523500000000  0.5104540000000 1.0
C      1  0.5308150000000  0.4643290000000  0.5394090000000 1.0
C      1  0.5308170000000  0.4832650000000  0.4487030000000 1.0
C      1  0.4673340000000  0.4476130000000  0.5104620000000 1.0
C      1  0.4673320000000  0.5356400000000  0.5394010000000 1.0
C      1  0.4673350000000  0.5166880000000  0.4486980000000 1.0
C      1  0.5587260000000  0.4910700000000  0.4595390000000 1.0
C      1  0.5587240000000  0.5390640000000  0.5117970000000 1.0
C      1  0.5587250000000  0.4698100000000  0.5272320000000 1.0
C      1  0.4394250000000  0.5088850000000  0.4595340000000 1.0
C      1  0.4394250000000  0.4608990000000  0.5118010000000 1.0
C      1  0.4394230000000  0.5301560000000  0.5272240000000 1.0
C      1  0.5227820000000  0.4999810000000  0.4995220000000 1.0
C      1  0.4753670000000  0.4999810000000  0.4995210000000 1.0
END
