TITL C-127517-148-7 304.307935248565 125000 -822.123585483428 0 0 114 (C1) n - 1
REM
REM in /rds/project/t2_vol4/rds-t2-cs072/BORA/CARBON/from-Arr/AIRSS/Generating-Clusters/GAP-ML-2020/Higher-Symm/SD-CG/HFTN-CG
REM
REM
REM
REM
REM
REM ./C.cell (b20cbc046b6831c77cfcea5457e17084)
REM AIRSS Version 0.9.1 bugfix July 2018 build 013d7b7c2542+ Fri, 06 Jul 2018 19:26:36 +0100
REM compiler GCC version 9.3.0
REM options -cpp -mtune=generic -march=x86-64 -g -O0
REM seed 955118591 985984654 881545338 798427935 -388472517 227520232 1335313620 1854550407 1581502550 606182330 760324634 -2021523710 1671575639 -955715745 -1674224265 -929075916 581671521 -1729958350 -1399883666 2075439300 -2123857609 587410623 847009346 1053650907 2103860212 -912635836 1197472603 1391567344 248755263 -1973884773 -1401556646 149754663 673970086
REM
CELL 1.54180   50.00000   50.00000   50.00000   90.00000   90.00000   90.00000
LATT -1
SFAC C  
C      1  0.4724030000000  0.4157670000000  0.5280230000000 1.0
C      1  0.5215060000000  0.4148940000000  0.5223580000000 1.0
C      1  0.4999090000000  0.4153060000000  0.4607310000000 1.0
C      1  0.5828480000000  0.5359190000000  0.5215460000000 1.0
C      1  0.4794860000000  0.5391010000000  0.4163430000000 1.0
C      1  0.4416710000000  0.5421760000000  0.5633300000000 1.0
C      1  0.4326980000000  0.4854870000000  0.4126200000000 1.0
C      1  0.4753390000000  0.4915610000000  0.6028200000000 1.0
C      1  0.5931860000000  0.4821710000000  0.4750460000000 1.0
C      1  0.5322810000000  0.4684660000000  0.4237160000000 1.0
C      1  0.4241170000000  0.4692040000000  0.5189490000000 1.0
C      1  0.5478470000000  0.4657010000000  0.5644650000000 1.0
C      1  0.4994750000000  0.5918720000000  0.5146450000000 1.0
C      1  0.5170110000000  0.5912830000000  0.4937740000000 1.0
C      1  0.4900130000000  0.5917200000000  0.4889340000000 1.0
C      1  0.4735020000000  0.4280640000000  0.5532260000000 1.0
C      1  0.5440300000000  0.4237120000000  0.5061350000000 1.0
C      1  0.4799630000000  0.4248680000000  0.4423110000000 1.0
C      1  0.4955100000000  0.4098800000000  0.5124200000000 1.0
C      1  0.4875000000000  0.4149260000000  0.4858330000000 1.0
C      1  0.4637490000000  0.4331370000000  0.4852200000000 1.0
C      1  0.5563520000000  0.5659850000000  0.4657450000000 1.0
C      1  0.4447870000000  0.5643770000000  0.4706820000000 1.0
C      1  0.5049620000000  0.5655320000000  0.5629290000000 1.0
C      1  0.4772190000000  0.4645310000000  0.4149450000000 1.0
C      1  0.4496590000000  0.4679640000000  0.5707430000000 1.0
C      1  0.5776720000000  0.4607010000000  0.5160120000000 1.0
C      1  0.4448120000000  0.4777550000000  0.4703250000000 1.0
C      1  0.4964100000000  0.4818410000000  0.5511940000000 1.0
C      1  0.5448030000000  0.4759560000000  0.4683670000000 1.0
C      1  0.5781940000000  0.4861840000000  0.5296610000000 1.0
C      1  0.4886350000000  0.4900630000000  0.4106730000000 1.0
C      1  0.4363800000000  0.4924820000000  0.5617930000000 1.0
C      1  0.4369070000000  0.4455440000000  0.5284100000000 1.0
C      1  0.5465620000000  0.4417620000000  0.5496750000000 1.0
C      1  0.5205410000000  0.4441060000000  0.4320740000000 1.0
C      1  0.4416660000000  0.5521740000000  0.4450940000000 1.0
C      1  0.4842480000000  0.5584490000000  0.5813200000000 1.0
C      1  0.5815660000000  0.5558280000000  0.4755310000000 1.0
C      1  0.5831250000000  0.5578040000000  0.5028130000000 1.0
C      1  0.4623180000000  0.5591240000000  0.4282140000000 1.0
C      1  0.4597390000000  0.5632140000000  0.5701340000000 1.0
C      1  0.4925790000000  0.4425600000000  0.4242870000000 1.0
C      1  0.4504860000000  0.4457200000000  0.5540200000000 1.0
C      1  0.5599160000000  0.4400320000000  0.5242180000000 1.0
C      1  0.4995070000000  0.4617310000000  0.5751570000000 1.0
C      1  0.5621410000000  0.4514030000000  0.4728590000000 1.0
C      1  0.4435530000000  0.4560960000000  0.4475050000000 1.0
C      1  0.4935910000000  0.5094250000000  0.5512650000000 1.0
C      1  0.5499940000000  0.5030210000000  0.4792780000000 1.0
C      1  0.4537150000000  0.5073170000000  0.4650590000000 1.0
C      1  0.4950510000000  0.4773740000000  0.4704610000000 1.0
C      1  0.4736130000000  0.4799530000000  0.5100690000000 1.0
C      1  0.5193650000000  0.4775070000000  0.5105900000000 1.0
C      1  0.4968040000000  0.5198550000000  0.5254940000000 1.0
C      1  0.5260570000000  0.5174700000000  0.4868970000000 1.0
C      1  0.4775440000000  0.5190130000000  0.4807890000000 1.0
C      1  0.4223100000000  0.4782660000000  0.4912230000000 1.0
C      1  0.5256960000000  0.4751870000000  0.5799640000000 1.0
C      1  0.5531920000000  0.4794250000000  0.4397770000000 1.0
C      1  0.5154850000000  0.5272940000000  0.5885020000000 1.0
C      1  0.5701500000000  0.5284760000000  0.4421330000000 1.0
C      1  0.4202710000000  0.5243850000000  0.4729680000000 1.0
C      1  0.4958480000000  0.4704390000000  0.5248920000000 1.0
C      1  0.5183570000000  0.4684290000000  0.4827490000000 1.0
C      1  0.4701270000000  0.4670240000000  0.4841390000000 1.0
C      1  0.5287180000000  0.5426890000000  0.4264320000000 1.0
C      1  0.4249020000000  0.5426030000000  0.5152890000000 1.0
C      1  0.5498400000000  0.5388820000000  0.5592900000000 1.0
C      1  0.5225510000000  0.4264280000000  0.5488980000000 1.0
C      1  0.5258130000000  0.4263640000000  0.4551580000000 1.0
C      1  0.4518150000000  0.4274410000000  0.5120200000000 1.0
C      1  0.4489590000000  0.4647730000000  0.4213640000000 1.0
C      1  0.4736240000000  0.4697220000000  0.5876550000000 1.0
C      1  0.5838880000000  0.4602030000000  0.4878970000000 1.0
C      1  0.5227230000000  0.5062150000000  0.5139680000000 1.0
C      1  0.5012590000000  0.5058610000000  0.4692180000000 1.0
C      1  0.4743480000000  0.5083180000000  0.5083440000000 1.0
C      1  0.4883320000000  0.5339130000000  0.5941810000000 1.0
C      1  0.5861490000000  0.5300410000000  0.4653960000000 1.0
C      1  0.4358430000000  0.5238650000000  0.4471650000000 1.0
C      1  0.4452500000000  0.5166210000000  0.5744510000000 1.0
C      1  0.5853390000000  0.5092200000000  0.5137780000000 1.0
C      1  0.4711430000000  0.5127840000000  0.4133460000000 1.0
C      1  0.4277560000000  0.5482690000000  0.4871870000000 1.0
C      1  0.5258230000000  0.5480130000000  0.5710610000000 1.0
C      1  0.5516390000000  0.5504680000000  0.4419840000000 1.0
C      1  0.5376880000000  0.5696560000000  0.4902630000000 1.0
C      1  0.4757850000000  0.5713200000000  0.4728060000000 1.0
C      1  0.4920470000000  0.5708480000000  0.5345580000000 1.0
C      1  0.5573980000000  0.5062570000000  0.4306800000000 1.0
C      1  0.4127520000000  0.5047430000000  0.4921390000000 1.0
C      1  0.5306420000000  0.5035180000000  0.5838110000000 1.0
C      1  0.4389220000000  0.5544660000000  0.5364800000000 1.0
C      1  0.5621950000000  0.5503550000000  0.5369760000000 1.0
C      1  0.5027730000000  0.5536140000000  0.4270950000000 1.0
C      1  0.5182000000000  0.5462760000000  0.4910220000000 1.0
C      1  0.4873820000000  0.5474340000000  0.4872110000000 1.0
C      1  0.4987140000000  0.5475140000000  0.5156270000000 1.0
C      1  0.4844100000000  0.5699430000000  0.4430860000000 1.0
C      1  0.4620390000000  0.5711990000000  0.5424330000000 1.0
C      1  0.5584640000000  0.5676920000000  0.5137090000000 1.0
C      1  0.5525090000000  0.5110980000000  0.5671730000000 1.0
C      1  0.5332650000000  0.5148400000000  0.4188380000000 1.0
C      1  0.4158630000000  0.5148850000000  0.5183750000000 1.0
C      1  0.5823570000000  0.5070200000000  0.4836410000000 1.0
C      1  0.4432270000000  0.5085120000000  0.4218530000000 1.0
C      1  0.4665270000000  0.5156260000000  0.5944250000000 1.0
C      1  0.4994540000000  0.4345850000000  0.5636830000000 1.0
C      1  0.5462550000000  0.4283400000000  0.4769920000000 1.0
C      1  0.4561130000000  0.4326150000000  0.4557280000000 1.0
C      1  0.5637260000000  0.4875450000000  0.5545680000000 1.0
C      1  0.5170850000000  0.4911290000000  0.4134310000000 1.0
C      1  0.4225440000000  0.4922890000000  0.5362450000000 1.0
END
