TITL C-126805-9300-3 -125.642730275846 125000 -439.679342190706 0 0 65 (C1) n - 1
REM
REM in /rds/project/t2_vol4/rds-t2-cs072/BORA/CARBON/from-Arr/AIRSS/Generating-Clusters/GAP-ML-2020/Higher-Symm/SD-CG/HFTN-CG
REM
REM
REM
REM
REM
REM ./C.cell (b20cbc046b6831c77cfcea5457e17084)
REM AIRSS Version 0.9.1 bugfix July 2018 build 013d7b7c2542+ Fri, 06 Jul 2018 19:26:36 +0100
REM compiler GCC version 9.3.0
REM options -cpp -mtune=generic -march=x86-64 -g -O0
REM seed -1387781375 -1907176840 -2089019199 1319449046 57900261 764621702 454235504 -933331474 1196716466 812970798 -505497806 1402441424 -187007851 621301507 1488366626 575246628 452999207 1696799932 -209158995 356676815 -1214718959 2131958350 1622829332 1581586633 -1987932103 812379174 -886752339 189805077 -80359200 1026963166 164353091 -573945805 -1527676794
REM
CELL 1.54180   50.00000   50.00000   50.00000   90.00000   90.00000   90.00000
LATT -1
SFAC C  
C      1  0.5470460000000  0.4799320000000  0.4750330000000 1.0
C      1  0.5550900000000  0.4578430000000  0.4910440000000 1.0
C      1  0.5547460000000  0.4618180000000  0.5186180000000 1.0
C      1  0.5561690000000  0.4835280000000  0.5374370000000 1.0
C      1  0.5586870000000  0.5117130000000  0.5388870000000 1.0
C      1  0.5592230000000  0.5375700000000  0.5227690000000 1.0
C      1  0.5543970000000  0.5461770000000  0.4960490000000 1.0
C      1  0.5559990000000  0.5306770000000  0.4714760000000 1.0
C      1  0.5526200000000  0.5040940000000  0.4619660000000 1.0
C      1  0.4298390000000  0.4686180000000  0.4870110000000 1.0
C      1  0.4171990000000  0.4935780000000  0.4936940000000 1.0
C      1  0.4190430000000  0.5054530000000  0.5185780000000 1.0
C      1  0.4363270000000  0.5239590000000  0.5221220000000 1.0
C      1  0.4543370000000  0.5430990000000  0.5142120000000 1.0
C      1  0.4582960000000  0.5468730000000  0.4857620000000 1.0
C      1  0.4629680000000  0.5256040000000  0.4650220000000 1.0
C      1  0.4423130000000  0.5053250000000  0.4605670000000 1.0
C      1  0.4484540000000  0.4743020000000  0.4670150000000 1.0
C      1  0.4887500000000  0.5116440000000  0.4747560000000 1.0
C      1  0.5063400000000  0.4959420000000  0.4562490000000 1.0
C      1  0.5185530000000  0.4731880000000  0.4707990000000 1.0
C      1  0.4980170000000  0.4665850000000  0.4946720000000 1.0
C      1  0.5050310000000  0.4610460000000  0.5238630000000 1.0
C      1  0.5068520000000  0.4853750000000  0.5396080000000 1.0
C      1  0.5004090000000  0.5053110000000  0.5193030000000 1.0
C      1  0.5119370000000  0.5285540000000  0.5123760000000 1.0
C      1  0.5059570000000  0.5323920000000  0.4859730000000 1.0
C      1  0.5168420000000  0.5751470000000  0.5127180000000 1.0
C      1  0.5189090000000  0.5564160000000  0.4684040000000 1.0
C      1  0.5068100000000  0.5086290000000  0.4191460000000 1.0
C      1  0.5085670000000  0.4399520000000  0.4362860000000 1.0
C      1  0.5212220000000  0.4206480000000  0.4973490000000 1.0
C      1  0.5230690000000  0.4213460000000  0.5257330000000 1.0
C      1  0.5193360000000  0.4605950000000  0.5757490000000 1.0
C      1  0.5202140000000  0.5208280000000  0.5739550000000 1.0
C      1  0.5202590000000  0.5659740000000  0.5395770000000 1.0
C      1  0.4693600000000  0.4560090000000  0.4600820000000 1.0
C      1  0.4905630000000  0.4214840000000  0.4978430000000 1.0
C      1  0.4874460000000  0.4435830000000  0.5415140000000 1.0
C      1  0.4894490000000  0.4833750000000  0.5639220000000 1.0
C      1  0.4956370000000  0.5343380000000  0.5683420000000 1.0
C      1  0.4754920000000  0.5590530000000  0.5277080000000 1.0
C      1  0.4772040000000  0.5676850000000  0.4822740000000 1.0
C      1  0.4806120000000  0.5412490000000  0.4446210000000 1.0
C      1  0.4945720000000  0.4853420000000  0.4309500000000 1.0
C      1  0.4888890000000  0.5737960000000  0.5072180000000 1.0
C      1  0.4925880000000  0.5629370000000  0.4592960000000 1.0
C      1  0.4900870000000  0.5309430000000  0.4218870000000 1.0
C      1  0.4864710000000  0.4583530000000  0.4352620000000 1.0
C      1  0.4809290000000  0.4441550000000  0.4839430000000 1.0
C      1  0.4926540000000  0.4207260000000  0.5275780000000 1.0
C      1  0.4933430000000  0.4548270000000  0.5673780000000 1.0
C      1  0.4926050000000  0.5077710000000  0.5766970000000 1.0
C      1  0.4942030000000  0.5553580000000  0.5493990000000 1.0
C      1  0.5373600000000  0.4355190000000  0.4809770000000 1.0
C      1  0.5328060000000  0.4476920000000  0.5322240000000 1.0
C      1  0.5331620000000  0.4711980000000  0.5536730000000 1.0
C      1  0.5425490000000  0.5261870000000  0.5593310000000 1.0
C      1  0.5433560000000  0.5506870000000  0.5437150000000 1.0
C      1  0.5335220000000  0.5664710000000  0.4920340000000 1.0
C      1  0.5357480000000  0.5399950000000  0.4524140000000 1.0
C      1  0.5284300000000  0.5132610000000  0.4435710000000 1.0
C      1  0.5233220000000  0.4459520000000  0.4575390000000 1.0
C      1  0.4159620000000  0.5098970000000  0.4695470000000 1.0
C      1  0.4870920000000  0.4930710000000  0.4983080000000 1.0
END
