TITL C-121817-5042-6 -64.0379123424973 125000 -626.269068532933 0 0 89 (C1) n - 1
REM
REM in /rds/project/t2_vol4/rds-t2-cs072/BORA/CARBON/from-Arr/AIRSS/Generating-Clusters/GAP-ML-2020/Higher-Symm/SD-CG/HFTN-CG
REM
REM
REM
REM
REM
REM ./C.cell (b20cbc046b6831c77cfcea5457e17084)
REM AIRSS Version 0.9.1 bugfix July 2018 build 013d7b7c2542+ Fri, 06 Jul 2018 19:26:36 +0100
REM compiler GCC version 9.3.0
REM options -cpp -mtune=generic -march=x86-64 -g -O0
REM seed -422257044 1030114080 -358729050 16118974 353037759 -306267095 45424817 -911328331 -511716151 -270571913 -1169489024 1088563730 1250213873 -1587474027 578318491 -470948916 570836764 1292697759 -892110579 -2012965527 1459875730 -1049335236 -1012638679 -799221436 -549087542 817981399 -1561886956 1578238510 1606598457 1841577908 1259010715 1858184549 -1536843407
REM
CELL 1.54180   50.00000   50.00000   50.00000   90.00000   90.00000   90.00000
LATT -1
SFAC C  
C      1  0.5600460000000  0.5602860000000  0.5072900000000 1.0
C      1  0.4714050000000  0.5661700000000  0.5396590000000 1.0
C      1  0.4802020000000  0.5590030000000  0.4570130000000 1.0
C      1  0.4750140000000  0.4579220000000  0.5359150000000 1.0
C      1  0.4748890000000  0.4437660000000  0.4507040000000 1.0
C      1  0.5465030000000  0.4463090000000  0.5079940000000 1.0
C      1  0.4180250000000  0.4827090000000  0.4944750000000 1.0
C      1  0.5446690000000  0.4784660000000  0.4342370000000 1.0
C      1  0.5285450000000  0.4686420000000  0.5519820000000 1.0
C      1  0.4639930000000  0.5239050000000  0.4949190000000 1.0
C      1  0.5204660000000  0.5207020000000  0.4754630000000 1.0
C      1  0.5142770000000  0.5172560000000  0.5326790000000 1.0
C      1  0.5465820000000  0.5741610000000  0.4881230000000 1.0
C      1  0.5154800000000  0.5455830000000  0.5208620000000 1.0
C      1  0.4795870000000  0.5484910000000  0.4849990000000 1.0
C      1  0.5123990000000  0.4326400000000  0.5543450000000 1.0
C      1  0.4448730000000  0.4423940000000  0.4855910000000 1.0
C      1  0.5362470000000  0.4396930000000  0.4627230000000 1.0
C      1  0.4980750000000  0.4994580000000  0.4742570000000 1.0
C      1  0.5241090000000  0.4946000000000  0.5119730000000 1.0
C      1  0.4706010000000  0.5063770000000  0.5183340000000 1.0
C      1  0.4959410000000  0.5320860000000  0.4254440000000 1.0
C      1  0.5721760000000  0.5245500000000  0.5361220000000 1.0
C      1  0.4375320000000  0.5357320000000  0.5419330000000 1.0
C      1  0.5055420000000  0.4246540000000  0.5272350000000 1.0
C      1  0.4689790000000  0.4295060000000  0.4944570000000 1.0
C      1  0.5153380000000  0.4276020000000  0.4783370000000 1.0
C      1  0.4493220000000  0.4522260000000  0.4591350000000 1.0
C      1  0.5560730000000  0.4491640000000  0.4803870000000 1.0
C      1  0.4968850000000  0.4593350000000  0.5585540000000 1.0
C      1  0.4977080000000  0.5693830000000  0.5277270000000 1.0
C      1  0.4726850000000  0.5752630000000  0.4962350000000 1.0
C      1  0.5186920000000  0.5726880000000  0.4822430000000 1.0
C      1  0.5389890000000  0.4408460000000  0.5588150000000 1.0
C      1  0.4255980000000  0.4553970000000  0.5022500000000 1.0
C      1  0.5335340000000  0.4516000000000  0.4365220000000 1.0
C      1  0.5737030000000  0.4703750000000  0.4739930000000 1.0
C      1  0.4863300000000  0.4781380000000  0.5797840000000 1.0
C      1  0.4377920000000  0.4761180000000  0.4488600000000 1.0
C      1  0.5797740000000  0.4773960000000  0.5230310000000 1.0
C      1  0.4417520000000  0.4892490000000  0.5570820000000 1.0
C      1  0.4796080000000  0.4849990000000  0.4226140000000 1.0
C      1  0.4322240000000  0.5278070000000  0.4955460000000 1.0
C      1  0.5363190000000  0.5234880000000  0.4476680000000 1.0
C      1  0.5309910000000  0.5178510000000  0.5592440000000 1.0
C      1  0.5183920000000  0.5459550000000  0.4381490000000 1.0
C      1  0.5513830000000  0.5381980000000  0.5495800000000 1.0
C      1  0.4345620000000  0.5495400000000  0.5164830000000 1.0
C      1  0.4538430000000  0.5193750000000  0.4470480000000 1.0
C      1  0.5696760000000  0.5137080000000  0.4891810000000 1.0
C      1  0.4784460000000  0.5220660000000  0.5660030000000 1.0
C      1  0.4874860000000  0.5121450000000  0.5395730000000 1.0
C      1  0.4723490000000  0.5096680000000  0.4719660000000 1.0
C      1  0.5396880000000  0.5084710000000  0.4926860000000 1.0
C      1  0.5240520000000  0.4267520000000  0.5057200000000 1.0
C      1  0.4793550000000  0.4323060000000  0.5205670000000 1.0
C      1  0.4874720000000  0.4289430000000  0.4723340000000 1.0
C      1  0.5661740000000  0.4866600000000  0.4512940000000 1.0
C      1  0.5041540000000  0.4957300000000  0.5940820000000 1.0
C      1  0.4230690000000  0.4919220000000  0.4677710000000 1.0
C      1  0.4537000000000  0.5704170000000  0.5168130000000 1.0
C      1  0.5074150000000  0.5667880000000  0.4542240000000 1.0
C      1  0.5421310000000  0.5562360000000  0.5296660000000 1.0
C      1  0.4879380000000  0.4578500000000  0.4290810000000 1.0
C      1  0.5692440000000  0.4508550000000  0.5275830000000 1.0
C      1  0.4457830000000  0.4634560000000  0.5449750000000 1.0
C      1  0.5011530000000  0.5043810000000  0.4207910000000 1.0
C      1  0.5695790000000  0.4967100000000  0.5419840000000 1.0
C      1  0.4283260000000  0.5087300000000  0.5400270000000 1.0
C      1  0.4277830000000  0.4516080000000  0.5292150000000 1.0
C      1  0.5116600000000  0.4462820000000  0.4208340000000 1.0
C      1  0.5647890000000  0.4381950000000  0.5518250000000 1.0
C      1  0.5311590000000  0.4695070000000  0.5227820000000 1.0
C      1  0.4774430000000  0.4795530000000  0.5124730000000 1.0
C      1  0.5008880000000  0.4815700000000  0.4964220000000 1.0
C      1  0.4214680000000  0.5050730000000  0.5117090000000 1.0
C      1  0.5282030000000  0.5009590000000  0.4295380000000 1.0
C      1  0.5464440000000  0.4924550000000  0.5583410000000 1.0
C      1  0.4545510000000  0.4933300000000  0.4329680000000 1.0
C      1  0.5808240000000  0.4868660000000  0.4962590000000 1.0
C      1  0.4638880000000  0.4966990000000  0.5728160000000 1.0
C      1  0.4712510000000  0.5405110000000  0.4372160000000 1.0
C      1  0.5752760000000  0.5351600000000  0.5088910000000 1.0
C      1  0.4612630000000  0.5444060000000  0.5560880000000 1.0
C      1  0.4299810000000  0.5194380000000  0.4663630000000 1.0
C      1  0.5638100000000  0.5135430000000  0.4588280000000 1.0
C      1  0.5074510000000  0.5177370000000  0.5789510000000 1.0
C      1  0.4979860000000  0.5845620000000  0.5027860000000 1.0
C      1  0.5093910000000  0.5440870000000  0.4911560000000 1.0
END
