TITL C-126553-4257-6 0.130564322946293 125000 -337.490276897091 0 0 48 (C3h) n - 1
REM
REM in /rds/project/t2_vol4/rds-t2-cs072/BORA/CARBON/from-Arr/AIRSS/Generating-Clusters/GAP-ML-2020/Higher-Symm/SD-CG/HFTN-CG
REM
REM
REM
REM
REM
REM ./C.cell (b20cbc046b6831c77cfcea5457e17084)
REM AIRSS Version 0.9.1 bugfix July 2018 build 013d7b7c2542+ Fri, 06 Jul 2018 19:26:36 +0100
REM compiler GCC version 9.3.0
REM options -cpp -mtune=generic -march=x86-64 -g -O0
REM seed -1392074345 2020108833 -976860594 -1675813089 -595802470 1367087916 152552099 867917645 -1781042030 -550518970 1102363518 -1439539359 1980125235 -1825256815 -1954945170 1817553572 298193678 -1026203537 -936937031 292878360 -93296579 309696094 -945537656 -521578305 824892588 1008610090 -2066320563 73306911 -871078644 1132700642 -1108276145 312825431 -1443975995
REM
CELL 1.54180   50.00000   50.00000   50.00000   90.00000   90.00000   90.00000
LATT -1
SFAC C  
C      1  0.4485550000000  0.5290520000000  0.4670830000000 1.0
C      1  0.4972260000000  0.5290630000000  0.5610060000000 1.0
C      1  0.5542310000000  0.5290390000000  0.4718940000000 1.0
C      1  0.4485470000000  0.4709490000000  0.4670940000000 1.0
C      1  0.4972180000000  0.4709610000000  0.5610170000000 1.0
C      1  0.5542230000000  0.4709360000000  0.4719050000000 1.0
C      1  0.5257300000000  0.5502040000000  0.5124250000000 1.0
C      1  0.4979130000000  0.5502000000000  0.4714960000000 1.0
C      1  0.4763760000000  0.5502110000000  0.5160510000000 1.0
C      1  0.5257170000000  0.4497940000000  0.5124440000000 1.0
C      1  0.4979000000000  0.4497900000000  0.4715150000000 1.0
C      1  0.4763630000000  0.4498010000000  0.5160700000000 1.0
C      1  0.5445440000000  0.5290980000000  0.5194160000000 1.0
C      1  0.4945530000000  0.5290920000000  0.4517110000000 1.0
C      1  0.4609150000000  0.5291110000000  0.5288570000000 1.0
C      1  0.5445360000000  0.4708970000000  0.5194270000000 1.0
C      1  0.4945450000000  0.4708910000000  0.4517220000000 1.0
C      1  0.4609070000000  0.4709100000000  0.5288680000000 1.0
C      1  0.5015130000000  0.4440450000000  0.5557420000000 1.0
C      1  0.5474970000000  0.4440230000000  0.4708290000000 1.0
C      1  0.4509680000000  0.4440360000000  0.4734610000000 1.0
C      1  0.5015270000000  0.5559760000000  0.5557210000000 1.0
C      1  0.5475120000000  0.5559530000000  0.4708070000000 1.0
C      1  0.4509830000000  0.5559670000000  0.4734400000000 1.0
C      1  0.5210580000000  0.5144230000000  0.5633880000000 1.0
C      1  0.5443720000000  0.5143990000000  0.4500660000000 1.0
C      1  0.4345750000000  0.5144200000000  0.4865370000000 1.0
C      1  0.5210540000000  0.4855950000000  0.5633940000000 1.0
C      1  0.5443680000000  0.4855710000000  0.4500720000000 1.0
C      1  0.4345720000000  0.4855920000000  0.4865430000000 1.0
C      1  0.4695650000000  0.5144690000000  0.4526170000000 1.0
C      1  0.4741880000000  0.5144860000000  0.5500470000000 1.0
C      1  0.5562530000000  0.5144660000000  0.4973280000000 1.0
C      1  0.4695610000000  0.4855220000000  0.4526220000000 1.0
C      1  0.4741840000000  0.4855390000000  0.5500520000000 1.0
C      1  0.5562490000000  0.4855190000000  0.4973340000000 1.0
C      1  0.4745150000000  0.4448870000000  0.4877290000000 1.0
C      1  0.5020950000000  0.4448910000000  0.5282150000000 1.0
C      1  0.5233680000000  0.4448800000000  0.4840870000000 1.0
C      1  0.4745300000000  0.5551150000000  0.4877080000000 1.0
C      1  0.5021100000000  0.5551190000000  0.5281950000000 1.0
C      1  0.5233820000000  0.5551080000000  0.4840660000000 1.0
C      1  0.5163790000000  0.4852340000000  0.4418270000000 1.0
C      1  0.4414260000000  0.4852580000000  0.5149040000000 1.0
C      1  0.5421890000000  0.4852500000000  0.5432770000000 1.0
C      1  0.5163830000000  0.5147390000000  0.4418220000000 1.0
C      1  0.4414300000000  0.5147630000000  0.5148980000000 1.0
C      1  0.5421930000000  0.5147550000000  0.5432720000000 1.0
END
