TITL C-127721-1858-2 -52.1547917636623 125000 -290.766854623384 0 0 45 (C5) n - 1
REM
REM in /rds/project/t2_vol4/rds-t2-cs072/BORA/CARBON/from-Arr/AIRSS/Generating-Clusters/GAP-ML-2020/Higher-Symm/SD-CG/HFTN-CG
REM
REM
REM
REM
REM
REM ./C.cell (b20cbc046b6831c77cfcea5457e17084)
REM AIRSS Version 0.9.1 bugfix July 2018 build 013d7b7c2542+ Fri, 06 Jul 2018 19:26:36 +0100
REM compiler GCC version 9.3.0
REM options -cpp -mtune=generic -march=x86-64 -g -O0
REM seed 544132095 -874560123 499755028 1775922604 1237602876 -1995440032 -349712493 -913511588 346955274 1510516651 -331869554 1413066912 -1429677482 1349572254 1226093454 -2145174158 1126321612 1186019587 1999521212 -576230634 128708763 1630407218 -1670444138 -1059971590 1840674319 348071860 916475275 -433832792 317472777 1066631190 2006121488 -446123512 1875189912
REM
CELL 1.54180   50.00000   50.00000   50.00000   90.00000   90.00000   90.00000
LATT -1
SFAC C  
C      1  0.5235940000000  0.5100760000000  0.4533780000000 1.0
C      1  0.4977020000000  0.5255460000000  0.4533740000000 1.0
C      1  0.4749880000000  0.5057010000000  0.4533760000000 1.0
C      1  0.4868420000000  0.4779670000000  0.4533820000000 1.0
C      1  0.5168820000000  0.4806700000000  0.4533820000000 1.0
C      1  0.4809880000000  0.5600910000000  0.4969630000000 1.0
C      1  0.4369750000000  0.5004870000000  0.4969710000000 1.0
C      1  0.4800610000000  0.4402100000000  0.4969840000000 1.0
C      1  0.5507020000000  0.4625600000000  0.4969830000000 1.0
C      1  0.5512750000000  0.5366500000000  0.4969700000000 1.0
C      1  0.4598790000000  0.5256610000000  0.4705750000000 1.0
C      1  0.4631930000000  0.4697680000000  0.4705850000000 1.0
C      1  0.5173750000000  0.4556480000000  0.4705890000000 1.0
C      1  0.5475460000000  0.5028140000000  0.4705820000000 1.0
C      1  0.5120120000000  0.5460840000000  0.4705740000000 1.0
C      1  0.4540370000000  0.4860650000000  0.5419370000000 1.0
C      1  0.4990560000000  0.4519870000000  0.5419440000000 1.0
C      1  0.5453770000000  0.4842720000000  0.5419410000000 1.0
C      1  0.5289860000000  0.5383020000000  0.5419310000000 1.0
C      1  0.4725360000000  0.5394100000000  0.5419280000000 1.0
C      1  0.5088370000000  0.5526070000000  0.5000260000000 1.0
C      1  0.4526980000000  0.5246610000000  0.5000290000000 1.0
C      1  0.4619290000000  0.4626340000000  0.5000400000000 1.0
C      1  0.5237730000000  0.4522460000000  0.5000440000000 1.0
C      1  0.5527630000000  0.5078520000000  0.5000360000000 1.0
C      1  0.5018220000000  0.4377340000000  0.5146410000000 1.0
C      1  0.5597830000000  0.4824940000000  0.5146360000000 1.0
C      1  0.5351260000000  0.5514500000000  0.5146230000000 1.0
C      1  0.4619250000000  0.5493070000000  0.5146200000000 1.0
C      1  0.4413420000000  0.4790280000000  0.5146320000000 1.0
C      1  0.5124000000000  0.4795430000000  0.5114650000000 1.0
C      1  0.5232890000000  0.5054730000000  0.5114610000000 1.0
C      1  0.5019930000000  0.5238420000000  0.5114570000000 1.0
C      1  0.4779420000000  0.5092650000000  0.5114590000000 1.0
C      1  0.4843740000000  0.4818870000000  0.5114640000000 1.0
C      1  0.4760690000000  0.4679900000000  0.5419960000000 1.0
C      1  0.5230540000000  0.4673560000000  0.5419980000000 1.0
C      1  0.5381770000000  0.5118450000000  0.5419910000000 1.0
C      1  0.5005380000000  0.5399750000000  0.5419840000000 1.0
C      1  0.4621540000000  0.5128710000000  0.5419870000000 1.0
C      1  0.4813920000000  0.5454660000000  0.4690040000000 1.0
C      1  0.4510050000000  0.4963470000000  0.4690120000000 1.0
C      1  0.4883300000000  0.4522690000000  0.4690210000000 1.0
C      1  0.5417840000000  0.4741460000000  0.4690190000000 1.0
C      1  0.5374960000000  0.5317450000000  0.4690090000000 1.0
END
