TITL C-125345-9874-7 -119.208967018303 125000 -908.905376497798 0 0 133 (C1) n - 1
REM
REM in /rds/project/t2_vol4/rds-t2-cs072/BORA/CARBON/from-Arr/AIRSS/Generating-Clusters/GAP-ML-2020/Higher-Symm/SD-CG/HFTN-CG
REM
REM
REM
REM
REM
REM ./C.cell (b20cbc046b6831c77cfcea5457e17084)
REM AIRSS Version 0.9.1 bugfix July 2018 build 013d7b7c2542+ Fri, 06 Jul 2018 19:26:36 +0100
REM compiler GCC version 9.3.0
REM options -cpp -mtune=generic -march=x86-64 -g -O0
REM seed 1997463756 -1124653653 -1267241133 -915330492 -600810260 -1918177980 -526504529 38421609 -567354073 27615198 -1619608580 970345955 759277164 643823422 519805423 1578375188 -767784758 1413049321 -607427306 -22162260 1355432259 -882145256 583291697 -1280917546 -2123512508 -1862899177 319538238 1865300988 -784003810 -1991655186 -1099477696 714246342 -685538662
REM
CELL 1.54180   50.00000   50.00000   50.00000   90.00000   90.00000   90.00000
LATT -1
SFAC C  
C      1  0.5499630000000  0.4762000000000  0.4723770000000 1.0
C      1  0.5240730000000  0.4771240000000  0.5468550000000 1.0
C      1  0.4506390000000  0.4764820000000  0.5280850000000 1.0
C      1  0.4743230000000  0.4762330000000  0.4539990000000 1.0
C      1  0.4577530000000  0.5199910000000  0.4721390000000 1.0
C      1  0.4644080000000  0.5224880000000  0.5497440000000 1.0
C      1  0.5417180000000  0.5203800000000  0.5272360000000 1.0
C      1  0.5306100000000  0.5210030000000  0.4535890000000 1.0
C      1  0.5013620000000  0.4741770000000  0.4029520000000 1.0
C      1  0.5980630000000  0.4740450000000  0.5007080000000 1.0
C      1  0.4989230000000  0.4752430000000  0.5967630000000 1.0
C      1  0.4014380000000  0.4751040000000  0.4999450000000 1.0
C      1  0.5010060000000  0.5287400000000  0.4049880000000 1.0
C      1  0.4053520000000  0.5297730000000  0.5012330000000 1.0
C      1  0.5022620000000  0.5293740000000  0.5975040000000 1.0
C      1  0.5977130000000  0.5290680000000  0.4992350000000 1.0
C      1  0.5553530000000  0.4570480000000  0.4201330000000 1.0
C      1  0.5794670000000  0.4579140000000  0.5553530000000 1.0
C      1  0.4431000000000  0.4562010000000  0.5817350000000 1.0
C      1  0.4202340000000  0.4585180000000  0.4454880000000 1.0
C      1  0.4402390000000  0.5314220000000  0.4499380000000 1.0
C      1  0.4323830000000  0.5242580000000  0.5496010000000 1.0
C      1  0.5602190000000  0.5310780000000  0.5492480000000 1.0
C      1  0.5529840000000  0.5317890000000  0.4370970000000 1.0
C      1  0.4824780000000  0.4027540000000  0.5117620000000 1.0
C      1  0.4888950000000  0.4025310000000  0.4834620000000 1.0
C      1  0.5171650000000  0.4026980000000  0.4898550000000 1.0
C      1  0.5107100000000  0.4026700000000  0.5181590000000 1.0
C      1  0.5167710000000  0.5957380000000  0.5118110000000 1.0
C      1  0.5112080000000  0.5961370000000  0.4835280000000 1.0
C      1  0.4829560000000  0.5963100000000  0.4896520000000 1.0
C      1  0.4884390000000  0.5961480000000  0.5180790000000 1.0
C      1  0.4350780000000  0.4385730000000  0.4558210000000 1.0
C      1  0.5451340000000  0.4373590000000  0.4355090000000 1.0
C      1  0.5644970000000  0.4379330000000  0.5452970000000 1.0
C      1  0.4542890000000  0.4370950000000  0.5660340000000 1.0
C      1  0.5632060000000  0.5563980000000  0.4550280000000 1.0
C      1  0.4570150000000  0.5555990000000  0.4381900000000 1.0
C      1  0.4338700000000  0.5550540000000  0.5439700000000 1.0
C      1  0.5449190000000  0.5558860000000  0.5616730000000 1.0
C      1  0.4514970000000  0.5011740000000  0.4124200000000 1.0
C      1  0.5905980000000  0.4992680000000  0.4496530000000 1.0
C      1  0.5495690000000  0.5009250000000  0.5878670000000 1.0
C      1  0.4007300000000  0.4886100000000  0.5536420000000 1.0
C      1  0.5540340000000  0.4835520000000  0.4144110000000 1.0
C      1  0.4152210000000  0.4850580000000  0.4477360000000 1.0
C      1  0.4437700000000  0.4834760000000  0.5840260000000 1.0
C      1  0.5847890000000  0.4843760000000  0.5525260000000 1.0
C      1  0.3955990000000  0.5162900000000  0.4797940000000 1.0
C      1  0.5226600000000  0.5153240000000  0.3953740000000 1.0
C      1  0.6054000000000  0.5154100000000  0.5216170000000 1.0
C      1  0.4815160000000  0.5145490000000  0.6068790000000 1.0
C      1  0.6009230000000  0.4882540000000  0.4740630000000 1.0
C      1  0.4753780000000  0.4891620000000  0.4021940000000 1.0
C      1  0.4001740000000  0.4904060000000  0.5261250000000 1.0
C      1  0.5252720000000  0.4890180000000  0.5982470000000 1.0
C      1  0.4701550000000  0.5705960000000  0.4809790000000 1.0
C      1  0.5202330000000  0.5703350000000  0.4703940000000 1.0
C      1  0.5300610000000  0.5698050000000  0.5194250000000 1.0
C      1  0.4793570000000  0.5705740000000  0.5307760000000 1.0
C      1  0.5301890000000  0.4285200000000  0.4812520000000 1.0
C      1  0.4803610000000  0.4283640000000  0.4705720000000 1.0
C      1  0.4693060000000  0.4288990000000  0.5201480000000 1.0
C      1  0.5190070000000  0.4286790000000  0.5308660000000 1.0
C      1  0.4348910000000  0.5609370000000  0.5158780000000 1.0
C      1  0.4854240000000  0.5586180000000  0.4375660000000 1.0
C      1  0.5647380000000  0.5599590000000  0.4835840000000 1.0
C      1  0.5168070000000  0.5597190000000  0.5632510000000 1.0
C      1  0.5644910000000  0.4388040000000  0.5167290000000 1.0
C      1  0.5164800000000  0.4380000000000  0.4357420000000 1.0
C      1  0.4346970000000  0.4391730000000  0.4844780000000 1.0
C      1  0.4827960000000  0.4382860000000  0.5659490000000 1.0
C      1  0.5098000000000  0.5036510000000  0.5527270000000 1.0
C      1  0.4462870000000  0.5017900000000  0.5130330000000 1.0
C      1  0.4880290000000  0.5029060000000  0.4503220000000 1.0
C      1  0.5554100000000  0.5024110000000  0.4866050000000 1.0
C      1  0.4810160000000  0.4978650000000  0.5571990000000 1.0
C      1  0.5485490000000  0.4962070000000  0.5137720000000 1.0
C      1  0.5158100000000  0.4964670000000  0.4499260000000 1.0
C      1  0.4506650000000  0.4957150000000  0.4858470000000 1.0
C      1  0.4460160000000  0.4313880000000  0.5388000000000 1.0
C      1  0.4618520000000  0.4317990000000  0.4475770000000 1.0
C      1  0.5534780000000  0.4310660000000  0.4623610000000 1.0
C      1  0.5375410000000  0.4319390000000  0.5537890000000 1.0
C      1  0.5529840000000  0.5709690000000  0.5387000000000 1.0
C      1  0.5400450000000  0.5710380000000  0.4474170000000 1.0
C      1  0.4481300000000  0.5711630000000  0.4606520000000 1.0
C      1  0.4587200000000  0.5664640000000  0.5527990000000 1.0
C      1  0.4863690000000  0.5246040000000  0.4753380000000 1.0
C      1  0.5351350000000  0.5245280000000  0.4810220000000 1.0
C      1  0.5122450000000  0.5242730000000  0.5283440000000 1.0
C      1  0.4670970000000  0.5243770000000  0.5193910000000 1.0
C      1  0.5229050000000  0.4735160000000  0.4654900000000 1.0
C      1  0.4667900000000  0.4727810000000  0.4808350000000 1.0
C      1  0.4761110000000  0.4739290000000  0.5384830000000 1.0
C      1  0.5325480000000  0.4735040000000  0.5201650000000 1.0
C      1  0.5827740000000  0.5524790000000  0.5044940000000 1.0
C      1  0.4961380000000  0.5512640000000  0.5808760000000 1.0
C      1  0.4180930000000  0.5536670000000  0.4941180000000 1.0
C      1  0.5061790000000  0.5528800000000  0.4184240000000 1.0
C      1  0.4176730000000  0.4524100000000  0.5026500000000 1.0
C      1  0.5015130000000  0.4515040000000  0.5822240000000 1.0
C      1  0.5817230000000  0.4514620000000  0.4984320000000 1.0
C      1  0.4983130000000  0.4516640000000  0.4192030000000 1.0
C      1  0.5099400000000  0.4436190000000  0.4647790000000 1.0
C      1  0.5352470000000  0.4437780000000  0.5099020000000 1.0
C      1  0.4893520000000  0.4440800000000  0.5369630000000 1.0
C      1  0.4640520000000  0.4435050000000  0.4915030000000 1.0
C      1  0.4924070000000  0.5551890000000  0.4659510000000 1.0
C      1  0.4632790000000  0.5565330000000  0.5093270000000 1.0
C      1  0.5081020000000  0.5555770000000  0.5353730000000 1.0
C      1  0.5365550000000  0.5555400000000  0.4910170000000 1.0
C      1  0.5854090000000  0.5120180000000  0.4781900000000 1.0
C      1  0.5218280000000  0.5128980000000  0.5821910000000 1.0
C      1  0.4188080000000  0.5132220000000  0.5225510000000 1.0
C      1  0.4798600000000  0.5124100000000  0.4188650000000 1.0
C      1  0.4008770000000  0.4905910000000  0.4739340000000 1.0
C      1  0.4734820000000  0.4932980000000  0.5892650000000 1.0
C      1  0.5991680000000  0.4897580000000  0.5267700000000 1.0
C      1  0.5280450000000  0.4893940000000  0.4007550000000 1.0
C      1  0.5256680000000  0.4539130000000  0.5667430000000 1.0
C      1  0.4323390000000  0.4534140000000  0.5275050000000 1.0
C      1  0.4739140000000  0.4537410000000  0.4344060000000 1.0
C      1  0.5675340000000  0.4527590000000  0.4734960000000 1.0
C      1  0.4710530000000  0.5468400000000  0.5680030000000 1.0
C      1  0.5738520000000  0.5537960000000  0.5314380000000 1.0
C      1  0.5336710000000  0.5552720000000  0.4255470000000 1.0
C      1  0.4267710000000  0.5544920000000  0.4670870000000 1.0
C      1  0.5696640000000  0.5048660000000  0.4305970000000 1.0
C      1  0.5684580000000  0.5056150000000  0.5669080000000 1.0
C      1  0.4225850000000  0.4996390000000  0.5680400000000 1.0
C      1  0.4321410000000  0.5060260000000  0.4330130000000 1.0
C      1  0.4920130000000  0.5180080000000  0.5060520000000 1.0
END
