TITL C-127499-426-3 58.7979491443759 125000 -779.56654352232 0 0 116 (C4) n - 1
REM
REM in /rds/project/t2_vol4/rds-t2-cs072/BORA/CARBON/from-Arr/AIRSS/Generating-Clusters/GAP-ML-2020/Higher-Symm/SD-CG/HFTN-CG
REM
REM
REM
REM
REM
REM ./C.cell (b20cbc046b6831c77cfcea5457e17084)
REM AIRSS Version 0.9.1 bugfix July 2018 build 013d7b7c2542+ Fri, 06 Jul 2018 19:26:36 +0100
REM compiler GCC version 9.3.0
REM options -cpp -mtune=generic -march=x86-64 -g -O0
REM seed -353463160 -572413770 30592890 1176490230 343264632 913926313 -2050160565 996832631 -728674754 1219748640 1273134690 -586619924 -543188661 -358642180 206935487 481595161 -1632940348 -1928230635 -45524526 2136503025 1513915192 -594901775 106541722 -102777896 1966121049 905047120 1983825194 -1825002455 -558420024 -569807712 -2022471284 1117728950 -1712206171
REM
CELL 1.54180   50.00000   50.00000   50.00000   90.00000   90.00000   90.00000
LATT -1
SFAC C  
C      1  0.5152790000000  0.5689060000000  0.5547400000000 1.0
C      1  0.5547370000000  0.5689160000000  0.4847560000000 1.0
C      1  0.4847540000000  0.5689440000000  0.4452980000000 1.0
C      1  0.4452960000000  0.5689340000000  0.5152810000000 1.0
C      1  0.4847100000000  0.5690390000000  0.5547460000000 1.0
C      1  0.4452900000000  0.5690680000000  0.4847120000000 1.0
C      1  0.5153230000000  0.5690620000000  0.4452920000000 1.0
C      1  0.5547430000000  0.5690330000000  0.5153260000000 1.0
C      1  0.5228610000000  0.4407100000000  0.5598230000000 1.0
C      1  0.5598250000000  0.4407240000000  0.4771080000000 1.0
C      1  0.4771100000000  0.4407550000000  0.4401430000000 1.0
C      1  0.4401450000000  0.4407410000000  0.5228590000000 1.0
C      1  0.4756480000000  0.4440070000000  0.5590320000000 1.0
C      1  0.4409380000000  0.4440390000000  0.4756460000000 1.0
C      1  0.5243240000000  0.4440280000000  0.4409360000000 1.0
C      1  0.5590340000000  0.4439970000000  0.5243220000000 1.0
C      1  0.5450890000000  0.4656100000000  0.4840900000000 1.0
C      1  0.4840910000000  0.4656330000000  0.4548930000000 1.0
C      1  0.4548940000000  0.4656230000000  0.5158910000000 1.0
C      1  0.5158920000000  0.4656000000000  0.5450880000000 1.0
C      1  0.4541440000000  0.4681450000000  0.4864590000000 1.0
C      1  0.5135240000000  0.4681400000000  0.4541430000000 1.0
C      1  0.5458400000000  0.4681150000000  0.5135230000000 1.0
C      1  0.4864600000000  0.4681210000000  0.5458390000000 1.0
C      1  0.3954120000000  0.4973900000000  0.4853580000000 1.0
C      1  0.4853580000000  0.4973350000000  0.6045860000000 1.0
C      1  0.6045860000000  0.4973310000000  0.5146400000000 1.0
C      1  0.5146400000000  0.4973860000000  0.3954120000000 1.0
C      1  0.6045850000000  0.4970970000000  0.4857390000000 1.0
C      1  0.5142580000000  0.4970860000000  0.6045850000000 1.0
C      1  0.3954120000000  0.4971400000000  0.5142580000000 1.0
C      1  0.4857400000000  0.4971510000000  0.3954120000000 1.0
C      1  0.5148230000000  0.4555000000000  0.5831820000000 1.0
C      1  0.5831840000000  0.4555100000000  0.4851530000000 1.0
C      1  0.4851550000000  0.4555530000000  0.4167930000000 1.0
C      1  0.4167940000000  0.4555420000000  0.5148210000000 1.0
C      1  0.4843140000000  0.4559850000000  0.5828800000000 1.0
C      1  0.4170960000000  0.4560290000000  0.4843130000000 1.0
C      1  0.5156640000000  0.4560230000000  0.4170950000000 1.0
C      1  0.5828820000000  0.4559790000000  0.5156620000000 1.0
C      1  0.5298240000000  0.4798480000000  0.5898800000000 1.0
C      1  0.5898800000000  0.4798670000000  0.4701650000000 1.0
C      1  0.4701650000000  0.4799130000000  0.4101080000000 1.0
C      1  0.4101090000000  0.4798940000000  0.5298230000000 1.0
C      1  0.4693280000000  0.4805550000000  0.5898440000000 1.0
C      1  0.4101450000000  0.4806030000000  0.4693280000000 1.0
C      1  0.5306620000000  0.4805900000000  0.4101440000000 1.0
C      1  0.5898450000000  0.4805420000000  0.5306610000000 1.0
C      1  0.4052200000000  0.5249910000000  0.5151710000000 1.0
C      1  0.5151700000000  0.5249420000000  0.5947920000000 1.0
C      1  0.5947910000000  0.5249530000000  0.4848420000000 1.0
C      1  0.4848410000000  0.5250020000000  0.4052210000000 1.0
C      1  0.5949380000000  0.5251570000000  0.5149590000000 1.0
C      1  0.4850530000000  0.5251620000000  0.5949390000000 1.0
C      1  0.4050740000000  0.5252120000000  0.4850540000000 1.0
C      1  0.5149580000000  0.5252070000000  0.4050740000000 1.0
C      1  0.4524400000000  0.4922140000000  0.5273390000000 1.0
C      1  0.5273390000000  0.4921900000000  0.5475550000000 1.0
C      1  0.5475550000000  0.4922060000000  0.4726560000000 1.0
C      1  0.4726570000000  0.4922300000000  0.4524400000000 1.0
C      1  0.5489570000000  0.4937940000000  0.5257460000000 1.0
C      1  0.4742500000000  0.4938060000000  0.5489570000000 1.0
C      1  0.4510390000000  0.4938330000000  0.4742500000000 1.0
C      1  0.5257460000000  0.4938210000000  0.4510390000000 1.0
C      1  0.5133120000000  0.5130270000000  0.5317220000000 1.0
C      1  0.5317210000000  0.5130350000000  0.4866940000000 1.0
C      1  0.4866940000000  0.5130510000000  0.4682850000000 1.0
C      1  0.4682850000000  0.5130430000000  0.5133120000000 1.0
C      1  0.4871920000000  0.5153890000000  0.5328420000000 1.0
C      1  0.4671650000000  0.5154060000000  0.4871930000000 1.0
C      1  0.5128150000000  0.5154010000000  0.4671660000000 1.0
C      1  0.5328410000000  0.5153830000000  0.5128150000000 1.0
C      1  0.4308950000000  0.5008860000000  0.5461580000000 1.0
C      1  0.5461580000000  0.5008510000000  0.5691050000000 1.0
C      1  0.5691050000000  0.5008780000000  0.4538420000000 1.0
C      1  0.4538420000000  0.5009120000000  0.4308950000000 1.0
C      1  0.5694550000000  0.5009880000000  0.5459000000000 1.0
C      1  0.4541000000000  0.5010090000000  0.5694550000000 1.0
C      1  0.4305450000000  0.5010470000000  0.4541000000000 1.0
C      1  0.5459000000000  0.5010250000000  0.4305450000000 1.0
C      1  0.5378910000000  0.4227820000000  0.4854420000000 1.0
C      1  0.4854440000000  0.4228010000000  0.4620680000000 1.0
C      1  0.4620700000000  0.4227920000000  0.5145150000000 1.0
C      1  0.5145170000000  0.4227730000000  0.5378890000000 1.0
C      1  0.4656850000000  0.4278380000000  0.4839020000000 1.0
C      1  0.5160590000000  0.4278300000000  0.4656830000000 1.0
C      1  0.5342790000000  0.4278120000000  0.5160570000000 1.0
C      1  0.4839050000000  0.4278190000000  0.5342770000000 1.0
C      1  0.5367520000000  0.5292070000000  0.5770030000000 1.0
C      1  0.5770020000000  0.5292280000000  0.4632630000000 1.0
C      1  0.4632620000000  0.5292670000000  0.4230130000000 1.0
C      1  0.4230120000000  0.5292460000000  0.5367530000000 1.0
C      1  0.4633230000000  0.5295310000000  0.5773150000000 1.0
C      1  0.4227000000000  0.5295730000000  0.4633240000000 1.0
C      1  0.5366910000000  0.5295560000000  0.4227010000000 1.0
C      1  0.5773140000000  0.5295150000000  0.5366920000000 1.0
C      1  0.5384370000000  0.5520050000000  0.4409190000000 1.0
C      1  0.4409180000000  0.5520230000000  0.4615890000000 1.0
C      1  0.4615880000000  0.5519910000000  0.5591090000000 1.0
C      1  0.5591070000000  0.5519730000000  0.5384390000000 1.0
C      1  0.4615380000000  0.5519570000000  0.4409080000000 1.0
C      1  0.5591190000000  0.5519280000000  0.4615400000000 1.0
C      1  0.5384870000000  0.5519060000000  0.5591200000000 1.0
C      1  0.4409060000000  0.5519350000000  0.5384880000000 1.0
C      1  0.5148930000000  0.5899080000000  0.4654790000000 1.0
C      1  0.4654770000000  0.5899140000000  0.4851530000000 1.0
C      1  0.4851500000000  0.5898960000000  0.5345700000000 1.0
C      1  0.5345670000000  0.5898890000000  0.5148960000000 1.0
C      1  0.4851470000000  0.5898030000000  0.4655460000000 1.0
C      1  0.5345000000000  0.5897850000000  0.4851490000000 1.0
C      1  0.5148970000000  0.5897760000000  0.5345030000000 1.0
C      1  0.4655430000000  0.5897940000000  0.5149000000000 1.0
C      1  0.5153020000000  0.4559570000000  0.4817270000000 1.0
C      1  0.4846760000000  0.4559540000000  0.5182480000000 1.0
C      1  0.5182490000000  0.4559470000000  0.5153010000000 1.0
C      1  0.4817280000000  0.4559640000000  0.4846740000000 1.0
END
