TITL C-125340-5964-9 0.00843103308412791 125000 -61.5132287095389 0 0 10 (C1) n - 1
REM
REM in /rds/project/t2_vol4/rds-t2-cs072/BORA/CARBON/from-Arr/AIRSS/Generating-Clusters/GAP-ML-2020/Higher-Symm/SD-CG/HFTN-CG
REM
REM
REM
REM
REM
REM ./C.cell (b20cbc046b6831c77cfcea5457e17084)
REM AIRSS Version 0.9.1 bugfix July 2018 build 013d7b7c2542+ Fri, 06 Jul 2018 19:26:36 +0100
REM compiler GCC version 9.3.0
REM options -cpp -mtune=generic -march=x86-64 -g -O0
REM seed 1423679767 619700112 -1715343293 -277560806 -1141818019 -977893337 828689313 -1140975330 -844405370 -87496324 407227923 -1398142528 -1005227080 1799332264 1651437257 1314707630 -633233436 -1313113779 -1135818940 1104514324 535763991 -774838080 -124180761 1967972372 -1454846316 -279881331 -1195107314 1395821080 -1965487565 1651811808 2048488794 1715418240 1707267112
REM
CELL 1.54180   50.00000   50.00000   50.00000   90.00000   90.00000   90.00000
LATT -1
SFAC C  
C      1  0.4747050000000  0.4679500000000  0.4893020000000 1.0
C      1  0.4880030000000  0.4566870000000  0.4673880000000 1.0
C      1  0.5121340000000  0.4563660000000  0.4773050000000 1.0
C      1  0.5304750000000  0.4570090000000  0.4947010000000 1.0
C      1  0.5258320000000  0.4556230000000  0.5213020000000 1.0
C      1  0.5012400000000  0.4593690000000  0.5282220000000 1.0
C      1  0.4776500000000  0.4663880000000  0.5183390000000 1.0
C      1  0.4772980000000  0.4917470000000  0.5041120000000 1.0
C      1  0.4907690000000  0.5148830000000  0.5039860000000 1.0
C      1  0.5029130000000  0.5367600000000  0.4988450000000 1.0
END
