TITL C-126802-9267-4 560.762341711294 125000 -1253.46606670135 0 0 183 (D3) n - 1
REM
REM in /rds/project/t2_vol4/rds-t2-cs072/BORA/CARBON/from-Arr/AIRSS/Generating-Clusters/GAP-ML-2020/Higher-Symm/SD-CG/HFTN-CG
REM
REM
REM
REM
REM
REM ./C.cell (b20cbc046b6831c77cfcea5457e17084)
REM AIRSS Version 0.9.1 bugfix July 2018 build 013d7b7c2542+ Fri, 06 Jul 2018 19:26:36 +0100
REM compiler GCC version 9.3.0
REM options -cpp -mtune=generic -march=x86-64 -g -O0
REM seed 2116313118 -1826471849 -1308100178 78766511 1534480188 -387909745 1439880327 1033183756 479142573 -765544349 1781528650 -2129007890 -1845414306 -981897807 -898148434 1857950064 2094608387 757004100 715889962 2051605922 454064678 234785599 -1986569158 -205236535 1634936175 1938721854 -109298513 1401877332 -1299237990 -376497442 -2081162912 682497559 -133577395
REM
CELL 1.54180   50.00000   50.00000   50.00000   90.00000   90.00000   90.00000
LATT -1
SFAC C  
C      1  0.4764090000000  0.6129330000000  0.4952260000000 1.0
C      1  0.6095970000000  0.4639650000000  0.4952210000000 1.0
C      1  0.4139940000000  0.4231040000000  0.4952230000000 1.0
C      1  0.4764080000000  0.3870680000000  0.5039480000000 1.0
C      1  0.6095980000000  0.5360350000000  0.5039480000000 1.0
C      1  0.4139950000000  0.5768970000000  0.5039510000000 1.0
C      1  0.4478290000000  0.5020500000000  0.4655910000000 1.0
C      1  0.5278590000000  0.5441560000000  0.4655900000000 1.0
C      1  0.5243090000000  0.4537950000000  0.4655890000000 1.0
C      1  0.4478300000000  0.4979500000000  0.5335830000000 1.0
C      1  0.5278600000000  0.4558430000000  0.5335810000000 1.0
C      1  0.5243110000000  0.5462050000000  0.5335830000000 1.0
C      1  0.5593000000000  0.4949360000000  0.5892170000000 1.0
C      1  0.4659680000000  0.4511760000000  0.5892180000000 1.0
C      1  0.4747360000000  0.5538840000000  0.5892190000000 1.0
C      1  0.5592980000000  0.5050640000000  0.4099530000000 1.0
C      1  0.4659660000000  0.5488250000000  0.4099550000000 1.0
C      1  0.4747330000000  0.4461160000000  0.4099540000000 1.0
C      1  0.4857420000000  0.4750930000000  0.4774440000000 1.0
C      1  0.4855580000000  0.5248010000000  0.4774450000000 1.0
C      1  0.5286980000000  0.5001060000000  0.4774440000000 1.0
C      1  0.4857430000000  0.5249070000000  0.5217290000000 1.0
C      1  0.4855590000000  0.4751990000000  0.5217280000000 1.0
C      1  0.5286990000000  0.4998930000000  0.5217270000000 1.0
C      1  0.5288950000000  0.4994850000000  0.4481510000000 1.0
C      1  0.4851040000000  0.4752340000000  0.4481510000000 1.0
C      1  0.4859980000000  0.5252840000000  0.4481520000000 1.0
C      1  0.5288970000000  0.5005150000000  0.5510200000000 1.0
C      1  0.4851060000000  0.5247660000000  0.5510220000000 1.0
C      1  0.4859990000000  0.4747160000000  0.5510210000000 1.0
C      1  0.5811280000000  0.5503950000000  0.4654730000000 1.0
C      1  0.5030780000000  0.4045440000000  0.4654730000000 1.0
C      1  0.4157930000000  0.5450630000000  0.4654760000000 1.0
C      1  0.5811290000000  0.4496050000000  0.5336960000000 1.0
C      1  0.5030800000000  0.5954560000000  0.5337000000000 1.0
C      1  0.4157930000000  0.4549380000000  0.5336990000000 1.0
C      1  0.4333050000000  0.4763050000000  0.4622410000000 1.0
C      1  0.5128260000000  0.5696070000000  0.4622420000000 1.0
C      1  0.5538670000000  0.4540910000000  0.4622400000000 1.0
C      1  0.4333070000000  0.5236950000000  0.5369320000000 1.0
C      1  0.5128260000000  0.4303930000000  0.5369300000000 1.0
C      1  0.5538680000000  0.5459100000000  0.5369310000000 1.0
C      1  0.4179860000000  0.4280340000000  0.5238200000000 1.0
C      1  0.4786840000000  0.6070090000000  0.5238230000000 1.0
C      1  0.6033310000000  0.4649560000000  0.5238180000000 1.0
C      1  0.4179860000000  0.5719660000000  0.4753540000000 1.0
C      1  0.4786820000000  0.3929910000000  0.4753510000000 1.0
C      1  0.6033310000000  0.5350440000000  0.4753510000000 1.0
C      1  0.5810710000000  0.4862600000000  0.4464230000000 1.0
C      1  0.4475620000000  0.4366610000000  0.4464240000000 1.0
C      1  0.4713640000000  0.5770820000000  0.4464260000000 1.0
C      1  0.5810730000000  0.5137400000000  0.5527460000000 1.0
C      1  0.4475650000000  0.5633390000000  0.5527500000000 1.0
C      1  0.4713650000000  0.4229180000000  0.5527470000000 1.0
C      1  0.4530020000000  0.5895400000000  0.5614570000000 1.0
C      1  0.6010450000000  0.4959310000000  0.5614530000000 1.0
C      1  0.4459560000000  0.4145260000000  0.5614550000000 1.0
C      1  0.4529990000000  0.4104600000000  0.4377170000000 1.0
C      1  0.6010430000000  0.5040690000000  0.4377150000000 1.0
C      1  0.4459550000000  0.5854740000000  0.4377190000000 1.0
C      1  0.5473910000000  0.5341060000000  0.4052170000000 1.0
C      1  0.5058380000000  0.4419070000000  0.4052170000000 1.0
C      1  0.4467680000000  0.5239920000000  0.4052190000000 1.0
C      1  0.5473930000000  0.4658940000000  0.5939530000000 1.0
C      1  0.5058410000000  0.5580930000000  0.5939560000000 1.0
C      1  0.4467700000000  0.4760080000000  0.5939550000000 1.0
C      1  0.5581740000000  0.5872810000000  0.4465260000000 1.0
C      1  0.5464990000000  0.4059800000000  0.4465230000000 1.0
C      1  0.3953250000000  0.5067420000000  0.4465270000000 1.0
C      1  0.5581750000000  0.4127190000000  0.5526440000000 1.0
C      1  0.5465010000000  0.5940200000000  0.5526480000000 1.0
C      1  0.3953260000000  0.4932590000000  0.5526480000000 1.0
C      1  0.5806500000000  0.4245010000000  0.4813950000000 1.0
C      1  0.3942910000000  0.4679050000000  0.4813980000000 1.0
C      1  0.5250590000000  0.6075950000000  0.4813990000000 1.0
C      1  0.5806510000000  0.5754980000000  0.5177750000000 1.0
C      1  0.3942920000000  0.5320960000000  0.5177770000000 1.0
C      1  0.5250590000000  0.3924050000000  0.5177720000000 1.0
C      1  0.5143770000000  0.4729990000000  0.4409150000000 1.0
C      1  0.4694260000000  0.5010500000000  0.4409160000000 1.0
C      1  0.5161940000000  0.5259530000000  0.4409160000000 1.0
C      1  0.5143790000000  0.5270000000000  0.5582570000000 1.0
C      1  0.4694280000000  0.4989500000000  0.5582570000000 1.0
C      1  0.5161950000000  0.4740470000000  0.5582560000000 1.0
C      1  0.5147830000000  0.5254460000000  0.5142230000000 1.0
C      1  0.5146460000000  0.4744740000000  0.5142220000000 1.0
C      1  0.4705710000000  0.5000790000000  0.5142230000000 1.0
C      1  0.5147820000000  0.4745540000000  0.4849490000000 1.0
C      1  0.5146460000000  0.5255250000000  0.4849500000000 1.0
C      1  0.4705710000000  0.4999210000000  0.4849500000000 1.0
C      1  0.5072500000000  0.4858560000000  0.6056780000000 1.0
C      1  0.4841300000000  0.5007920000000  0.6056780000000 1.0
C      1  0.5086250000000  0.5133470000000  0.6056780000000 1.0
C      1  0.5072470000000  0.5141440000000  0.3934940000000 1.0
C      1  0.4841270000000  0.4992080000000  0.3934940000000 1.0
C      1  0.5086220000000  0.4866530000000  0.3934940000000 1.0
C      1  0.5357130000000  0.4101660000000  0.4966170000000 1.0
C      1  0.4043450000000  0.5139890000000  0.4966210000000 1.0
C      1  0.5599420000000  0.5758450000000  0.4966200000000 1.0
C      1  0.5357130000000  0.5898330000000  0.5025540000000 1.0
C      1  0.4043450000000  0.4860120000000  0.5025540000000 1.0
C      1  0.5599420000000  0.4241540000000  0.5025510000000 1.0
C      1  0.4969110000000  0.5740230000000  0.4361520000000 1.0
C      1  0.5656480000000  0.4656650000000  0.4361500000000 1.0
C      1  0.4374380000000  0.4603160000000  0.4361510000000 1.0
C      1  0.4969120000000  0.4259770000000  0.5630200000000 1.0
C      1  0.5656500000000  0.5343350000000  0.5630210000000 1.0
C      1  0.4374410000000  0.5396850000000  0.5630220000000 1.0
C      1  0.5039730000000  0.4163240000000  0.4187740000000 1.0
C      1  0.4255450000000  0.5383980000000  0.4187770000000 1.0
C      1  0.5704790000000  0.5452820000000  0.4187750000000 1.0
C      1  0.5039760000000  0.5836760000000  0.5803990000000 1.0
C      1  0.4255470000000  0.4616020000000  0.5803970000000 1.0
C      1  0.5704810000000  0.4547180000000  0.5803950000000 1.0
C      1  0.5845160000000  0.4808290000000  0.5801930000000 1.0
C      1  0.4411430000000  0.4363920000000  0.5801950000000 1.0
C      1  0.4743450000000  0.5827760000000  0.5801970000000 1.0
C      1  0.5845140000000  0.5191710000000  0.4189760000000 1.0
C      1  0.4411410000000  0.5636090000000  0.4189790000000 1.0
C      1  0.4743420000000  0.4172250000000  0.4189770000000 1.0
C      1  0.4533240000000  0.3995980000000  0.4646860000000 1.0
C      1  0.4363870000000  0.5906240000000  0.4646900000000 1.0
C      1  0.6102880000000  0.5097800000000  0.4646850000000 1.0
C      1  0.4533260000000  0.6004020000000  0.5344870000000 1.0
C      1  0.4363870000000  0.4093760000000  0.5344840000000 1.0
C      1  0.6102890000000  0.4902200000000  0.5344830000000 1.0
C      1  0.4733950000000  0.5502760000000  0.5590120000000 1.0
C      1  0.5568450000000  0.4979020000000  0.5590100000000 1.0
C      1  0.4697630000000  0.4518180000000  0.5590110000000 1.0
C      1  0.4733920000000  0.4497240000000  0.4401610000000 1.0
C      1  0.5568430000000  0.5020980000000  0.4401600000000 1.0
C      1  0.4697610000000  0.5481820000000  0.4401630000000 1.0
C      1  0.5619090000000  0.5281940000000  0.5053840000000 1.0
C      1  0.4934640000000  0.4322870000000  0.5053850000000 1.0
C      1  0.4446270000000  0.5395170000000  0.5053870000000 1.0
C      1  0.5619090000000  0.4718040000000  0.4937840000000 1.0
C      1  0.4934630000000  0.5677130000000  0.4937880000000 1.0
C      1  0.4446270000000  0.4604830000000  0.4937870000000 1.0
C      1  0.5177530000000  0.4636700000000  0.5893010000000 1.0
C      1  0.4596630000000  0.5027900000000  0.5893020000000 1.0
C      1  0.5225870000000  0.5335370000000  0.5893020000000 1.0
C      1  0.5177510000000  0.5363300000000  0.4098710000000 1.0
C      1  0.4596610000000  0.4972110000000  0.4098710000000 1.0
C      1  0.5225840000000  0.4664630000000  0.4098700000000 1.0
C      1  0.4354180000000  0.5963990000000  0.5113540000000 1.0
C      1  0.6157750000000  0.5077300000000  0.5113490000000 1.0
C      1  0.4488070000000  0.3958700000000  0.5113500000000 1.0
C      1  0.4354170000000  0.4036010000000  0.4878200000000 1.0
C      1  0.6157750000000  0.4922700000000  0.4878190000000 1.0
C      1  0.4488080000000  0.6041300000000  0.4878240000000 1.0
C      1  0.4514440000000  0.5322420000000  0.5877510000000 1.0
C      1  0.5522030000000  0.5259290000000  0.5877500000000 1.0
C      1  0.4963570000000  0.4418250000000  0.5877490000000 1.0
C      1  0.4514410000000  0.4677590000000  0.4114220000000 1.0
C      1  0.5522000000000  0.4740710000000  0.4114210000000 1.0
C      1  0.4963550000000  0.5581750000000  0.4114230000000 1.0
C      1  0.5734070000000  0.5644340000000  0.4410490000000 1.0
C      1  0.5190960000000  0.4042120000000  0.4410470000000 1.0
C      1  0.4074950000000  0.5313570000000  0.4410500000000 1.0
C      1  0.5734080000000  0.4355660000000  0.5581210000000 1.0
C      1  0.5190980000000  0.5957880000000  0.5581250000000 1.0
C      1  0.4074960000000  0.4686430000000  0.5581240000000 1.0
C      1  0.5134340000000  0.5740390000000  0.5164090000000 1.0
C      1  0.5574040000000  0.4513460000000  0.5164060000000 1.0
C      1  0.4291630000000  0.4746130000000  0.5164090000000 1.0
C      1  0.5134330000000  0.4259600000000  0.4827630000000 1.0
C      1  0.5574030000000  0.5486530000000  0.4827640000000 1.0
C      1  0.4291630000000  0.5253870000000  0.4827650000000 1.0
C      1  0.5345230000000  0.5929980000000  0.4578360000000 1.0
C      1  0.5632750000000  0.4236040000000  0.4578330000000 1.0
C      1  0.4021990000000  0.4834010000000  0.4578360000000 1.0
C      1  0.5345240000000  0.4070020000000  0.5413350000000 1.0
C      1  0.5632770000000  0.5763960000000  0.5413380000000 1.0
C      1  0.4022010000000  0.5166000000000  0.5413390000000 1.0
C      1  0.5000980000000  0.6180920000000  0.4825810000000 1.0
C      1  0.6022210000000  0.4408700000000  0.4825750000000 1.0
C      1  0.3976800000000  0.4410390000000  0.4825790000000 1.0
C      1  0.5000980000000  0.3819080000000  0.5165920000000 1.0
C      1  0.6022220000000  0.5591300000000  0.5165930000000 1.0
C      1  0.3976820000000  0.5589610000000  0.5165960000000 1.0
C      1  0.4743700000000  0.4556070000000  0.4995860000000 1.0
C      1  0.4743700000000  0.5443930000000  0.4995870000000 1.0
C      1  0.5512600000000  0.4999990000000  0.4995850000000 1.0
END
