TITL C-127524-236-4 72.3892125526668 125000 -881.210664227011 0 0 126 (C1) n - 1
REM
REM in /rds/project/t2_vol4/rds-t2-cs072/BORA/CARBON/from-Arr/AIRSS/Generating-Clusters/GAP-ML-2020/Higher-Symm/SD-CG/HFTN-CG
REM
REM
REM
REM
REM
REM ./C.cell (b20cbc046b6831c77cfcea5457e17084)
REM AIRSS Version 0.9.1 bugfix July 2018 build 013d7b7c2542+ Fri, 06 Jul 2018 19:26:36 +0100
REM compiler GCC version 9.3.0
REM options -cpp -mtune=generic -march=x86-64 -g -O0
REM seed -1635704796 570720360 1660241288 -466257963 983128238 -200985896 1294074651 -1884031586 -1492172489 -1044309008 -1083663122 -664789727 -821316438 -1256824198 -2005381378 1787957393 -1339561852 561841320 -1892287907 877985258 1567536271 2055507702 -2051517911 -1068240265 158321038 -93719511 62716350 -1806941685 -228716427 -320357556 1328525157 1461345504 -786728218
REM
CELL 1.54180   50.00000   50.00000   50.00000   90.00000   90.00000   90.00000
LATT -1
SFAC C  
C      1  0.5102890000000  0.4369840000000  0.4212400000000 1.0
C      1  0.5584760000000  0.4367180000000  0.4462970000000 1.0
C      1  0.5792520000000  0.4371310000000  0.4964350000000 1.0
C      1  0.5630570000000  0.4366730000000  0.5482560000000 1.0
C      1  0.5173110000000  0.4371240000000  0.5774840000000 1.0
C      1  0.4634550000000  0.4367560000000  0.5704530000000 1.0
C      1  0.4268220000000  0.4372040000000  0.5304210000000 1.0
C      1  0.4243510000000  0.4366760000000  0.4761910000000 1.0
C      1  0.4572910000000  0.4368260000000  0.4330630000000 1.0
C      1  0.4061250000000  0.5303470000000  0.4690150000000 1.0
C      1  0.4491140000000  0.5319960000000  0.4182540000000 1.0
C      1  0.5148060000000  0.5327220000000  0.4056600000000 1.0
C      1  0.5738920000000  0.5302350000000  0.4343710000000 1.0
C      1  0.5945340000000  0.5336800000000  0.4981880000000 1.0
C      1  0.5778990000000  0.5302040000000  0.5614900000000 1.0
C      1  0.5182690000000  0.5336670000000  0.5927930000000 1.0
C      1  0.4531360000000  0.5303360000000  0.5871860000000 1.0
C      1  0.4120220000000  0.5337930000000  0.5339960000000 1.0
C      1  0.5805790000000  0.5481820000000  0.4561060000000 1.0
C      1  0.5884430000000  0.5484570000000  0.5224020000000 1.0
C      1  0.5576590000000  0.5481290000000  0.5718290000000 1.0
C      1  0.4934100000000  0.5485340000000  0.5909980000000 1.0
C      1  0.4395180000000  0.5482720000000  0.5690000000000 1.0
C      1  0.4094690000000  0.5486430000000  0.5092600000000 1.0
C      1  0.4211720000000  0.5483470000000  0.4520890000000 1.0
C      1  0.4720870000000  0.5483560000000  0.4125030000000 1.0
C      1  0.5366120000000  0.5485090000000  0.4166390000000 1.0
C      1  0.4532780000000  0.4822110000000  0.5904500000000 1.0
C      1  0.4063370000000  0.4833180000000  0.5391360000000 1.0
C      1  0.4028580000000  0.4821670000000  0.4697620000000 1.0
C      1  0.4446760000000  0.4824820000000  0.4141410000000 1.0
C      1  0.5128510000000  0.4828400000000  0.3988810000000 1.0
C      1  0.5747320000000  0.4821920000000  0.4308610000000 1.0
C      1  0.6015460000000  0.4831990000000  0.4952080000000 1.0
C      1  0.5811270000000  0.4820690000000  0.5617340000000 1.0
C      1  0.5223530000000  0.4831520000000  0.5993600000000 1.0
C      1  0.4853190000000  0.4283690000000  0.4339250000000 1.0
C      1  0.5311700000000  0.4283310000000  0.4399310000000 1.0
C      1  0.5624440000000  0.4283960000000  0.4740630000000 1.0
C      1  0.5645170000000  0.4283740000000  0.5202310000000 1.0
C      1  0.5364190000000  0.4283780000000  0.5570200000000 1.0
C      1  0.4913050000000  0.4284000000000  0.5670960000000 1.0
C      1  0.4502420000000  0.4284460000000  0.5457200000000 1.0
C      1  0.4325480000000  0.4284150000000  0.5030320000000 1.0
C      1  0.4463690000000  0.4282540000000  0.4588760000000 1.0
C      1  0.5252380000000  0.5283140000000  0.5379100000000 1.0
C      1  0.4954330000000  0.5282240000000  0.5448250000000 1.0
C      1  0.4675170000000  0.5283790000000  0.5311520000000 1.0
C      1  0.4555360000000  0.5282720000000  0.5028700000000 1.0
C      1  0.4636070000000  0.5287010000000  0.4724470000000 1.0
C      1  0.4888600000000  0.5290600000000  0.4549040000000 1.0
C      1  0.5194470000000  0.5281830000000  0.4595040000000 1.0
C      1  0.5411810000000  0.5282440000000  0.4818790000000 1.0
C      1  0.5431010000000  0.5281850000000  0.5125210000000 1.0
C      1  0.4589460000000  0.4830230000000  0.5019180000000 1.0
C      1  0.4671280000000  0.4831160000000  0.4749220000000 1.0
C      1  0.4907520000000  0.4829810000000  0.4596310000000 1.0
C      1  0.5186880000000  0.4829200000000  0.4633420000000 1.0
C      1  0.5378570000000  0.4830150000000  0.4841000000000 1.0
C      1  0.5393560000000  0.4829680000000  0.5122440000000 1.0
C      1  0.5223820000000  0.4830790000000  0.5347390000000 1.0
C      1  0.4949090000000  0.4829680000000  0.5409390000000 1.0
C      1  0.4699240000000  0.4831940000000  0.5278800000000 1.0
C      1  0.5974460000000  0.5438870000000  0.5475320000000 1.0
C      1  0.5430110000000  0.5453800000000  0.5942260000000 1.0
C      1  0.4702040000000  0.5439400000000  0.6041470000000 1.0
C      1  0.4148580000000  0.5455680000000  0.5586080000000 1.0
C      1  0.3923530000000  0.5439120000000  0.4887990000000 1.0
C      1  0.4262290000000  0.5446970000000  0.4259290000000 1.0
C      1  0.4923050000000  0.5442980000000  0.3949790000000 1.0
C      1  0.5629480000000  0.5436980000000  0.4129470000000 1.0
C      1  0.6004000000000  0.5455830000000  0.4741460000000 1.0
C      1  0.4587710000000  0.4169090000000  0.5018570000000 1.0
C      1  0.4672320000000  0.4168590000000  0.4748300000000 1.0
C      1  0.4910400000000  0.4168390000000  0.4595230000000 1.0
C      1  0.5190960000000  0.4168660000000  0.4632140000000 1.0
C      1  0.5382050000000  0.4168860000000  0.4841090000000 1.0
C      1  0.5394680000000  0.4168950000000  0.5123960000000 1.0
C      1  0.5223010000000  0.4168820000000  0.5349130000000 1.0
C      1  0.4946820000000  0.4168920000000  0.5410980000000 1.0
C      1  0.4695860000000  0.4169180000000  0.5280110000000 1.0
C      1  0.5585640000000  0.5045450000000  0.4752000000000 1.0
C      1  0.5607910000000  0.5045490000000  0.5187710000000 1.0
C      1  0.5347570000000  0.5045420000000  0.5536280000000 1.0
C      1  0.4921720000000  0.5045370000000  0.5631970000000 1.0
C      1  0.4535040000000  0.5047050000000  0.5432840000000 1.0
C      1  0.4366570000000  0.5046360000000  0.5030300000000 1.0
C      1  0.4491410000000  0.5046560000000  0.4613590000000 1.0
C      1  0.4855990000000  0.5043940000000  0.4375470000000 1.0
C      1  0.5288590000000  0.5044870000000  0.4433460000000 1.0
C      1  0.5410440000000  0.5775890000000  0.5101090000000 1.0
C      1  0.5249510000000  0.5777410000000  0.5344940000000 1.0
C      1  0.4975630000000  0.5775340000000  0.5421380000000 1.0
C      1  0.4708460000000  0.5778220000000  0.5302850000000 1.0
C      1  0.4585050000000  0.5776440000000  0.5045850000000 1.0
C      1  0.4649940000000  0.5775950000000  0.4762550000000 1.0
C      1  0.4878880000000  0.5770100000000  0.4587660000000 1.0
C      1  0.5165710000000  0.5770310000000  0.4618240000000 1.0
C      1  0.5376870000000  0.5777570000000  0.4818200000000 1.0
C      1  0.5601830000000  0.5049050000000  0.4445010000000 1.0
C      1  0.5815620000000  0.5059320000000  0.4964320000000 1.0
C      1  0.5653100000000  0.5048940000000  0.5497580000000 1.0
C      1  0.5177130000000  0.5058590000000  0.5799090000000 1.0
C      1  0.4624510000000  0.5050010000000  0.5728110000000 1.0
C      1  0.4246890000000  0.5060600000000  0.5310710000000 1.0
C      1  0.4218740000000  0.5050820000000  0.4754980000000 1.0
C      1  0.4556740000000  0.5051490000000  0.4306880000000 1.0
C      1  0.5106940000000  0.5055640000000  0.4187360000000 1.0
C      1  0.5417150000000  0.5541380000000  0.5467140000000 1.0
C      1  0.4892190000000  0.5539510000000  0.5609320000000 1.0
C      1  0.4615210000000  0.5542460000000  0.5489040000000 1.0
C      1  0.4382890000000  0.5540110000000  0.4998060000000 1.0
C      1  0.4448340000000  0.5544530000000  0.4703500000000 1.0
C      1  0.4829520000000  0.5543020000000  0.4392330000000 1.0
C      1  0.5308600000000  0.5539720000000  0.4467050000000 1.0
C      1  0.5529420000000  0.5541730000000  0.4672980000000 1.0
C      1  0.5581030000000  0.5538810000000  0.5213340000000 1.0
C      1  0.4541650000000  0.4569180000000  0.5881410000000 1.0
C      1  0.4090200000000  0.4581120000000  0.5378030000000 1.0
C      1  0.4053530000000  0.4568860000000  0.4701790000000 1.0
C      1  0.4466390000000  0.4572750000000  0.4164650000000 1.0
C      1  0.5127980000000  0.4576140000000  0.4018360000000 1.0
C      1  0.5731930000000  0.4568950000000  0.4328070000000 1.0
C      1  0.5985510000000  0.4579930000000  0.4955750000000 1.0
C      1  0.5789420000000  0.4567830000000  0.5604560000000 1.0
C      1  0.5215240000000  0.4579490000000  0.5963830000000 1.0
END
