TITL C-126555-4315-4 39.7784306028737 125000 -339.415637842468 0 0 52 (C1) n - 1
REM
REM in /rds/project/t2_vol4/rds-t2-cs072/BORA/CARBON/from-Arr/AIRSS/Generating-Clusters/GAP-ML-2020/Higher-Symm/SD-CG/HFTN-CG
REM
REM
REM
REM
REM
REM ./C.cell (b20cbc046b6831c77cfcea5457e17084)
REM AIRSS Version 0.9.1 bugfix July 2018 build 013d7b7c2542+ Fri, 06 Jul 2018 19:26:36 +0100
REM compiler GCC version 9.3.0
REM options -cpp -mtune=generic -march=x86-64 -g -O0
REM seed 1784290437 -947743246 795983978 -1047593692 1332245205 -1885715944 -662677839 1251139901 -402057355 -1835219231 -699274669 1493164814 619111717 -316659570 425827918 -177279621 -1600411962 -996511821 1707551868 2036100223 -724387871 1745163567 -1515348843 13364270 285991116 826222399 -1629251186 -558023638 955219854 -1729162343 -1862778562 -542418444 -861830947
REM
CELL 1.54180   50.00000   50.00000   50.00000   90.00000   90.00000   90.00000
LATT -1
SFAC C  
C      1  0.5529070000000  0.5267790000000  0.5349460000000 1.0
C      1  0.5385420000000  0.4815120000000  0.4657860000000 1.0
C      1  0.4435740000000  0.5348830000000  0.5269960000000 1.0
C      1  0.4621310000000  0.4814030000000  0.4662460000000 1.0
C      1  0.5504440000000  0.5276240000000  0.4644260000000 1.0
C      1  0.5486530000000  0.4805110000000  0.5349540000000 1.0
C      1  0.4473900000000  0.5260110000000  0.4639110000000 1.0
C      1  0.4526390000000  0.4816820000000  0.5358910000000 1.0
C      1  0.5268590000000  0.4613840000000  0.5341760000000 1.0
C      1  0.5250170000000  0.5422550000000  0.4688100000000 1.0
C      1  0.4733310000000  0.4608200000000  0.5317910000000 1.0
C      1  0.4727730000000  0.5399370000000  0.4699550000000 1.0
C      1  0.5277840000000  0.4540830000000  0.4621980000000 1.0
C      1  0.5264750000000  0.5401210000000  0.5347420000000 1.0
C      1  0.4730820000000  0.4540800000000  0.4626690000000 1.0
C      1  0.4714570000000  0.5362540000000  0.5338730000000 1.0
C      1  0.5151540000000  0.4407100000000  0.5157840000000 1.0
C      1  0.5126780000000  0.5622970000000  0.4873580000000 1.0
C      1  0.4860720000000  0.4399700000000  0.5156730000000 1.0
C      1  0.4841870000000  0.5607210000000  0.4884780000000 1.0
C      1  0.5150380000000  0.4401690000000  0.4859130000000 1.0
C      1  0.5134760000000  0.5611160000000  0.5185830000000 1.0
C      1  0.4859800000000  0.4395650000000  0.4857700000000 1.0
C      1  0.4850820000000  0.5588220000000  0.5187560000000 1.0
C      1  0.5127210000000  0.5254060000000  0.4441120000000 1.0
C      1  0.5124870000000  0.4652070000000  0.5586910000000 1.0
C      1  0.4856490000000  0.5247950000000  0.4441850000000 1.0
C      1  0.4866160000000  0.4692130000000  0.5575890000000 1.0
C      1  0.5149850000000  0.5206070000000  0.5555420000000 1.0
C      1  0.5133060000000  0.4449430000000  0.4398270000000 1.0
C      1  0.4858370000000  0.5185230000000  0.5565780000000 1.0
C      1  0.4871750000000  0.4451080000000  0.4399100000000 1.0
C      1  0.5668960000000  0.5163350000000  0.4836750000000 1.0
C      1  0.5651690000000  0.4876880000000  0.5129970000000 1.0
C      1  0.4297240000000  0.5146060000000  0.4818730000000 1.0
C      1  0.4366640000000  0.4906740000000  0.5150250000000 1.0
C      1  0.5685520000000  0.5170270000000  0.5134230000000 1.0
C      1  0.5625450000000  0.4875040000000  0.4837820000000 1.0
C      1  0.4280020000000  0.5192430000000  0.5118590000000 1.0
C      1  0.4392410000000  0.4875590000000  0.4858780000000 1.0
C      1  0.4847410000000  0.5153870000000  0.5161220000000 1.0
C      1  0.4858550000000  0.4888450000000  0.4835930000000 1.0
C      1  0.5144810000000  0.5162370000000  0.5165910000000 1.0
C      1  0.5159210000000  0.4896810000000  0.4842660000000 1.0
C      1  0.4851920000000  0.5189470000000  0.4872910000000 1.0
C      1  0.4855130000000  0.4852990000000  0.5138350000000 1.0
C      1  0.5147780000000  0.5195480000000  0.4874590000000 1.0
C      1  0.5153660000000  0.4862510000000  0.5145020000000 1.0
C      1  0.4712840000000  0.4940470000000  0.5577930000000 1.0
C      1  0.4620800000000  0.5064110000000  0.4472910000000 1.0
C      1  0.5418150000000  0.5046960000000  0.5511750000000 1.0
C      1  0.5366800000000  0.5075040000000  0.4474510000000 1.0
END
