TITL C-127496-3295-12 0.0753895384622947 125000 -582.926772032585 0 0 85 (D2) n - 1
REM
REM in /rds/project/t2_vol4/rds-t2-cs072/BORA/CARBON/from-Arr/AIRSS/Generating-Clusters/GAP-ML-2020/Higher-Symm/SD-CG/HFTN-CG
REM
REM
REM
REM
REM
REM ./C.cell (b20cbc046b6831c77cfcea5457e17084)
REM AIRSS Version 0.9.1 bugfix July 2018 build 013d7b7c2542+ Fri, 06 Jul 2018 19:26:36 +0100
REM compiler GCC version 9.3.0
REM options -cpp -mtune=generic -march=x86-64 -g -O0
REM seed 892533364 -244475301 664136782 1177438211 -757007596 941991854 -2087570082 -2057522308 -1215149349 930149990 386276793 -2079599486 1584548596 1920997695 883139972 821727276 -1022598094 1026760486 -1367313413 2050640532 -301106259 313339130 1226147315 1932681209 -546284876 1352641079 95028084 1234970822 -1802383314 -351199808 831128674 971751209 1293722445
REM
CELL 1.54180   50.00000   50.00000   50.00000   90.00000   90.00000   90.00000
LATT -1
SFAC C  
C      1  0.4420550000000  0.4830330000000  0.5513100000000 1.0
C      1  0.5588870000000  0.4830310000000  0.4484540000000 1.0
C      1  0.5588870000000  0.5160850000000  0.5513110000000 1.0
C      1  0.4420570000000  0.5160870000000  0.4484530000000 1.0
C      1  0.5234640000000  0.4431190000000  0.4537120000000 1.0
C      1  0.4774770000000  0.4431200000000  0.5460520000000 1.0
C      1  0.4774800000000  0.5559990000000  0.4537120000000 1.0
C      1  0.5234650000000  0.5559980000000  0.5460520000000 1.0
C      1  0.5062870000000  0.4734800000000  0.5698290000000 1.0
C      1  0.4946550000000  0.4734810000000  0.4299350000000 1.0
C      1  0.4946550000000  0.5256370000000  0.5698290000000 1.0
C      1  0.5062890000000  0.5256370000000  0.4299350000000 1.0
C      1  0.4199290000000  0.4965310000000  0.4857730000000 1.0
C      1  0.5810130000000  0.4965270000000  0.5139910000000 1.0
C      1  0.5810140000000  0.5025870000000  0.4857750000000 1.0
C      1  0.4199290000000  0.5025900000000  0.5139900000000 1.0
C      1  0.4689300000000  0.5287710000000  0.4988980000000 1.0
C      1  0.5320140000000  0.5287700000000  0.5008660000000 1.0
C      1  0.5320130000000  0.4703460000000  0.4988990000000 1.0
C      1  0.4689290000000  0.4703480000000  0.5008650000000 1.0
C      1  0.4953480000000  0.4486990000000  0.4505010000000 1.0
C      1  0.5055930000000  0.4486980000000  0.5492630000000 1.0
C      1  0.5055970000000  0.5504190000000  0.4505010000000 1.0
C      1  0.4953490000000  0.5504190000000  0.5492630000000 1.0
C      1  0.5729930000000  0.5194990000000  0.5274660000000 1.0
C      1  0.4279510000000  0.5195020000000  0.4722980000000 1.0
C      1  0.4279490000000  0.4796180000000  0.5274650000000 1.0
C      1  0.5729930000000  0.4796150000000  0.4722990000000 1.0
C      1  0.5190050000000  0.4859630000000  0.4791110000000 1.0
C      1  0.4819370000000  0.4859630000000  0.5206530000000 1.0
C      1  0.4819380000000  0.5131550000000  0.4791100000000 1.0
C      1  0.5190050000000  0.5131540000000  0.5206540000000 1.0
C      1  0.5634660000000  0.4603830000000  0.4932260000000 1.0
C      1  0.4374750000000  0.4603860000000  0.5065380000000 1.0
C      1  0.4374770000000  0.5387340000000  0.4932250000000 1.0
C      1  0.5634680000000  0.5387320000000  0.5065390000000 1.0
C      1  0.4839310000000  0.4439200000000  0.4971640000000 1.0
C      1  0.5170100000000  0.4439190000000  0.5026000000000 1.0
C      1  0.5170120000000  0.5551980000000  0.4971640000000 1.0
C      1  0.4839330000000  0.5551990000000  0.5026000000000 1.0
C      1  0.4724390000000  0.5558980000000  0.5328730000000 1.0
C      1  0.5285070000000  0.5558970000000  0.4668920000000 1.0
C      1  0.5285040000000  0.4432190000000  0.5328730000000 1.0
C      1  0.4724370000000  0.4432210000000  0.4668910000000 1.0
C      1  0.5278930000000  0.4910960000000  0.5755140000000 1.0
C      1  0.4730500000000  0.4910980000000  0.4242510000000 1.0
C      1  0.4730490000000  0.5080210000000  0.5755130000000 1.0
C      1  0.5278950000000  0.5080200000000  0.4242510000000 1.0
C      1  0.5586940000000  0.5658070000000  0.5132630000000 1.0
C      1  0.4422520000000  0.5658090000000  0.4865010000000 1.0
C      1  0.4422490000000  0.4333110000000  0.5132610000000 1.0
C      1  0.5586910000000  0.4333090000000  0.4865020000000 1.0
C      1  0.5289970000000  0.5139770000000  0.4741070000000 1.0
C      1  0.4719470000000  0.5139780000000  0.5256570000000 1.0
C      1  0.4719470000000  0.4851410000000  0.4741070000000 1.0
C      1  0.5289960000000  0.4851400000000  0.5256570000000 1.0
C      1  0.4797740000000  0.5185780000000  0.4231140000000 1.0
C      1  0.5211700000000  0.5185760000000  0.5766510000000 1.0
C      1  0.5211700000000  0.4805400000000  0.4231140000000 1.0
C      1  0.4797720000000  0.4805410000000  0.5766500000000 1.0
C      1  0.4497440000000  0.4667360000000  0.4606020000000 1.0
C      1  0.5511980000000  0.4667330000000  0.5391620000000 1.0
C      1  0.5512000000000  0.5323820000000  0.4606040000000 1.0
C      1  0.4497440000000  0.5323840000000  0.5391610000000 1.0
C      1  0.4966740000000  0.5232270000000  0.5383920000000 1.0
C      1  0.5042700000000  0.5232270000000  0.4613720000000 1.0
C      1  0.5042680000000  0.4758910000000  0.5383920000000 1.0
C      1  0.4966740000000  0.4758910000000  0.4613720000000 1.0
C      1  0.5503220000000  0.5105530000000  0.4413910000000 1.0
C      1  0.4506210000000  0.5105550000000  0.5583730000000 1.0
C      1  0.4506220000000  0.4885650000000  0.4413900000000 1.0
C      1  0.5503200000000  0.4885630000000  0.5583740000000 1.0
C      1  0.4287100000000  0.5289030000000  0.5192630000000 1.0
C      1  0.5722340000000  0.5289000000000  0.4805020000000 1.0
C      1  0.5722320000000  0.4702150000000  0.5192640000000 1.0
C      1  0.4287100000000  0.4702180000000  0.4805000000000 1.0
C      1  0.5322450000000  0.4318700000000  0.4785560000000 1.0
C      1  0.4686950000000  0.4318710000000  0.5212080000000 1.0
C      1  0.4686980000000  0.5672480000000  0.4785560000000 1.0
C      1  0.5322480000000  0.5672460000000  0.5212090000000 1.0
C      1  0.4628030000000  0.4649250000000  0.5597160000000 1.0
C      1  0.5381380000000  0.4649240000000  0.4400480000000 1.0
C      1  0.5381380000000  0.5341920000000  0.5597170000000 1.0
C      1  0.4628060000000  0.5341940000000  0.4400470000000 1.0
C      1  0.5004710000000  0.4995590000000  0.4998820000000 1.0
END
