TITL C-126790-9350-2 0.0732605237280151 125000 -755.681742636201 0 0 107 (C1) n - 1
REM
REM in /rds/project/t2_vol4/rds-t2-cs072/BORA/CARBON/from-Arr/AIRSS/Generating-Clusters/GAP-ML-2020/Higher-Symm/SD-CG/HFTN-CG
REM
REM
REM
REM
REM
REM ./C.cell (b20cbc046b6831c77cfcea5457e17084)
REM AIRSS Version 0.9.1 bugfix July 2018 build 013d7b7c2542+ Fri, 06 Jul 2018 19:26:36 +0100
REM compiler GCC version 9.3.0
REM options -cpp -mtune=generic -march=x86-64 -g -O0
REM seed -49583796 1810387485 1814765538 -1128989858 -625007978 -42962728 1061731873 -948871336 -385949684 -1011977470 -258310964 1198054567 -363145079 1598540189 218819251 -2040241440 -1277621626 1376165703 -1481481863 1033640161 -1866193796 -1882555144 1755331139 531883676 -321475774 -655798206 1306878650 -84491935 -1473972368 -1221017313 -200851466 -2042812028 1511495993
REM
CELL 1.54180   50.00000   50.00000   50.00000   90.00000   90.00000   90.00000
LATT -1
SFAC C  
C      1  0.4932030000000  0.4732430000000  0.5843460000000 1.0
C      1  0.5748410000000  0.4733700000000  0.4635910000000 1.0
C      1  0.4284620000000  0.4738380000000  0.4520970000000 1.0
C      1  0.4462940000000  0.5317980000000  0.5581370000000 1.0
C      1  0.5774780000000  0.5301040000000  0.5179630000000 1.0
C      1  0.4755590000000  0.5315230000000  0.4250340000000 1.0
C      1  0.4969140000000  0.4293790000000  0.4255970000000 1.0
C      1  0.4363350000000  0.4333680000000  0.5371660000000 1.0
C      1  0.5629320000000  0.4315010000000  0.5331370000000 1.0
C      1  0.5533910000000  0.5293400000000  0.5381000000000 1.0
C      1  0.5048910000000  0.5280570000000  0.4352510000000 1.0
C      1  0.4403580000000  0.5311330000000  0.5276250000000 1.0
C      1  0.5211000000000  0.4768040000000  0.5818150000000 1.0
C      1  0.5597050000000  0.4761730000000  0.4401470000000 1.0
C      1  0.4165440000000  0.4786630000000  0.4772400000000 1.0
C      1  0.4990860000000  0.5213190000000  0.4655290000000 1.0
C      1  0.4696800000000  0.5215970000000  0.5160460000000 1.0
C      1  0.5301180000000  0.5222830000000  0.5172810000000 1.0
C      1  0.4860230000000  0.5442600000000  0.5095180000000 1.0
C      1  0.5150450000000  0.5451290000000  0.5083590000000 1.0
C      1  0.4972740000000  0.5449440000000  0.4822080000000 1.0
C      1  0.4332980000000  0.4589740000000  0.5460920000000 1.0
C      1  0.5730900000000  0.4563280000000  0.5347510000000 1.0
C      1  0.4927540000000  0.4568980000000  0.4213410000000 1.0
C      1  0.4808340000000  0.5752690000000  0.5183720000000 1.0
C      1  0.5249320000000  0.5753080000000  0.5065640000000 1.0
C      1  0.4924920000000  0.5753490000000  0.4741290000000 1.0
C      1  0.5920700000000  0.5074890000000  0.5212860000000 1.0
C      1  0.4709190000000  0.5099460000000  0.4094430000000 1.0
C      1  0.4354630000000  0.5095140000000  0.5691270000000 1.0
C      1  0.5362970000000  0.4282720000000  0.5286740000000 1.0
C      1  0.5059920000000  0.4258730000000  0.4516030000000 1.0
C      1  0.4536170000000  0.4270250000000  0.5171070000000 1.0
C      1  0.4817030000000  0.4249350000000  0.5231450000000 1.0
C      1  0.5267100000000  0.4253770000000  0.5019420000000 1.0
C      1  0.4866550000000  0.4236810000000  0.4726940000000 1.0
C      1  0.4498850000000  0.4537310000000  0.4476500000000 1.0
C      1  0.4786010000000  0.4533520000000  0.5683030000000 1.0
C      1  0.5636310000000  0.4570340000000  0.4862490000000 1.0
C      1  0.4115810000000  0.5042990000000  0.4913540000000 1.0
C      1  0.5349900000000  0.5026200000000  0.5796920000000 1.0
C      1  0.5508850000000  0.5019910000000  0.4292830000000 1.0
C      1  0.4554100000000  0.5754850000000  0.5040810000000 1.0
C      1  0.5252430000000  0.5737930000000  0.5355480000000 1.0
C      1  0.5177020000000  0.5724320000000  0.4598340000000 1.0
C      1  0.5512290000000  0.5466300000000  0.4468820000000 1.0
C      1  0.4267690000000  0.5493010000000  0.4822520000000 1.0
C      1  0.5200200000000  0.5475000000000  0.5708360000000 1.0
C      1  0.4817620000000  0.5219600000000  0.5929160000000 1.0
C      1  0.5905620000000  0.5213650000000  0.4693950000000 1.0
C      1  0.4271050000000  0.5225350000000  0.4382080000000 1.0
C      1  0.5419050000000  0.5089590000000  0.4940660000000 1.0
C      1  0.4783980000000  0.5003390000000  0.4727460000000 1.0
C      1  0.4864990000000  0.4984180000000  0.5290440000000 1.0
C      1  0.4357920000000  0.5551580000000  0.5085160000000 1.0
C      1  0.5389640000000  0.5534090000000  0.5509430000000 1.0
C      1  0.5241700000000  0.5517590000000  0.4409730000000 1.0
C      1  0.5939820000000  0.5268120000000  0.4421910000000 1.0
C      1  0.4015840000000  0.5289670000000  0.4480270000000 1.0
C      1  0.5031960000000  0.5275020000000  0.6100080000000 1.0
C      1  0.5166720000000  0.4732040000000  0.4236490000000 1.0
C      1  0.4312610000000  0.4814100000000  0.5266350000000 1.0
C      1  0.5526650000000  0.4752670000000  0.5473290000000 1.0
C      1  0.5912000000000  0.4931800000000  0.4760100000000 1.0
C      1  0.4321850000000  0.4947530000000  0.4330050000000 1.0
C      1  0.4751450000000  0.4944030000000  0.5906980000000 1.0
C      1  0.4504420000000  0.5405080000000  0.4392390000000 1.0
C      1  0.4712200000000  0.5399770000000  0.5723110000000 1.0
C      1  0.5775020000000  0.5397590000000  0.4890640000000 1.0
C      1  0.4305270000000  0.4617820000000  0.4950350000000 1.0
C      1  0.5333860000000  0.4589610000000  0.5645530000000 1.0
C      1  0.5381690000000  0.4581070000000  0.4364930000000 1.0
C      1  0.4629050000000  0.5759830000000  0.4753950000000 1.0
C      1  0.4967290000000  0.5757650000000  0.5435800000000 1.0
C      1  0.5390070000000  0.5745690000000  0.4803470000000 1.0
C      1  0.5236340000000  0.5067910000000  0.4727820000000 1.0
C      1  0.4590100000000  0.5064880000000  0.4919360000000 1.0
C      1  0.5138360000000  0.5009090000000  0.5313600000000 1.0
C      1  0.4501610000000  0.4891040000000  0.5796010000000 1.0
C      1  0.5946440000000  0.4870860000000  0.5033440000000 1.0
C      1  0.4550230000000  0.4894670000000  0.4178090000000 1.0
C      1  0.4458530000000  0.5582160000000  0.4616320000000 1.0
C      1  0.4930120000000  0.5572070000000  0.5646080000000 1.0
C      1  0.5595130000000  0.5565570000000  0.4736090000000 1.0
C      1  0.5223160000000  0.5021610000000  0.4242270000000 1.0
C      1  0.4205240000000  0.5072230000000  0.5190690000000 1.0
C      1  0.5537550000000  0.5040320000000  0.5584450000000 1.0
C      1  0.4096420000000  0.5276490000000  0.4745460000000 1.0
C      1  0.5214600000000  0.5258830000000  0.5891830000000 1.0
C      1  0.5666220000000  0.5249500000000  0.4366460000000 1.0
C      1  0.4917260000000  0.4778210000000  0.4858310000000 1.0
C      1  0.4804580000000  0.4750740000000  0.5123210000000 1.0
C      1  0.5409730000000  0.4787600000000  0.4995480000000 1.0
C      1  0.5830790000000  0.4616220000000  0.5087490000000 1.0
C      1  0.4653580000000  0.4639190000000  0.4258040000000 1.0
C      1  0.4512550000000  0.4631280000000  0.5677100000000 1.0
C      1  0.5185840000000  0.4797680000000  0.4804410000000 1.0
C      1  0.4514890000000  0.4796030000000  0.5065380000000 1.0
C      1  0.5312550000000  0.4777270000000  0.5264300000000 1.0
C      1  0.5200310000000  0.4375820000000  0.5506780000000 1.0
C      1  0.5326750000000  0.4360040000000  0.4548150000000 1.0
C      1  0.4439190000000  0.4363930000000  0.4915370000000 1.0
C      1  0.4921100000000  0.4356690000000  0.5490680000000 1.0
C      1  0.5441320000000  0.4346360000000  0.4805030000000 1.0
C      1  0.4592170000000  0.4344120000000  0.4682070000000 1.0
C      1  0.4982180000000  0.4214330000000  0.4993150000000 1.0
C      1  0.4994780000000  0.5868680000000  0.4995660000000 1.0
END
