TITL C-123285-4455-6 45.4456154651735 125000 -1115.94150914452 0 0 160 (C5) n - 1
REM
REM in /rds/project/t2_vol4/rds-t2-cs072/BORA/CARBON/from-Arr/AIRSS/Generating-Clusters/GAP-ML-2020/Higher-Symm/SD-CG/HFTN-CG
REM
REM
REM
REM
REM
REM ./C.cell (b20cbc046b6831c77cfcea5457e17084)
REM AIRSS Version 0.9.1 bugfix July 2018 build 013d7b7c2542+ Fri, 06 Jul 2018 19:26:36 +0100
REM compiler GCC version 9.3.0
REM options -cpp -mtune=generic -march=x86-64 -g -O0
REM seed 572504595 -527484777 -348044298 1682921544 638665886 537261190 1034654479 -1643028217 -470680168 1617237289 -953283214 62830627 -486478215 -2044056498 1018484026 -1547916375 -2060970097 -906400543 -1379647102 -330693213 -1516114574 461629661 1185134304 -1644944627 1536717478 1543461274 357613592 -1551443221 -1312396022 23879254 330921755 -333378499 -1883708463
REM
CELL 1.54180   50.00000   50.00000   50.00000   90.00000   90.00000   90.00000
LATT -1
SFAC C  
C      1  0.4522700000000  0.4716640000000  0.6015930000000 1.0
C      1  0.4524950000000  0.3945180000000  0.5043540000000 1.0
C      1  0.4527660000000  0.4631590000000  0.4009350000000 1.0
C      1  0.4527090000000  0.5827270000000  0.4342580000000 1.0
C      1  0.4524030000000  0.5879840000000  0.5582720000000 1.0
C      1  0.5325780000000  0.5161940000000  0.4543540000000 1.0
C      1  0.5324680000000  0.5484880000000  0.5013590000000 1.0
C      1  0.5323480000000  0.5137630000000  0.5465970000000 1.0
C      1  0.5323840000000  0.4600080000000  0.5275510000000 1.0
C      1  0.5325260000000  0.4615110000000  0.4705420000000 1.0
C      1  0.4194320000000  0.4733290000000  0.4951390000000 1.0
C      1  0.4194910000000  0.4962040000000  0.4729780000000 1.0
C      1  0.4194600000000  0.5243490000000  0.4878850000000 1.0
C      1  0.4193820000000  0.5188680000000  0.5192580000000 1.0
C      1  0.4193640000000  0.4873370000000  0.5237420000000 1.0
C      1  0.4734810000000  0.4614970000000  0.5852470000000 1.0
C      1  0.4737070000000  0.4069690000000  0.4896740000000 1.0
C      1  0.4739240000000  0.4810140000000  0.4082810000000 1.0
C      1  0.4738340000000  0.5813050000000  0.4535500000000 1.0
C      1  0.4735600000000  0.5692430000000  0.5629220000000 1.0
C      1  0.4412160000000  0.4532150000000  0.4931690000000 1.0
C      1  0.4413230000000  0.4919090000000  0.4532810000000 1.0
C      1  0.4412730000000  0.5418020000000  0.4777560000000 1.0
C      1  0.4411350000000  0.5339440000000  0.5327700000000 1.0
C      1  0.4411000000000  0.4791930000000  0.5422960000000 1.0
C      1  0.4491700000000  0.4498040000000  0.5437490000000 1.0
C      1  0.4493620000000  0.4427690000000  0.4656830000000 1.0
C      1  0.4494540000000  0.5148400000000  0.4348680000000 1.0
C      1  0.4493180000000  0.5664180000000  0.4938900000000 1.0
C      1  0.4491430000000  0.5262240000000  0.5611820000000 1.0
C      1  0.5345230000000  0.5666750000000  0.5245800000000 1.0
C      1  0.5343930000000  0.4973040000000  0.5710730000000 1.0
C      1  0.5345070000000  0.4316480000000  0.5194650000000 1.0
C      1  0.5347070000000  0.4604420000000  0.4410750000000 1.0
C      1  0.5347170000000  0.5438940000000  0.4442360000000 1.0
C      1  0.3792390000000  0.4708190000000  0.4690970000000 1.0
C      1  0.3792660000000  0.5201060000000  0.4624660000000 1.0
C      1  0.3791600000000  0.5416440000000  0.5072920000000 1.0
C      1  0.3790670000000  0.5056670000000  0.5416270000000 1.0
C      1  0.3791160000000  0.4618950000000  0.5180210000000 1.0
C      1  0.5135080000000  0.4215460000000  0.5650480000000 1.0
C      1  0.5138030000000  0.4139220000000  0.4455130000000 1.0
C      1  0.5139360000000  0.5252510000000  0.4013240000000 1.0
C      1  0.5137240000000  0.6016800000000  0.4935490000000 1.0
C      1  0.5134600000000  0.5375870000000  0.5947360000000 1.0
C      1  0.5856420000000  0.4553170000000  0.5468480000000 1.0
C      1  0.5858240000000  0.4418270000000  0.4721460000000 1.0
C      1  0.5859280000000  0.5087040000000  0.4362310000000 1.0
C      1  0.5858090000000  0.5635270000000  0.4887370000000 1.0
C      1  0.5856330000000  0.5305320000000  0.5571020000000 1.0
C      1  0.5501730000000  0.5576100000000  0.5704950000000 1.0
C      1  0.5501350000000  0.4508690000000  0.5766710000000 1.0
C      1  0.5503730000000  0.4120110000000  0.4770620000000 1.0
C      1  0.5505590000000  0.4947360000000  0.4093260000000 1.0
C      1  0.5504350000000  0.5847210000000  0.4670700000000 1.0
C      1  0.5053880000000  0.5757990000000  0.5630790000000 1.0
C      1  0.5052930000000  0.4634440000000  0.5915920000000 1.0
C      1  0.5055230000000  0.4016060000000  0.4935470000000 1.0
C      1  0.5057600000000  0.4757440000000  0.4044390000000 1.0
C      1  0.5056770000000  0.5834010000000  0.4474120000000 1.0
C      1  0.4850810000000  0.4781670000000  0.4841740000000 1.0
C      1  0.4851120000000  0.5082720000000  0.4743170000000 1.0
C      1  0.4850520000000  0.5269500000000  0.4999020000000 1.0
C      1  0.4849840000000  0.5083880000000  0.5255710000000 1.0
C      1  0.4850020000000  0.4782390000000  0.5158510000000 1.0
C      1  0.4814330000000  0.4394580000000  0.4241450000000 1.0
C      1  0.4814700000000  0.5533920000000  0.4189450000000 1.0
C      1  0.4812140000000  0.5935460000000  0.5256960000000 1.0
C      1  0.4810190000000  0.5044280000000  0.5968720000000 1.0
C      1  0.4811540000000  0.4091960000000  0.5341100000000 1.0
C      1  0.4802530000000  0.4898570000000  0.5700860000000 1.0
C      1  0.4803850000000  0.4301670000000  0.5119740000000 1.0
C      1  0.4805780000000  0.4669890000000  0.4372480000000 1.0
C      1  0.4805660000000  0.5494370000000  0.4491760000000 1.0
C      1  0.4803660000000  0.5635710000000  0.5312740000000 1.0
C      1  0.5574450000000  0.5646360000000  0.5430400000000 1.0
C      1  0.5573480000000  0.4791670000000  0.5748830000000 1.0
C      1  0.5575130000000  0.4224720000000  0.5034370000000 1.0
C      1  0.5577120000000  0.4729000000000  0.4274390000000 1.0
C      1  0.5576710000000  0.5607630000000  0.4519150000000 1.0
C      1  0.3892810000000  0.4814270000000  0.5344230000000 1.0
C      1  0.3893800000000  0.4612780000000  0.4927620000000 1.0
C      1  0.3894670000000  0.4946740000000  0.4607240000000 1.0
C      1  0.3894210000000  0.5354640000000  0.4825860000000 1.0
C      1  0.3893070000000  0.5272770000000  0.5281340000000 1.0
C      1  0.4676550000000  0.4191290000000  0.4646760000000 1.0
C      1  0.4678040000000  0.5085330000000  0.4121090000000 1.0
C      1  0.4676500000000  0.5861550000000  0.4808940000000 1.0
C      1  0.4674060000000  0.5447230000000  0.5759710000000 1.0
C      1  0.4674080000000  0.4414950000000  0.5659480000000 1.0
C      1  0.5950870000000  0.5259600000000  0.4571870000000 1.0
C      1  0.5949570000000  0.5489500000000  0.5116420000000 1.0
C      1  0.5948520000000  0.5042640000000  0.5503340000000 1.0
C      1  0.5949160000000  0.4536570000000  0.5197910000000 1.0
C      1  0.5950620000000  0.4670660000000  0.4622230000000 1.0
C      1  0.6059780000000  0.4777450000000  0.5096490000000 1.0
C      1  0.6060480000000  0.4841800000000  0.4820190000000 1.0
C      1  0.6060600000000  0.5124460000000  0.4796010000000 1.0
C      1  0.6059970000000  0.5234810000000  0.5057370000000 1.0
C      1  0.6059470000000  0.5020340000000  0.5243080000000 1.0
C      1  0.4857490000000  0.4212740000000  0.5597230000000 1.0
C      1  0.4860370000000  0.4188410000000  0.4435560000000 1.0
C      1  0.4861550000000  0.5285710000000  0.4053440000000 1.0
C      1  0.4859410000000  0.5988210000000  0.4978950000000 1.0
C      1  0.4856900000000  0.5325080000000  0.5933070000000 1.0
C      1  0.5057610000000  0.4904170000000  0.6054930000000 1.0
C      1  0.5059440000000  0.3967220000000  0.5234960000000 1.0
C      1  0.5062380000000  0.4457520000000  0.4090500000000 1.0
C      1  0.5062370000000  0.5697490000000  0.4203140000000 1.0
C      1  0.5059420000000  0.5973530000000  0.5417220000000 1.0
C      1  0.5240280000000  0.4027350000000  0.4703420000000 1.0
C      1  0.5242260000000  0.4982030000000  0.3983770000000 1.0
C      1  0.5240780000000  0.5961470000000  0.4669340000000 1.0
C      1  0.5237870000000  0.5612120000000  0.5812690000000 1.0
C      1  0.5237560000000  0.4416770000000  0.5833750000000 1.0
C      1  0.5078530000000  0.5542140000000  0.5385870000000 1.0
C      1  0.5077760000000  0.4800720000000  0.5634990000000 1.0
C      1  0.5079210000000  0.4334680000000  0.5006850000000 1.0
C      1  0.5080890000000  0.4788070000000  0.4369510000000 1.0
C      1  0.5080470000000  0.5534320000000  0.4603760000000 1.0
C      1  0.4624200000000  0.4709070000000  0.4607010000000 1.0
C      1  0.4624340000000  0.5283020000000  0.4601140000000 1.0
C      1  0.4623030000000  0.5465960000000  0.5145190000000 1.0
C      1  0.4622080000000  0.5005070000000  0.5487300000000 1.0
C      1  0.4622810000000  0.4537280000000  0.5154680000000 1.0
C      1  0.5069390000000  0.4561400000000  0.4811970000000 1.0
C      1  0.5070200000000  0.5043450000000  0.4524900000000 1.0
C      1  0.5069380000000  0.5465430000000  0.4894640000000 1.0
C      1  0.5068050000000  0.5244180000000  0.5410220000000 1.0
C      1  0.5068060000000  0.4685470000000  0.5359130000000 1.0
C      1  0.5660390000000  0.4387870000000  0.5573860000000 1.0
C      1  0.5662780000000  0.4266530000000  0.4596440000000 1.0
C      1  0.5664010000000  0.5158620000000  0.4178990000000 1.0
C      1  0.5662370000000  0.5831310000000  0.4898420000000 1.0
C      1  0.5660130000000  0.5354960000000  0.5760500000000 1.0
C      1  0.5246390000000  0.4348230000000  0.4281150000000 1.0
C      1  0.5246940000000  0.5482810000000  0.4158470000000 1.0
C      1  0.5244460000000  0.5950080000000  0.5199600000000 1.0
C      1  0.5242380000000  0.5104310000000  0.5965730000000 1.0
C      1  0.5243570000000  0.4114310000000  0.5398100000000 1.0
C      1  0.4372240000000  0.5373480000000  0.4187100000000 1.0
C      1  0.4370080000000  0.5887140000000  0.5102800000000 1.0
C      1  0.4368010000000  0.5174990000000  0.5874280000000 1.0
C      1  0.4368900000000  0.4221190000000  0.5435380000000 1.0
C      1  0.4371510000000  0.4343870000000  0.4392640000000 1.0
C      1  0.5459610000000  0.5242610000000  0.5009000000000 1.0
C      1  0.5459010000000  0.5067430000000  0.5234390000000 1.0
C      1  0.5459190000000  0.4798930000000  0.5137440000000 1.0
C      1  0.5459900000000  0.4808170000000  0.4852120000000 1.0
C      1  0.5460160000000  0.5082380000000  0.4772740000000 1.0
C      1  0.5823950000000  0.5506720000000  0.4628540000000 1.0
C      1  0.5822120000000  0.5511680000000  0.5368710000000 1.0
C      1  0.5821390000000  0.4809270000000  0.5602150000000 1.0
C      1  0.5822770000000  0.4370190000000  0.5006260000000 1.0
C      1  0.5824360000000  0.4801240000000  0.4404530000000 1.0
C      1  0.4510490000000  0.5967980000000  0.5318400000000 1.0
C      1  0.4508540000000  0.4995230000000  0.6018050000000 1.0
C      1  0.4510090000000  0.4029220000000  0.5309120000000 1.0
C      1  0.4512990000000  0.4404940000000  0.4171320000000 1.0
C      1  0.4513240000000  0.5603160000000  0.4177060000000 1.0
END
