TITL C-127512-265-5 14.3475725821287 125000 -602.646796226258 0 0 87 (C1) n - 1
REM
REM in /rds/project/t2_vol4/rds-t2-cs072/BORA/CARBON/from-Arr/AIRSS/Generating-Clusters/GAP-ML-2020/Higher-Symm/SD-CG/HFTN-CG
REM
REM
REM
REM
REM
REM ./C.cell (b20cbc046b6831c77cfcea5457e17084)
REM AIRSS Version 0.9.1 bugfix July 2018 build 013d7b7c2542+ Fri, 06 Jul 2018 19:26:36 +0100
REM compiler GCC version 9.3.0
REM options -cpp -mtune=generic -march=x86-64 -g -O0
REM seed -2089624968 -2094462883 -1552155560 -2078660107 806859002 5154500 -12589297 -1278576419 -1962895138 59808823 -236707284 1014637185 -706385955 -450706997 1797264773 -2115332040 35484963 -1719963528 1613946214 -1305793804 -1319904430 1727702106 1237338170 665006388 -330081529 1977405922 669110381 1642574445 -259159488 1640114745 -1304837116 -156079046 -1529403671
REM
CELL 1.54180   50.00000   50.00000   50.00000   90.00000   90.00000   90.00000
LATT -1
SFAC C  
C      1  0.4791040000000  0.5325360000000  0.5190290000000 1.0
C      1  0.5263530000000  0.5336500000000  0.5064990000000 1.0
C      1  0.4915840000000  0.5333130000000  0.4716180000000 1.0
C      1  0.4861180000000  0.4665800000000  0.5694160000000 1.0
C      1  0.5711680000000  0.4697960000000  0.4777580000000 1.0
C      1  0.4353600000000  0.4791600000000  0.4576400000000 1.0
C      1  0.5395500000000  0.5013480000000  0.5684510000000 1.0
C      1  0.5385820000000  0.5001020000000  0.4303930000000 1.0
C      1  0.4204810000000  0.5015760000000  0.4963250000000 1.0
C      1  0.5645230000000  0.4493670000000  0.4988230000000 1.0
C      1  0.4824740000000  0.4326230000000  0.4597900000000 1.0
C      1  0.4741180000000  0.4456130000000  0.5514320000000 1.0
C      1  0.5513280000000  0.5234780000000  0.4420290000000 1.0
C      1  0.4229160000000  0.5263830000000  0.4818350000000 1.0
C      1  0.5219890000000  0.5235670000000  0.5736110000000 1.0
C      1  0.5255790000000  0.4808010000000  0.5553290000000 1.0
C      1  0.5367340000000  0.4802950000000  0.4500900000000 1.0
C      1  0.4408720000000  0.4824840000000  0.4866150000000 1.0
C      1  0.5743480000000  0.4974330000000  0.4829390000000 1.0
C      1  0.4433240000000  0.5016360000000  0.4432330000000 1.0
C      1  0.4777760000000  0.4937460000000  0.5704180000000 1.0
C      1  0.4802630000000  0.5309610000000  0.4404300000000 1.0
C      1  0.4580550000000  0.5274620000000  0.5434070000000 1.0
C      1  0.5581870000000  0.5303510000000  0.5129960000000 1.0
C      1  0.5633770000000  0.5097300000000  0.5546160000000 1.0
C      1  0.5129330000000  0.5063840000000  0.4187180000000 1.0
C      1  0.4214190000000  0.5061820000000  0.5246720000000 1.0
C      1  0.4765080000000  0.5660020000000  0.5264050000000 1.0
C      1  0.5318590000000  0.5666970000000  0.5049640000000 1.0
C      1  0.4878250000000  0.5672330000000  0.4682050000000 1.0
C      1  0.4688040000000  0.5060400000000  0.4305340000000 1.0
C      1  0.4544000000000  0.5012800000000  0.5557730000000 1.0
C      1  0.5736980000000  0.5058480000000  0.5102520000000 1.0
C      1  0.4995690000000  0.4263250000000  0.5438070000000 1.0
C      1  0.5476900000000  0.4266780000000  0.4824040000000 1.0
C      1  0.4636640000000  0.4243660000000  0.4806170000000 1.0
C      1  0.4287870000000  0.4601830000000  0.5504600000000 1.0
C      1  0.5856590000000  0.4663740000000  0.5364610000000 1.0
C      1  0.4863420000000  0.4609400000000  0.4194350000000 1.0
C      1  0.4347730000000  0.5268040000000  0.4553070000000 1.0
C      1  0.4930270000000  0.5191260000000  0.5744860000000 1.0
C      1  0.5675590000000  0.5213340000000  0.4667620000000 1.0
C      1  0.4570800000000  0.5798240000000  0.5148500000000 1.0
C      1  0.5314440000000  0.5796530000000  0.5282540000000 1.0
C      1  0.5074870000000  0.5795780000000  0.4555050000000 1.0
C      1  0.5066400000000  0.5221500000000  0.5249690000000 1.0
C      1  0.5173920000000  0.5223210000000  0.4795880000000 1.0
C      1  0.4737640000000  0.5217660000000  0.4922550000000 1.0
C      1  0.5280700000000  0.4823310000000  0.5060750000000 1.0
C      1  0.4943880000000  0.4778730000000  0.4757950000000 1.0
C      1  0.4805110000000  0.4803620000000  0.5188780000000 1.0
C      1  0.4317650000000  0.4875940000000  0.5450040000000 1.0
C      1  0.5778260000000  0.4931390000000  0.5353310000000 1.0
C      1  0.4888750000000  0.4889020000000  0.4192600000000 1.0
C      1  0.4904750000000  0.5636420000000  0.5518700000000 1.0
C      1  0.5472950000000  0.5650360000000  0.4798800000000 1.0
C      1  0.4586950000000  0.5668090000000  0.4676770000000 1.0
C      1  0.4716920000000  0.4904980000000  0.4927850000000 1.0
C      1  0.5096230000000  0.4912810000000  0.5270450000000 1.0
C      1  0.5199110000000  0.4919140000000  0.4773420000000 1.0
C      1  0.5010610000000  0.4216060000000  0.5147740000000 1.0
C      1  0.5203040000000  0.4347270000000  0.4955260000000 1.0
C      1  0.4749350000000  0.4293370000000  0.5066360000000 1.0
C      1  0.4449080000000  0.5679900000000  0.4926930000000 1.0
C      1  0.5187800000000  0.5671220000000  0.5501840000000 1.0
C      1  0.5324380000000  0.5669790000000  0.4555860000000 1.0
C      1  0.5821600000000  0.4459300000000  0.5213510000000 1.0
C      1  0.4805890000000  0.4399040000000  0.4328350000000 1.0
C      1  0.4450460000000  0.4405780000000  0.5540310000000 1.0
C      1  0.4298630000000  0.5456000000000  0.5012640000000 1.0
C      1  0.5340970000000  0.5452100000000  0.5592200000000 1.0
C      1  0.5323800000000  0.5443940000000  0.4381380000000 1.0
C      1  0.5180710000000  0.4310940000000  0.5628610000000 1.0
C      1  0.5531380000000  0.4316590000000  0.4563700000000 1.0
C      1  0.4368860000000  0.4297500000000  0.4754390000000 1.0
C      1  0.4314640000000  0.4555140000000  0.4711160000000 1.0
C      1  0.5140540000000  0.4586510000000  0.5685810000000 1.0
C      1  0.5561030000000  0.4602620000000  0.4548580000000 1.0
C      1  0.5366220000000  0.4558930000000  0.5088940000000 1.0
C      1  0.5004710000000  0.4488630000000  0.4746220000000 1.0
C      1  0.4716380000000  0.4535310000000  0.5234130000000 1.0
C      1  0.5070480000000  0.5326720000000  0.4270270000000 1.0
C      1  0.4326840000000  0.5319150000000  0.5277780000000 1.0
C      1  0.5570590000000  0.5345280000000  0.5430800000000 1.0
C      1  0.4538070000000  0.5462750000000  0.4493330000000 1.0
C      1  0.4783920000000  0.5405090000000  0.5633360000000 1.0
C      1  0.5643860000000  0.5430500000000  0.4847030000000 1.0
END
