TITL C-126799-9263-10 0.066499050289983 125000 -228.13656726157 0 0 36 (C1) n - 1
REM
REM in /rds/project/t2_vol4/rds-t2-cs072/BORA/CARBON/from-Arr/AIRSS/Generating-Clusters/GAP-ML-2020/Higher-Symm/SD-CG/HFTN-CG
REM
REM
REM
REM
REM
REM ./C.cell (b20cbc046b6831c77cfcea5457e17084)
REM AIRSS Version 0.9.1 bugfix July 2018 build 013d7b7c2542+ Fri, 06 Jul 2018 19:26:36 +0100
REM compiler GCC version 9.3.0
REM options -cpp -mtune=generic -march=x86-64 -g -O0
REM seed -1292235136 1868625865 1375663785 1692081054 1620324728 1166766648 -153499216 -1020578759 -1748534833 -481335312 -2090677448 1439065416 71327903 -748564672 -409221065 1206347663 2046035926 2087558823 976974280 -1831062657 1200350257 1112473734 -93777798 1789041538 -868985418 -2134375485 -763782924 -946428661 1012019684 706166500 -748637412 -730493846 2119411751
REM
CELL 1.54180   50.00000   50.00000   50.00000   90.00000   90.00000   90.00000
LATT -1
SFAC C  
C      1  0.5283400000000  0.4656590000000  0.5297580000000 1.0
C      1  0.5469100000000  0.5180830000000  0.5335500000000 1.0
C      1  0.5015710000000  0.5496130000000  0.5356770000000 1.0
C      1  0.4573770000000  0.5147560000000  0.5306270000000 1.0
C      1  0.4716300000000  0.4618350000000  0.5360180000000 1.0
C      1  0.5287180000000  0.4638880000000  0.4703660000000 1.0
C      1  0.5432660000000  0.5176840000000  0.4633880000000 1.0
C      1  0.4992930000000  0.5514210000000  0.4706740000000 1.0
C      1  0.4583250000000  0.5144300000000  0.4658300000000 1.0
C      1  0.4743990000000  0.4610990000000  0.4648160000000 1.0
C      1  0.5440870000000  0.4477920000000  0.4900790000000 1.0
C      1  0.5629400000000  0.5209400000000  0.4850640000000 1.0
C      1  0.4979880000000  0.5657450000000  0.4949390000000 1.0
C      1  0.4340010000000  0.5234490000000  0.4832180000000 1.0
C      1  0.4659280000000  0.4501010000000  0.4928690000000 1.0
C      1  0.5464750000000  0.4454310000000  0.5163540000000 1.0
C      1  0.5631600000000  0.5211110000000  0.5097500000000 1.0
C      1  0.4975840000000  0.5747080000000  0.5186500000000 1.0
C      1  0.4401510000000  0.5217380000000  0.5082450000000 1.0
C      1  0.4596000000000  0.4407090000000  0.5171580000000 1.0
C      1  0.5269870000000  0.5391220000000  0.5277440000000 1.0
C      1  0.4820610000000  0.5299930000000  0.5275080000000 1.0
C      1  0.4585910000000  0.4860790000000  0.5288230000000 1.0
C      1  0.4998650000000  0.4621030000000  0.5219250000000 1.0
C      1  0.5336590000000  0.4934830000000  0.5260930000000 1.0
C      1  0.5255300000000  0.5391210000000  0.4725430000000 1.0
C      1  0.4813280000000  0.5285290000000  0.4755270000000 1.0
C      1  0.4605610000000  0.4865640000000  0.4687490000000 1.0
C      1  0.5018080000000  0.4549170000000  0.4722240000000 1.0
C      1  0.5320020000000  0.4926680000000  0.4726350000000 1.0
C      1  0.4631470000000  0.4798730000000  0.4977540000000 1.0
C      1  0.5233450000000  0.4986190000000  0.4993000000000 1.0
C      1  0.4895580000000  0.5199560000000  0.5019010000000 1.0
C      1  0.4939390000000  0.4432360000000  0.4983970000000 1.0
C      1  0.5192200000000  0.5282680000000  0.5001220000000 1.0
C      1  0.4940860000000  0.4888780000000  0.5033490000000 1.0
END
