TITL C-129396-7713-3 74.5645252698805 125000 -1265.79556174253 0 0 179 (C1) n - 1
REM
REM in /rds/project/t2_vol4/rds-t2-cs072/BORA/CARBON/from-Arr/AIRSS/Generating-Clusters/GAP-ML-2020/Higher-Symm/SD-CG/HFTN-CG/C160-200
REM
REM
REM
REM
REM
REM ./C.cell (6b4489405718ea1b717e0baf1da4c2d9)
REM AIRSS Version 0.9.1 bugfix July 2018 build 013d7b7c2542+ Fri, 06 Jul 2018 19:26:36 +0100
REM compiler GCC version 9.3.0
REM options -cpp -mtune=generic -march=x86-64 -g -O0
REM seed -102105829 1490781352 1568152113 483886564 -19192469 236847545 1156776384 -780072631 1754510992 2147211241 41991057 197727774 731036879 -1091216145 -1722731513 -320648512 -505896651 -354283741 793737891 1236840530 1275906999 1425433902 1733008390 -1528119409 -472458008 -1727327570 710514317 -502248392 1434706857 -1748363196 278583483 1146130481 848171712
REM
CELL 1.54180   50.00000   50.00000   50.00000   90.00000   90.00000   90.00000
LATT -1
SFAC C  
C      1  0.4075780000000  0.5096060000000  0.5677390000000 1.0
C      1  0.4209190000000  0.5163080000000  0.4312940000000 1.0
C      1  0.4621380000000  0.4643200000000  0.4638420000000 1.0
C      1  0.5906080000000  0.5039030000000  0.5654790000000 1.0
C      1  0.4019690000000  0.5278080000000  0.5465300000000 1.0
C      1  0.4682810000000  0.4557700000000  0.3949450000000 1.0
C      1  0.5428690000000  0.5705280000000  0.5782200000000 1.0
C      1  0.5538070000000  0.5016340000000  0.4671680000000 1.0
C      1  0.5562510000000  0.4762090000000  0.4818120000000 1.0
C      1  0.5583270000000  0.4989340000000  0.5299350000000 1.0
C      1  0.4693820000000  0.4849660000000  0.3872010000000 1.0
C      1  0.5892410000000  0.4550330000000  0.4501390000000 1.0
C      1  0.4126160000000  0.4565110000000  0.4744010000000 1.0
C      1  0.4862720000000  0.4871850000000  0.4329130000000 1.0
C      1  0.5525450000000  0.4407340000000  0.5583570000000 1.0
C      1  0.5471460000000  0.4936930000000  0.5817540000000 1.0
C      1  0.4152280000000  0.5522090000000  0.5550080000000 1.0
C      1  0.4707640000000  0.5809890000000  0.5797270000000 1.0
C      1  0.5025180000000  0.4264980000000  0.4127150000000 1.0
C      1  0.4525670000000  0.5508040000000  0.4189510000000 1.0
C      1  0.4145380000000  0.4912970000000  0.4437410000000 1.0
C      1  0.4832360000000  0.5036650000000  0.4902900000000 1.0
C      1  0.5097830000000  0.5777460000000  0.4384510000000 1.0
C      1  0.4952620000000  0.4461180000000  0.3925790000000 1.0
C      1  0.5846730000000  0.5192230000000  0.5216230000000 1.0
C      1  0.5310160000000  0.4725860000000  0.5903460000000 1.0
C      1  0.5538590000000  0.4260580000000  0.5331520000000 1.0
C      1  0.5719730000000  0.5652350000000  0.5083740000000 1.0
C      1  0.4963180000000  0.5771320000000  0.5936910000000 1.0
C      1  0.5381760000000  0.5871640000000  0.4466630000000 1.0
C      1  0.4779610000000  0.5542570000000  0.4058470000000 1.0
C      1  0.4042450000000  0.4686210000000  0.5171460000000 1.0
C      1  0.5106610000000  0.5256610000000  0.4431810000000 1.0
C      1  0.4403010000000  0.5247150000000  0.4110060000000 1.0
C      1  0.5839510000000  0.5447190000000  0.5937970000000 1.0
C      1  0.5006660000000  0.6017340000000  0.4572350000000 1.0
C      1  0.4693470000000  0.4766150000000  0.5534230000000 1.0
C      1  0.4689830000000  0.4586650000000  0.5075060000000 1.0
C      1  0.5911740000000  0.5304300000000  0.5705250000000 1.0
C      1  0.5493920000000  0.4231990000000  0.4845500000000 1.0
C      1  0.5043660000000  0.5611550000000  0.4145620000000 1.0
C      1  0.5429180000000  0.5509590000000  0.4708790000000 1.0
C      1  0.5101840000000  0.3925880000000  0.4842030000000 1.0
C      1  0.5147260000000  0.5486550000000  0.5058450000000 1.0
C      1  0.4962470000000  0.4101950000000  0.5611520000000 1.0
C      1  0.4792020000000  0.5307490000000  0.3893970000000 1.0
C      1  0.4561520000000  0.4392820000000  0.4162050000000 1.0
C      1  0.5377640000000  0.5221550000000  0.5844550000000 1.0
C      1  0.5248630000000  0.5013020000000  0.4582830000000 1.0
C      1  0.5278790000000  0.6053380000000  0.4656600000000 1.0
C      1  0.4215570000000  0.5670850000000  0.5315040000000 1.0
C      1  0.5065070000000  0.4986990000000  0.5376870000000 1.0
C      1  0.4076870000000  0.4838910000000  0.4708470000000 1.0
C      1  0.4855890000000  0.4381510000000  0.4911360000000 1.0
C      1  0.4442460000000  0.5294310000000  0.5078670000000 1.0
C      1  0.4909160000000  0.4593260000000  0.6124900000000 1.0
C      1  0.4117960000000  0.4627490000000  0.5438250000000 1.0
C      1  0.5678000000000  0.4880890000000  0.5608660000000 1.0
C      1  0.5144990000000  0.4785640000000  0.4393970000000 1.0
C      1  0.4205820000000  0.5386260000000  0.4476600000000 1.0
C      1  0.4966840000000  0.5048030000000  0.6111520000000 1.0
C      1  0.6060810000000  0.4709230000000  0.5200320000000 1.0
C      1  0.5170300000000  0.5588330000000  0.4795590000000 1.0
C      1  0.5568690000000  0.5470840000000  0.5908570000000 1.0
C      1  0.4409460000000  0.4202900000000  0.4818660000000 1.0
C      1  0.4607900000000  0.4782750000000  0.4397930000000 1.0
C      1  0.5513930000000  0.5242290000000  0.4127870000000 1.0
C      1  0.4757260000000  0.5228270000000  0.5581970000000 1.0
C      1  0.4873190000000  0.5455640000000  0.5153550000000 1.0
C      1  0.4142040000000  0.5635780000000  0.4825600000000 1.0
C      1  0.5302340000000  0.4054190000000  0.4404760000000 1.0
C      1  0.5289260000000  0.5341220000000  0.5563650000000 1.0
C      1  0.5727250000000  0.5294030000000  0.4318580000000 1.0
C      1  0.4677130000000  0.4114550000000  0.4855360000000 1.0
C      1  0.4347010000000  0.5785020000000  0.4650500000000 1.0
C      1  0.5291700000000  0.5223350000000  0.5041750000000 1.0
C      1  0.4470790000000  0.4914400000000  0.5434690000000 1.0
C      1  0.5831900000000  0.5050260000000  0.4464550000000 1.0
C      1  0.5217390000000  0.5841090000000  0.5881640000000 1.0
C      1  0.4050560000000  0.5423090000000  0.4690140000000 1.0
C      1  0.4839570000000  0.5153840000000  0.5190770000000 1.0
C      1  0.4335830000000  0.4457390000000  0.4316210000000 1.0
C      1  0.5073280000000  0.3973200000000  0.4261970000000 1.0
C      1  0.4807910000000  0.4614790000000  0.5329060000000 1.0
C      1  0.4672560000000  0.5989710000000  0.5288440000000 1.0
C      1  0.4546720000000  0.5949280000000  0.4769060000000 1.0
C      1  0.5596460000000  0.5818920000000  0.4895540000000 1.0
C      1  0.4782920000000  0.4273340000000  0.4327970000000 1.0
C      1  0.5075160000000  0.4713810000000  0.5299570000000 1.0
C      1  0.5704160000000  0.4759810000000  0.4121640000000 1.0
C      1  0.4404710000000  0.5875820000000  0.5238570000000 1.0
C      1  0.4843910000000  0.5129380000000  0.4422430000000 1.0
C      1  0.4981800000000  0.5426400000000  0.5615130000000 1.0
C      1  0.4369870000000  0.4206080000000  0.5325780000000 1.0
C      1  0.4087300000000  0.4466350000000  0.5004710000000 1.0
C      1  0.4888640000000  0.4972400000000  0.5609550000000 1.0
C      1  0.4262680000000  0.4244640000000  0.5058430000000 1.0
C      1  0.4270810000000  0.4402190000000  0.5524870000000 1.0
C      1  0.4639290000000  0.5507760000000  0.4975890000000 1.0
C      1  0.4676710000000  0.4105820000000  0.5665720000000 1.0
C      1  0.5217960000000  0.4718890000000  0.5054850000000 1.0
C      1  0.5788280000000  0.4283820000000  0.4921490000000 1.0
C      1  0.4015300000000  0.5224600000000  0.5177380000000 1.0
C      1  0.5502130000000  0.4779810000000  0.5089460000000 1.0
C      1  0.6032390000000  0.5133830000000  0.4662570000000 1.0
C      1  0.5306060000000  0.4756670000000  0.4107890000000 1.0
C      1  0.4877290000000  0.4451930000000  0.4613280000000 1.0
C      1  0.4450290000000  0.5566430000000  0.4474020000000 1.0
C      1  0.4528110000000  0.5790090000000  0.5003920000000 1.0
C      1  0.5272810000000  0.4324130000000  0.4280760000000 1.0
C      1  0.5372000000000  0.6003580000000  0.4922440000000 1.0
C      1  0.4861120000000  0.4390620000000  0.5957420000000 1.0
C      1  0.6060690000000  0.4999030000000  0.5149220000000 1.0
C      1  0.4810630000000  0.6043750000000  0.4773890000000 1.0
C      1  0.5880280000000  0.4787600000000  0.4343920000000 1.0
C      1  0.4334620000000  0.4749390000000  0.5858720000000 1.0
C      1  0.5915170000000  0.4526970000000  0.5351870000000 1.0
C      1  0.5314330000000  0.4465450000000  0.5766970000000 1.0
C      1  0.4387140000000  0.4467740000000  0.5790920000000 1.0
C      1  0.5087850000000  0.4789560000000  0.6084230000000 1.0
C      1  0.5522840000000  0.5273250000000  0.4853150000000 1.0
C      1  0.5791850000000  0.4310270000000  0.5204800000000 1.0
C      1  0.5785820000000  0.5382690000000  0.4974900000000 1.0
C      1  0.5423110000000  0.5628030000000  0.5490070000000 1.0
C      1  0.5078020000000  0.4303260000000  0.5783480000000 1.0
C      1  0.5330040000000  0.4215710000000  0.5120540000000 1.0
C      1  0.6114380000000  0.4957480000000  0.4865380000000 1.0
C      1  0.4673570000000  0.5124360000000  0.6102210000000 1.0
C      1  0.5045030000000  0.5189250000000  0.3900810000000 1.0
C      1  0.6098840000000  0.4667510000000  0.4916000000000 1.0
C      1  0.4846710000000  0.3939430000000  0.4704010000000 1.0
C      1  0.4090450000000  0.4954090000000  0.5024170000000 1.0
C      1  0.5519080000000  0.4963560000000  0.4056840000000 1.0
C      1  0.4285470000000  0.5480780000000  0.5811130000000 1.0
C      1  0.5790720000000  0.5509510000000  0.4502100000000 1.0
C      1  0.4196990000000  0.4844920000000  0.5615020000000 1.0
C      1  0.4846200000000  0.3992020000000  0.4424080000000 1.0
C      1  0.5169940000000  0.5974000000000  0.5129620000000 1.0
C      1  0.5505460000000  0.4529270000000  0.4184400000000 1.0
C      1  0.4974160000000  0.4915270000000  0.3828150000000 1.0
C      1  0.4237690000000  0.5205790000000  0.5885520000000 1.0
C      1  0.5958370000000  0.4468540000000  0.4767930000000 1.0
C      1  0.4419570000000  0.4999860000000  0.6000970000000 1.0
C      1  0.4695010000000  0.5407080000000  0.6044290000000 1.0
C      1  0.5130860000000  0.4986320000000  0.4879380000000 1.0
C      1  0.4609210000000  0.4056360000000  0.5394370000000 1.0
C      1  0.5860050000000  0.5389270000000  0.5438040000000 1.0
C      1  0.5211010000000  0.5330740000000  0.4133210000000 1.0
C      1  0.4322670000000  0.4743390000000  0.4298640000000 1.0
C      1  0.5203440000000  0.5722930000000  0.5294770000000 1.0
C      1  0.4962750000000  0.5472480000000  0.5943690000000 1.0
C      1  0.5737080000000  0.4592860000000  0.5566090000000 1.0
C      1  0.5333940000000  0.4024540000000  0.4689270000000 1.0
C      1  0.4355530000000  0.4432070000000  0.4620470000000 1.0
C      1  0.4373750000000  0.5021190000000  0.4949850000000 1.0
C      1  0.4721610000000  0.5186890000000  0.4669020000000 1.0
C      1  0.4578580000000  0.5168000000000  0.5337490000000 1.0
C      1  0.5133430000000  0.4437090000000  0.5023020000000 1.0
C      1  0.4940340000000  0.5641020000000  0.5416690000000 1.0
C      1  0.4919090000000  0.4014270000000  0.5334720000000 1.0
C      1  0.5445650000000  0.4501570000000  0.4672690000000 1.0
C      1  0.5126320000000  0.4684480000000  0.3885220000000 1.0
C      1  0.5000420000000  0.5529390000000  0.4578040000000 1.0
C      1  0.5691840000000  0.5609140000000  0.5365800000000 1.0
C      1  0.4575820000000  0.5113660000000  0.3919530000000 1.0
C      1  0.5135930000000  0.5254590000000  0.6024470000000 1.0
C      1  0.4894590000000  0.6044260000000  0.5077680000000 1.0
C      1  0.5596010000000  0.5715350000000  0.4600670000000 1.0
C      1  0.5168770000000  0.4516790000000  0.4519860000000 1.0
C      1  0.5324040000000  0.5137930000000  0.5336010000000 1.0
C      1  0.4605560000000  0.4297800000000  0.5857270000000 1.0
C      1  0.5629410000000  0.4479050000000  0.4439850000000 1.0
C      1  0.4526910000000  0.5600290000000  0.5911610000000 1.0
C      1  0.4767580000000  0.5858240000000  0.5517680000000 1.0
C      1  0.4703880000000  0.5472680000000  0.4676470000000 1.0
C      1  0.4615300000000  0.4814780000000  0.4902730000000 1.0
C      1  0.5116750000000  0.3991940000000  0.5125550000000 1.0
C      1  0.4165070000000  0.5471700000000  0.5086160000000 1.0
C      1  0.5946820000000  0.5396250000000  0.4718960000000 1.0
END
