TITL C-123285-4455-4 -56.2611848967369 125000 -562.090880863896 0 0 85 (C1) n - 1
REM
REM in /rds/project/t2_vol4/rds-t2-cs072/BORA/CARBON/from-Arr/AIRSS/Generating-Clusters/GAP-ML-2020/Higher-Symm/SD-CG/HFTN-CG
REM
REM
REM
REM
REM
REM ./C.cell (b20cbc046b6831c77cfcea5457e17084)
REM AIRSS Version 0.9.1 bugfix July 2018 build 013d7b7c2542+ Fri, 06 Jul 2018 19:26:36 +0100
REM compiler GCC version 9.3.0
REM options -cpp -mtune=generic -march=x86-64 -g -O0
REM seed -1042746856 1431815160 -1226362766 1902557238 668224009 -1644311284 579604958 401995495 182031720 -318056345 61280654 -1030379675 -1675041371 124250136 -2005558794 62327216 1604812229 685650766 1022410022 -836206244 -538670 393027397 -924732487 -691374150 981546350 989980729 490561591 -1850627612 524111505 -1004446606 -698964247 -910727804 1436897801
REM
CELL 1.54180   50.00000   50.00000   50.00000   90.00000   90.00000   90.00000
LATT -1
SFAC C  
C      1  0.5134420000000  0.5097840000000  0.4214990000000 1.0
C      1  0.5136800000000  0.5790310000000  0.5098730000000 1.0
C      1  0.5139240000000  0.4901490000000  0.5688860000000 1.0
C      1  0.5196270000000  0.4308200000000  0.4894630000000 1.0
C      1  0.4836200000000  0.5101050000000  0.4223330000000 1.0
C      1  0.4838120000000  0.5701990000000  0.5091190000000 1.0
C      1  0.4708480000000  0.4910650000000  0.5764460000000 1.0
C      1  0.4777620000000  0.4302710000000  0.4943460000000 1.0
C      1  0.4614250000000  0.4859500000000  0.5186100000000 1.0
C      1  0.4653030000000  0.4812630000000  0.4886340000000 1.0
C      1  0.4657920000000  0.5108930000000  0.4836440000000 1.0
C      1  0.4626350000000  0.5155980000000  0.5141540000000 1.0
C      1  0.5323280000000  0.4807460000000  0.5165440000000 1.0
C      1  0.5374980000000  0.4794320000000  0.4838870000000 1.0
C      1  0.5385060000000  0.5106840000000  0.4845300000000 1.0
C      1  0.5250470000000  0.5086800000000  0.5124260000000 1.0
C      1  0.5136470000000  0.5717800000000  0.5385600000000 1.0
C      1  0.5080630000000  0.4620040000000  0.5737040000000 1.0
C      1  0.5091120000000  0.4283740000000  0.4620950000000 1.0
C      1  0.5130760000000  0.5399220000000  0.4282890000000 1.0
C      1  0.4837150000000  0.5693790000000  0.5388540000000 1.0
C      1  0.4779390000000  0.4618520000000  0.5765260000000 1.0
C      1  0.4798840000000  0.4300670000000  0.4651650000000 1.0
C      1  0.4833820000000  0.5381460000000  0.4310610000000 1.0
C      1  0.5251180000000  0.5463770000000  0.5486570000000 1.0
C      1  0.5179520000000  0.4479770000000  0.5517210000000 1.0
C      1  0.5181460000000  0.4504050000000  0.4471530000000 1.0
C      1  0.5260360000000  0.5497320000000  0.4530990000000 1.0
C      1  0.4723550000000  0.5460500000000  0.5523170000000 1.0
C      1  0.4699520000000  0.4498410000000  0.5502350000000 1.0
C      1  0.4683910000000  0.4487660000000  0.4463380000000 1.0
C      1  0.4676330000000  0.5542930000000  0.4484650000000 1.0
C      1  0.5348660000000  0.4247540000000  0.5132640000000 1.0
C      1  0.5317060000000  0.4864240000000  0.4205720000000 1.0
C      1  0.5286800000000  0.5772900000000  0.4858040000000 1.0
C      1  0.5306840000000  0.5126580000000  0.5728310000000 1.0
C      1  0.4642350000000  0.4238310000000  0.5177080000000 1.0
C      1  0.4690580000000  0.4853850000000  0.4252300000000 1.0
C      1  0.4669080000000  0.5746070000000  0.4856880000000 1.0
C      1  0.4615750000000  0.5167950000000  0.5811330000000 1.0
C      1  0.4311070000000  0.5168770000000  0.5375010000000 1.0
C      1  0.4317990000000  0.4644260000000  0.5165000000000 1.0
C      1  0.4324730000000  0.4841530000000  0.4643310000000 1.0
C      1  0.4318450000000  0.5351490000000  0.4844950000000 1.0
C      1  0.5655620000000  0.5138360000000  0.5325680000000 1.0
C      1  0.5711480000000  0.4638730000000  0.5082580000000 1.0
C      1  0.5700320000000  0.4889270000000  0.4585160000000 1.0
C      1  0.5674410000000  0.5389830000000  0.4869010000000 1.0
C      1  0.5149710000000  0.4758750000000  0.4638630000000 1.0
C      1  0.5177540000000  0.5225440000000  0.4667050000000 1.0
C      1  0.5102420000000  0.5311550000000  0.5256570000000 1.0
C      1  0.5098410000000  0.4627310000000  0.5259350000000 1.0
C      1  0.4942810000000  0.4735580000000  0.4845790000000 1.0
C      1  0.4931520000000  0.5240190000000  0.4836070000000 1.0
C      1  0.4836810000000  0.5224010000000  0.5361140000000 1.0
C      1  0.4830410000000  0.4745140000000  0.5355310000000 1.0
C      1  0.5650120000000  0.4709370000000  0.4806590000000 1.0
C      1  0.5660290000000  0.5129950000000  0.4757750000000 1.0
C      1  0.5744090000000  0.5314360000000  0.5131510000000 1.0
C      1  0.5601280000000  0.4852390000000  0.5244040000000 1.0
C      1  0.4379620000000  0.4685650000000  0.4873860000000 1.0
C      1  0.4381850000000  0.5119160000000  0.4705070000000 1.0
C      1  0.4365780000000  0.5288780000000  0.5127270000000 1.0
C      1  0.4338420000000  0.4879450000000  0.5319150000000 1.0
C      1  0.5479110000000  0.5576070000000  0.4753230000000 1.0
C      1  0.5481360000000  0.5246580000000  0.5529140000000 1.0
C      1  0.5564130000000  0.4409960000000  0.5145980000000 1.0
C      1  0.5547650000000  0.4857490000000  0.4364880000000 1.0
C      1  0.4496300000000  0.5545880000000  0.4734410000000 1.0
C      1  0.4469940000000  0.5283970000000  0.5583530000000 1.0
C      1  0.4467520000000  0.4434090000000  0.5296410000000 1.0
C      1  0.4503240000000  0.4732580000000  0.4442690000000 1.0
C      1  0.5135780000000  0.4241480000000  0.5384240000000 1.0
C      1  0.5143220000000  0.4609090000000  0.4216590000000 1.0
C      1  0.5113900000000  0.5738550000000  0.4621760000000 1.0
C      1  0.5121880000000  0.5360710000000  0.5739480000000 1.0
C      1  0.4849300000000  0.4254780000000  0.5396060000000 1.0
C      1  0.4864930000000  0.4618110000000  0.4266260000000 1.0
C      1  0.4839490000000  0.5749430000000  0.4618060000000 1.0
C      1  0.4846950000000  0.5374400000000  0.5778120000000 1.0
C      1  0.4887230000000  0.4971820000000  0.5533950000000 1.0
C      1  0.4979520000000  0.5445640000000  0.5034520000000 1.0
C      1  0.5000820000000  0.4494950000000  0.5003170000000 1.0
C      1  0.5117290000000  0.5007160000000  0.4493280000000 1.0
C      1  0.5010590000000  0.4993860000000  0.4983750000000 1.0
END
