TITL C-129392-7843-3 -153.759400509783 125000 -1299.48035788767 0 0 190 (C1) n - 1
REM
REM in /rds/project/t2_vol4/rds-t2-cs072/BORA/CARBON/from-Arr/AIRSS/Generating-Clusters/GAP-ML-2020/Higher-Symm/SD-CG/HFTN-CG/C160-200
REM
REM
REM
REM
REM
REM ./C.cell (6b4489405718ea1b717e0baf1da4c2d9)
REM AIRSS Version 0.9.1 bugfix July 2018 build 013d7b7c2542+ Fri, 06 Jul 2018 19:26:36 +0100
REM compiler GCC version 9.3.0
REM options -cpp -mtune=generic -march=x86-64 -g -O0
REM seed 1579442484 2041517031 1585728940 557027150 -1199016495 569711098 -2027792126 -1909856281 496587202 807617386 503100297 -276338990 1782974481 -426597412 1710508061 -1901458264 -1250086836 -855702177 -78943022 -1386084360 -150054820 -47653929 1837740166 659497855 -1891642273 -1000860660 -1101307653 1319711395 416254340 410360203 1604538911 164058557 993229942
REM
CELL 1.54180   50.00000   50.00000   50.00000   90.00000   90.00000   90.00000
LATT -1
SFAC C  
C      1  0.5053140000000  0.4795140000000  0.4411070000000 1.0
C      1  0.5060250000000  0.4350060000000  0.5039090000000 1.0
C      1  0.5055000000000  0.4819410000000  0.5631340000000 1.0
C      1  0.5051760000000  0.5534040000000  0.5351730000000 1.0
C      1  0.5066700000000  0.5484820000000  0.4615040000000 1.0
C      1  0.5593310000000  0.5066810000000  0.5994420000000 1.0
C      1  0.5592880000000  0.5961500000000  0.5242350000000 1.0
C      1  0.5593260000000  0.5531170000000  0.4163660000000 1.0
C      1  0.5591260000000  0.4375990000000  0.4233000000000 1.0
C      1  0.5591870000000  0.4073060000000  0.5368340000000 1.0
C      1  0.4769880000000  0.5887370000000  0.4334130000000 1.0
C      1  0.4775770000000  0.4657580000000  0.3920030000000 1.0
C      1  0.4808370000000  0.3875840000000  0.5014980000000 1.0
C      1  0.4816590000000  0.4683700000000  0.6084320000000 1.0
C      1  0.4812210000000  0.5928500000000  0.5617580000000 1.0
C      1  0.4281990000000  0.4700840000000  0.4423520000000 1.0
C      1  0.4207410000000  0.4340160000000  0.5124810000000 1.0
C      1  0.4212600000000  0.4911020000000  0.5661200000000 1.0
C      1  0.4210560000000  0.5596990000000  0.5280780000000 1.0
C      1  0.4219020000000  0.5453780000000  0.4520760000000 1.0
C      1  0.4417880000000  0.5002290000000  0.4088070000000 1.0
C      1  0.4403440000000  0.4175560000000  0.4699980000000 1.0
C      1  0.4415320000000  0.4460920000000  0.5698790000000 1.0
C      1  0.4415520000000  0.5495300000000  0.5717680000000 1.0
C      1  0.4415670000000  0.5846780000000  0.4711790000000 1.0
C      1  0.5088370000000  0.4001640000000  0.5406160000000 1.0
C      1  0.5091670000000  0.5083000000000  0.6070000000000 1.0
C      1  0.5085890000000  0.6021900000000  0.5238330000000 1.0
C      1  0.5088530000000  0.5558080000000  0.4113550000000 1.0
C      1  0.5080500000000  0.4338450000000  0.4196530000000 1.0
C      1  0.3961740000000  0.5236360000000  0.4997720000000 1.0
C      1  0.3965980000000  0.5074250000000  0.4760600000000 1.0
C      1  0.3974640000000  0.4802090000000  0.4843740000000 1.0
C      1  0.3965990000000  0.4795770000000  0.5130780000000 1.0
C      1  0.3962590000000  0.5064610000000  0.5225250000000 1.0
C      1  0.4397200000000  0.5249110000000  0.4988800000000 1.0
C      1  0.4401240000000  0.5056660000000  0.4755760000000 1.0
C      1  0.4420470000000  0.4763930000000  0.4865810000000 1.0
C      1  0.4409810000000  0.4789920000000  0.5173890000000 1.0
C      1  0.4403670000000  0.5091280000000  0.5247980000000 1.0
C      1  0.4403950000000  0.5000410000000  0.5848210000000 1.0
C      1  0.4408750000000  0.5797910000000  0.5243240000000 1.0
C      1  0.4439050000000  0.5553970000000  0.4349540000000 1.0
C      1  0.4414070000000  0.4545060000000  0.4186480000000 1.0
C      1  0.4407050000000  0.4199070000000  0.5267310000000 1.0
C      1  0.5841800000000  0.5108330000000  0.4356660000000 1.0
C      1  0.5839620000000  0.4424040000000  0.4701910000000 1.0
C      1  0.5840070000000  0.4530940000000  0.5460190000000 1.0
C      1  0.5837790000000  0.5286640000000  0.5583940000000 1.0
C      1  0.5836980000000  0.5643280000000  0.4905800000000 1.0
C      1  0.5348150000000  0.5595910000000  0.4696210000000 1.0
C      1  0.5340950000000  0.4893950000000  0.4333900000000 1.0
C      1  0.5335290000000  0.4322540000000  0.4895190000000 1.0
C      1  0.5338060000000  0.4680950000000  0.5618770000000 1.0
C      1  0.5334430000000  0.5481980000000  0.5487610000000 1.0
C      1  0.4745810000000  0.4744910000000  0.5615530000000 1.0
C      1  0.4748030000000  0.5505590000000  0.5417580000000 1.0
C      1  0.4792920000000  0.5548340000000  0.4712510000000 1.0
C      1  0.4780300000000  0.4920010000000  0.4379540000000 1.0
C      1  0.4757840000000  0.4337680000000  0.4968330000000 1.0
C      1  0.4827470000000  0.5692620000000  0.4127850000000 1.0
C      1  0.4833830000000  0.4397470000000  0.4047400000000 1.0
C      1  0.4829810000000  0.3898250000000  0.5295420000000 1.0
C      1  0.4833130000000  0.4955690000000  0.6147930000000 1.0
C      1  0.4826730000000  0.6057020000000  0.5368700000000 1.0
C      1  0.4503660000000  0.4741330000000  0.3997660000000 1.0
C      1  0.4631990000000  0.4073190000000  0.4865490000000 1.0
C      1  0.4631870000000  0.4585680000000  0.5861740000000 1.0
C      1  0.4630720000000  0.5687590000000  0.5646970000000 1.0
C      1  0.4509110000000  0.5825320000000  0.4443140000000 1.0
C      1  0.4226100000000  0.5424320000000  0.5512200000000 1.0
C      1  0.4225440000000  0.5619020000000  0.4752150000000 1.0
C      1  0.4240270000000  0.4967340000000  0.4322800000000 1.0
C      1  0.4219740000000  0.4347480000000  0.4831960000000 1.0
C      1  0.4225530000000  0.4635030000000  0.5569190000000 1.0
C      1  0.5651770000000  0.4642110000000  0.4135840000000 1.0
C      1  0.5652540000000  0.4064830000000  0.5081500000000 1.0
C      1  0.5657070000000  0.4790650000000  0.5918470000000 1.0
C      1  0.5658370000000  0.5801350000000  0.5477080000000 1.0
C      1  0.5654680000000  0.5704040000000  0.4387520000000 1.0
C      1  0.5370850000000  0.5159590000000  0.4825780000000 1.0
C      1  0.5365270000000  0.4866280000000  0.4791420000000 1.0
C      1  0.5363720000000  0.4744610000000  0.5061590000000 1.0
C      1  0.5361320000000  0.4963680000000  0.5262400000000 1.0
C      1  0.5363170000000  0.5221040000000  0.5115310000000 1.0
C      1  0.4879200000000  0.5057120000000  0.4775510000000 1.0
C      1  0.4889830000000  0.4764170000000  0.4876600000000 1.0
C      1  0.4883160000000  0.4784690000000  0.5189740000000 1.0
C      1  0.4883000000000  0.5093940000000  0.5266430000000 1.0
C      1  0.4878880000000  0.5244830000000  0.5002320000000 1.0
C      1  0.5255850000000  0.4368960000000  0.5974810000000 1.0
C      1  0.5253970000000  0.5733930000000  0.5889230000000 1.0
C      1  0.5229640000000  0.6060290000000  0.4590450000000 1.0
C      1  0.5230260000000  0.4954010000000  0.3858130000000 1.0
C      1  0.5245810000000  0.3897430000000  0.4687300000000 1.0
C      1  0.4811730000000  0.5206120000000  0.5757250000000 1.0
C      1  0.4820630000000  0.5756830000000  0.4962460000000 1.0
C      1  0.4815970000000  0.5213490000000  0.4276550000000 1.0
C      1  0.4745450000000  0.4470770000000  0.4533580000000 1.0
C      1  0.4821490000000  0.4335680000000  0.5447630000000 1.0
C      1  0.5600830000000  0.6020670000000  0.4776100000000 1.0
C      1  0.5601380000000  0.5109870000000  0.3959710000000 1.0
C      1  0.5607470000000  0.4052760000000  0.4570970000000 1.0
C      1  0.5613610000000  0.4295870000000  0.5784460000000 1.0
C      1  0.5610700000000  0.5527240000000  0.5903390000000 1.0
C      1  0.5775460000000  0.4681610000000  0.4593350000000 1.0
C      1  0.5781950000000  0.4514580000000  0.5178630000000 1.0
C      1  0.5778880000000  0.5012970000000  0.5516230000000 1.0
C      1  0.5780440000000  0.5487130000000  0.5142330000000 1.0
C      1  0.5786690000000  0.5285220000000  0.4578670000000 1.0
C      1  0.5491270000000  0.5314970000000  0.4615280000000 1.0
C      1  0.5476800000000  0.4716040000000  0.4573870000000 1.0
C      1  0.5486540000000  0.4499440000000  0.5137450000000 1.0
C      1  0.5482410000000  0.4965610000000  0.5519720000000 1.0
C      1  0.5483600000000  0.5469340000000  0.5191440000000 1.0
C      1  0.4583940000000  0.4306170000000  0.4180400000000 1.0
C      1  0.4577740000000  0.4016900000000  0.5426970000000 1.0
C      1  0.4579330000000  0.5109020000000  0.6063820000000 1.0
C      1  0.4577360000000  0.6031040000000  0.5197950000000 1.0
C      1  0.4586710000000  0.5525920000000  0.4089960000000 1.0
C      1  0.5076320000000  0.4863330000000  0.4687270000000 1.0
C      1  0.5077800000000  0.4635180000000  0.5054060000000 1.0
C      1  0.5072400000000  0.4912510000000  0.5362340000000 1.0
C      1  0.5075820000000  0.5299310000000  0.5193090000000 1.0
C      1  0.5082410000000  0.5252250000000  0.4777220000000 1.0
C      1  0.4627080000000  0.5227660000000  0.4029710000000 1.0
C      1  0.4607820000000  0.4204280000000  0.4468010000000 1.0
C      1  0.4628160000000  0.4225110000000  0.5650370000000 1.0
C      1  0.4628510000000  0.5377320000000  0.5923320000000 1.0
C      1  0.4626420000000  0.5990360000000  0.4891900000000 1.0
C      1  0.5081660000000  0.5352270000000  0.4335090000000 1.0
C      1  0.5048460000000  0.4497020000000  0.4451260000000 1.0
C      1  0.5089190000000  0.4284310000000  0.5336240000000 1.0
C      1  0.5081500000000  0.5088620000000  0.5776290000000 1.0
C      1  0.5079450000000  0.5746100000000  0.5124900000000 1.0
C      1  0.4643840000000  0.4383700000000  0.5229670000000 1.0
C      1  0.4631690000000  0.5010590000000  0.5653020000000 1.0
C      1  0.4641100000000  0.5622770000000  0.5171730000000 1.0
C      1  0.4658530000000  0.5376590000000  0.4488920000000 1.0
C      1  0.4598000000000  0.4681800000000  0.4408180000000 1.0
C      1  0.4657100000000  0.5188250000000  0.5412390000000 1.0
C      1  0.4652160000000  0.5411910000000  0.4967570000000 1.0
C      1  0.4656230000000  0.5099060000000  0.4606190000000 1.0
C      1  0.4683630000000  0.4583270000000  0.4798790000000 1.0
C      1  0.4657940000000  0.4666130000000  0.5316160000000 1.0
C      1  0.4969260000000  0.3858260000000  0.4759510000000 1.0
C      1  0.4980300000000  0.4431570000000  0.6039930000000 1.0
C      1  0.4979260000000  0.5814820000000  0.5845720000000 1.0
C      1  0.4946430000000  0.6061120000000  0.4507670000000 1.0
C      1  0.4947240000000  0.4883150000000  0.3826510000000 1.0
C      1  0.5472960000000  0.4038640000000  0.4844850000000 1.0
C      1  0.5478750000000  0.4555800000000  0.5876990000000 1.0
C      1  0.5476360000000  0.5691520000000  0.5683910000000 1.0
C      1  0.5464100000000  0.5857140000000  0.4557930000000 1.0
C      1  0.5461030000000  0.4850680000000  0.4042600000000 1.0
C      1  0.5836980000000  0.5561380000000  0.4630020000000 1.0
C      1  0.5832450000000  0.4821310000000  0.4348360000000 1.0
C      1  0.5830680000000  0.4325390000000  0.4972210000000 1.0
C      1  0.5834410000000  0.4760420000000  0.5634910000000 1.0
C      1  0.5833940000000  0.5522830000000  0.5418690000000 1.0
C      1  0.5742980000000  0.5275170000000  0.4135220000000 1.0
C      1  0.5740900000000  0.4274850000000  0.4469730000000 1.0
C      1  0.5745360000000  0.4263930000000  0.5539230000000 1.0
C      1  0.5743620000000  0.5284410000000  0.5861570000000 1.0
C      1  0.5740300000000  0.5906730000000  0.4991300000000 1.0
C      1  0.5341470000000  0.5499820000000  0.3991100000000 1.0
C      1  0.5338960000000  0.4207710000000  0.4217520000000 1.0
C      1  0.5341070000000  0.3995870000000  0.5538140000000 1.0
C      1  0.5343410000000  0.5207540000000  0.6120300000000 1.0
C      1  0.5340080000000  0.6118140000000  0.5151880000000 1.0
C      1  0.5312300000000  0.4462430000000  0.4622190000000 1.0
C      1  0.5337480000000  0.4455750000000  0.5403280000000 1.0
C      1  0.5330220000000  0.5207090000000  0.5636460000000 1.0
C      1  0.5337590000000  0.5651900000000  0.4994910000000 1.0
C      1  0.5341830000000  0.5194380000000  0.4377490000000 1.0
C      1  0.4161120000000  0.5460030000000  0.5007380000000 1.0
C      1  0.4167540000000  0.5153110000000  0.4550970000000 1.0
C      1  0.4185440000000  0.4626860000000  0.4715030000000 1.0
C      1  0.4163700000000  0.4612790000000  0.5265270000000 1.0
C      1  0.4162960000000  0.5129500000000  0.5441850000000 1.0
C      1  0.5366410000000  0.3996800000000  0.4429510000000 1.0
C      1  0.5371990000000  0.4146980000000  0.5799490000000 1.0
C      1  0.5371250000000  0.5500820000000  0.6052150000000 1.0
C      1  0.5360080000000  0.6149190000000  0.4851020000000 1.0
C      1  0.5361760000000  0.5226650000000  0.3862600000000 1.0
C      1  0.4770330000000  0.5089930000000  0.3825180000000 1.0
C      1  0.4762190000000  0.3989810000000  0.4608040000000 1.0
C      1  0.4760970000000  0.4311500000000  0.5899330000000 1.0
C      1  0.4761750000000  0.5641630000000  0.5917370000000 1.0
C      1  0.4764570000000  0.6137670000000  0.4693050000000 1.0
END
