TITL C-122874-6481-3 49.4301182366865 125000 -305.382895932379 0 0 46 (Cs) n - 1
REM
REM in /rds/project/t2_vol4/rds-t2-cs072/BORA/CARBON/from-Arr/AIRSS/Generating-Clusters/GAP-ML-2020/Higher-Symm/SD-CG/HFTN-CG
REM
REM
REM
REM
REM
REM ./C.cell (b20cbc046b6831c77cfcea5457e17084)
REM AIRSS Version 0.9.1 bugfix July 2018 build 013d7b7c2542+ Fri, 06 Jul 2018 19:26:36 +0100
REM compiler GCC version 9.3.0
REM options -cpp -mtune=generic -march=x86-64 -g -O0
REM seed -122153375 -2036027438 671848252 -1698612056 -850042436 -865492296 542807353 -676170868 -1197635503 -2057750871 -938233651 -473940018 -1250200274 -1141899806 1369288509 -1008865365 1196162071 -777983614 853943705 -995154861 -1122008310 1688551768 -1377511423 -364560628 1563737409 -1191585340 484695620 -1085279600 1675874559 -1539328546 -961375967 -1968038003 1218138041
REM
CELL 1.54180   50.00000   50.00000   50.00000   90.00000   90.00000   90.00000
LATT -1
SFAC C  
C      1  0.5254460000000  0.4646460000000  0.4826760000000 1.0
C      1  0.5132160000000  0.4689990000000  0.5082980000000 1.0
C      1  0.5248540000000  0.4784860000000  0.5327850000000 1.0
C      1  0.5259850000000  0.5065870000000  0.5460280000000 1.0
C      1  0.5255910000000  0.5337330000000  0.5332110000000 1.0
C      1  0.5249760000000  0.5424540000000  0.5039180000000 1.0
C      1  0.5253220000000  0.5343600000000  0.4746110000000 1.0
C      1  0.5265280000000  0.5118450000000  0.4539680000000 1.0
C      1  0.5270370000000  0.4819730000000  0.4569150000000 1.0
C      1  0.4852020000000  0.5575270000000  0.5263350000000 1.0
C      1  0.4846880000000  0.5589320000000  0.4831180000000 1.0
C      1  0.4861410000000  0.5355490000000  0.4467700000000 1.0
C      1  0.4886590000000  0.4937590000000  0.4315750000000 1.0
C      1  0.4896660000000  0.4525230000000  0.4498180000000 1.0
C      1  0.4839230000000  0.4376800000000  0.4913950000000 1.0
C      1  0.4833700000000  0.4506170000000  0.5382300000000 1.0
C      1  0.4882880000000  0.4847300000000  0.5664100000000 1.0
C      1  0.4871310000000  0.5294760000000  0.5608750000000 1.0
C      1  0.4593470000000  0.4672220000000  0.5335610000000 1.0
C      1  0.4642990000000  0.4908350000000  0.5496410000000 1.0
C      1  0.4658580000000  0.5187730000000  0.5428350000000 1.0
C      1  0.4660820000000  0.5356640000000  0.5187800000000 1.0
C      1  0.4659220000000  0.5357310000000  0.4893050000000 1.0
C      1  0.4667280000000  0.5205470000000  0.4640530000000 1.0
C      1  0.4669300000000  0.4937040000000  0.4520800000000 1.0
C      1  0.4653520000000  0.4662240000000  0.4605450000000 1.0
C      1  0.4599050000000  0.4541810000000  0.4863520000000 1.0
C      1  0.5062910000000  0.4722250000000  0.4372780000000 1.0
C      1  0.5038720000000  0.4426810000000  0.4717450000000 1.0
C      1  0.4966850000000  0.4456690000000  0.5145470000000 1.0
C      1  0.5029120000000  0.4651150000000  0.5529610000000 1.0
C      1  0.5047530000000  0.5081750000000  0.5674220000000 1.0
C      1  0.5027990000000  0.5478860000000  0.5461390000000 1.0
C      1  0.5020700000000  0.5630230000000  0.5046000000000 1.0
C      1  0.5025610000000  0.5515230000000  0.4629680000000 1.0
C      1  0.5041100000000  0.5172180000000  0.4351120000000 1.0
C      1  0.5552320000000  0.4796750000000  0.5296900000000 1.0
C      1  0.5565320000000  0.5053840000000  0.5420230000000 1.0
C      1  0.5576340000000  0.5312210000000  0.5301450000000 1.0
C      1  0.5564500000000  0.5405000000000  0.5036370000000 1.0
C      1  0.5567700000000  0.5330180000000  0.4765460000000 1.0
C      1  0.5584790000000  0.5114570000000  0.4585910000000 1.0
C      1  0.5574820000000  0.4831800000000  0.4616390000000 1.0
C      1  0.5557560000000  0.4674390000000  0.4853870000000 1.0
C      1  0.5690730000000  0.4678050000000  0.5092880000000 1.0
C      1  0.4477390000000  0.4644030000000  0.5087930000000 1.0
END
