TITL C-122781-4704-4 -31.3707340928735 125000 -291.871045675074 0 0 45 (C1) n - 1
REM
REM in /rds/project/t2_vol4/rds-t2-cs072/BORA/CARBON/from-Arr/AIRSS/Generating-Clusters/GAP-ML-2020/Higher-Symm/SD-CG/HFTN-CG
REM
REM
REM
REM
REM
REM ./C.cell (b20cbc046b6831c77cfcea5457e17084)
REM AIRSS Version 0.9.1 bugfix July 2018 build 013d7b7c2542+ Fri, 06 Jul 2018 19:26:36 +0100
REM compiler GCC version 9.3.0
REM options -cpp -mtune=generic -march=x86-64 -g -O0
REM seed 1161966523 -448383536 1730838341 1266846142 -1022406803 1695842124 -610888854 -1370941738 -863552738 1691149608 -1519276722 -1643558006 1621387785 -797040927 -1334243062 1458996216 -1249545734 1568914313 979045794 1362799159 948552899 1328148220 1360799704 -691742612 -782591678 -32880371 -1419822764 2062248589 1615246011 2040231362 1940663469 -1695668746 -962728945
REM
CELL 1.54180   50.00000   50.00000   50.00000   90.00000   90.00000   90.00000
LATT -1
SFAC C  
C      1  0.4899020000000  0.5420520000000  0.5653650000000 1.0
C      1  0.5043140000000  0.5354600000000  0.4275340000000 1.0
C      1  0.5410100000000  0.4562410000000  0.4527910000000 1.0
C      1  0.4584040000000  0.4689990000000  0.5444710000000 1.0
C      1  0.5606020000000  0.4785680000000  0.5207050000000 1.0
C      1  0.4430830000000  0.4747990000000  0.4889590000000 1.0
C      1  0.5163780000000  0.5114160000000  0.5343450000000 1.0
C      1  0.4895300000000  0.5268150000000  0.4709620000000 1.0
C      1  0.4796010000000  0.5281430000000  0.4260480000000 1.0
C      1  0.5147450000000  0.5371530000000  0.5720010000000 1.0
C      1  0.4681700000000  0.4588390000000  0.4522390000000 1.0
C      1  0.5275240000000  0.4582760000000  0.5461340000000 1.0
C      1  0.4702430000000  0.5161390000000  0.4503750000000 1.0
C      1  0.5309910000000  0.5208120000000  0.5576870000000 1.0
C      1  0.4545900000000  0.5126970000000  0.5096330000000 1.0
C      1  0.5507180000000  0.5173700000000  0.5012590000000 1.0
C      1  0.4458600000000  0.5030890000000  0.4582540000000 1.0
C      1  0.5535650000000  0.5052180000000  0.5524720000000 1.0
C      1  0.4706530000000  0.4681880000000  0.5007620000000 1.0
C      1  0.5390880000000  0.4704550000000  0.5001580000000 1.0
C      1  0.4459850000000  0.4740930000000  0.4599450000000 1.0
C      1  0.5491300000000  0.4763040000000  0.5466470000000 1.0
C      1  0.5144130000000  0.5292620000000  0.5119890000000 1.0
C      1  0.4768990000000  0.5534050000000  0.4803770000000 1.0
C      1  0.4825030000000  0.4793120000000  0.5535470000000 1.0
C      1  0.5204970000000  0.4757150000000  0.4466450000000 1.0
C      1  0.4886370000000  0.5034950000000  0.5387160000000 1.0
C      1  0.5270090000000  0.5005020000000  0.4590500000000 1.0
C      1  0.5308970000000  0.4977140000000  0.4874920000000 1.0
C      1  0.4799470000000  0.4975250000000  0.5102190000000 1.0
C      1  0.4759440000000  0.5298970000000  0.5446440000000 1.0
C      1  0.5167600000000  0.5294100000000  0.4546200000000 1.0
C      1  0.5315970000000  0.5468430000000  0.4712650000000 1.0
C      1  0.4613360000000  0.5385100000000  0.5210850000000 1.0
C      1  0.4727700000000  0.4532960000000  0.5264080000000 1.0
C      1  0.5472800000000  0.4520630000000  0.4769520000000 1.0
C      1  0.4952260000000  0.4636610000000  0.4524150000000 1.0
C      1  0.4997120000000  0.4582610000000  0.5395350000000 1.0
C      1  0.5206060000000  0.4556900000000  0.5194360000000 1.0
C      1  0.4836390000000  0.4553430000000  0.4766810000000 1.0
C      1  0.4390860000000  0.5041510000000  0.4879170000000 1.0
C      1  0.5640630000000  0.5069760000000  0.5235490000000 1.0
C      1  0.4635990000000  0.5596860000000  0.5019170000000 1.0
C      1  0.5365940000000  0.5416090000000  0.4967000000000 1.0
C      1  0.5013180000000  0.5109240000000  0.4936000000000 1.0
END
