TITL C-122796-4886-1 -15.6758527632119 125000 -638.282978263571 0 0 92 (C1) n - 1
REM
REM in /rds/project/t2_vol4/rds-t2-cs072/BORA/CARBON/from-Arr/AIRSS/Generating-Clusters/GAP-ML-2020/Higher-Symm/SD-CG/HFTN-CG
REM
REM
REM
REM
REM
REM ./C.cell (b20cbc046b6831c77cfcea5457e17084)
REM AIRSS Version 0.9.1 bugfix July 2018 build 013d7b7c2542+ Fri, 06 Jul 2018 19:26:36 +0100
REM compiler GCC version 9.3.0
REM options -cpp -mtune=generic -march=x86-64 -g -O0
REM seed 1267332497 -2039467960 1106519648 1754251820 119860583 304977179 73613574 -1739394254 808430872 681077613 1664628661 -1327323142 -950029601 1918102699 -1639558668 72863817 297189261 1376287858 1763429231 882199876 539297488 -1572252507 130745111 -2079333571 695433165 -1964483686 -690713771 -1882697040 1682957638 -1440473086 184155786 -331241893 564678004
REM
CELL 1.54180   50.00000   50.00000   50.00000   90.00000   90.00000   90.00000
LATT -1
SFAC C  
C      1  0.5203410000000  0.5657510000000  0.5386540000000 1.0
C      1  0.4590310000000  0.5526250000000  0.5389320000000 1.0
C      1  0.4429200000000  0.5292630000000  0.5391640000000 1.0
C      1  0.4652610000000  0.4822190000000  0.5253980000000 1.0
C      1  0.4715660000000  0.4526410000000  0.5342150000000 1.0
C      1  0.4970370000000  0.4381140000000  0.5362790000000 1.0
C      1  0.5540830000000  0.4596190000000  0.5385380000000 1.0
C      1  0.5635750000000  0.4863450000000  0.5392350000000 1.0
C      1  0.5439390000000  0.5491730000000  0.5379740000000 1.0
C      1  0.5275170000000  0.5332090000000  0.4998700000000 1.0
C      1  0.5076970000000  0.5519090000000  0.4935030000000 1.0
C      1  0.4779500000000  0.5434530000000  0.4914920000000 1.0
C      1  0.4617510000000  0.5178880000000  0.4914350000000 1.0
C      1  0.4741560000000  0.4905610000000  0.4974850000000 1.0
C      1  0.4771770000000  0.4624840000000  0.4878850000000 1.0
C      1  0.5051480000000  0.4524660000000  0.4895520000000 1.0
C      1  0.5324030000000  0.4650320000000  0.4926120000000 1.0
C      1  0.5382320000000  0.4910140000000  0.5002490000000 1.0
C      1  0.5444190000000  0.5648690000000  0.4627940000000 1.0
C      1  0.4889810000000  0.5805160000000  0.4640950000000 1.0
C      1  0.4406660000000  0.5510020000000  0.4672400000000 1.0
C      1  0.4239090000000  0.5000900000000  0.4589110000000 1.0
C      1  0.4366800000000  0.4559360000000  0.4573350000000 1.0
C      1  0.4803340000000  0.4232940000000  0.4643230000000 1.0
C      1  0.5362250000000  0.4286610000000  0.4651840000000 1.0
C      1  0.5722550000000  0.4722080000000  0.4640120000000 1.0
C      1  0.5729180000000  0.5231170000000  0.4585200000000 1.0
C      1  0.5856670000000  0.5255940000000  0.4816100000000 1.0
C      1  0.5638290000000  0.5825830000000  0.4751330000000 1.0
C      1  0.4850800000000  0.5973880000000  0.4845990000000 1.0
C      1  0.4190670000000  0.5645300000000  0.4791690000000 1.0
C      1  0.4128990000000  0.4873930000000  0.4819860000000 1.0
C      1  0.4205780000000  0.4595570000000  0.4808020000000 1.0
C      1  0.4716560000000  0.4011040000000  0.4785360000000 1.0
C      1  0.5464810000000  0.4094270000000  0.4822080000000 1.0
C      1  0.5962870000000  0.4691610000000  0.4793120000000 1.0
C      1  0.4432430000000  0.5128160000000  0.5625370000000 1.0
C      1  0.4448430000000  0.4842640000000  0.5689020000000 1.0
C      1  0.4598250000000  0.4598020000000  0.5615670000000 1.0
C      1  0.5123630000000  0.4412820000000  0.5592910000000 1.0
C      1  0.5385930000000  0.4532040000000  0.5603280000000 1.0
C      1  0.5571590000000  0.5038370000000  0.5601610000000 1.0
C      1  0.5483280000000  0.5316240000000  0.5595720000000 1.0
C      1  0.5042680000000  0.5626160000000  0.5611430000000 1.0
C      1  0.4756310000000  0.5578580000000  0.5609840000000 1.0
C      1  0.4205310000000  0.4989050000000  0.5068440000000 1.0
C      1  0.4333580000000  0.4529770000000  0.5051200000000 1.0
C      1  0.4775000000000  0.4181300000000  0.4993970000000 1.0
C      1  0.5374030000000  0.4232100000000  0.5041100000000 1.0
C      1  0.5774330000000  0.4702010000000  0.4988010000000 1.0
C      1  0.5744450000000  0.5219310000000  0.5053930000000 1.0
C      1  0.5590010000000  0.5661460000000  0.4945580000000 1.0
C      1  0.4816160000000  0.5852370000000  0.5087870000000 1.0
C      1  0.4349690000000  0.5533970000000  0.4992420000000 1.0
C      1  0.4778070000000  0.4648270000000  0.5847290000000 1.0
C      1  0.5042240000000  0.4567850000000  0.5829550000000 1.0
C      1  0.5299480000000  0.4712410000000  0.5826530000000 1.0
C      1  0.5389780000000  0.4975510000000  0.5825650000000 1.0
C      1  0.5300490000000  0.5266580000000  0.5823770000000 1.0
C      1  0.5078950000000  0.5431410000000  0.5832840000000 1.0
C      1  0.4783220000000  0.5402860000000  0.5844640000000 1.0
C      1  0.4617190000000  0.5182020000000  0.5853970000000 1.0
C      1  0.4649340000000  0.4899800000000  0.5908110000000 1.0
C      1  0.4344920000000  0.4775730000000  0.5190710000000 1.0
C      1  0.4609270000000  0.4417300000000  0.5080510000000 1.0
C      1  0.5054540000000  0.4291280000000  0.5098910000000 1.0
C      1  0.5512320000000  0.4496430000000  0.5110170000000 1.0
C      1  0.5659010000000  0.4946200000000  0.5116980000000 1.0
C      1  0.5536960000000  0.5427490000000  0.5108480000000 1.0
C      1  0.5072470000000  0.5723770000000  0.5142290000000 1.0
C      1  0.4622090000000  0.5620300000000  0.5115600000000 1.0
C      1  0.4351800000000  0.5243660000000  0.5114050000000 1.0
C      1  0.4791040000000  0.4648100000000  0.4384170000000 1.0
C      1  0.5059500000000  0.4569160000000  0.4406810000000 1.0
C      1  0.5303890000000  0.4703890000000  0.4417330000000 1.0
C      1  0.5398210000000  0.4971600000000  0.4385000000000 1.0
C      1  0.5310100000000  0.5254840000000  0.4380920000000 1.0
C      1  0.5082940000000  0.5421450000000  0.4427490000000 1.0
C      1  0.4804990000000  0.5390050000000  0.4422050000000 1.0
C      1  0.4631520000000  0.5171310000000  0.4401500000000 1.0
C      1  0.4628490000000  0.4886590000000  0.4336250000000 1.0
C      1  0.4699620000000  0.5570960000000  0.4631140000000 1.0
C      1  0.4433800000000  0.5215450000000  0.4618700000000 1.0
C      1  0.4360930000000  0.4801930000000  0.4427830000000 1.0
C      1  0.4648180000000  0.4484480000000  0.4587020000000 1.0
C      1  0.5074650000000  0.4360280000000  0.4619040000000 1.0
C      1  0.5467480000000  0.4565820000000  0.4618240000000 1.0
C      1  0.5656970000000  0.4965950000000  0.4509110000000 1.0
C      1  0.5523670000000  0.5409080000000  0.4498690000000 1.0
C      1  0.5142590000000  0.5634290000000  0.4627720000000 1.0
C      1  0.5178880000000  0.5082450000000  0.4992560000000 1.0
C      1  0.4964330000000  0.5005740000000  0.4852460000000 1.0
END
