TITL C-126561-5126-5 0.0474320960520731 125000 -181.750781360777 0 0 28 (C1) n - 1
REM
REM in /rds/project/t2_vol4/rds-t2-cs072/BORA/CARBON/from-Arr/AIRSS/Generating-Clusters/GAP-ML-2020/Higher-Symm/SD-CG/HFTN-CG
REM
REM
REM
REM
REM
REM ./C.cell (b20cbc046b6831c77cfcea5457e17084)
REM AIRSS Version 0.9.1 bugfix July 2018 build 013d7b7c2542+ Fri, 06 Jul 2018 19:26:36 +0100
REM compiler GCC version 9.3.0
REM options -cpp -mtune=generic -march=x86-64 -g -O0
REM seed -1194236031 41534989 1158892920 -1618653455 -1486116364 1618921014 114121706 -389206428 347632363 1071573724 -946559965 1412924212 1997747223 706487794 -919858938 -305242249 79228540 -915043396 -946055683 -1122185415 1452309248 971308916 1008708217 1508950866 -168693334 1154898473 -407638784 818957649 -1943590948 1388917722 -464698694 1056894759 -487201098
REM
CELL 1.54180   50.00000   50.00000   50.00000   90.00000   90.00000   90.00000
LATT -1
SFAC C  
C      1  0.4971120000000  0.4954300000000  0.4414120000000 1.0
C      1  0.4480960000000  0.4886350000000  0.5039500000000 1.0
C      1  0.4999670000000  0.4261570000000  0.5025810000000 1.0
C      1  0.5065900000000  0.5083780000000  0.5659700000000 1.0
C      1  0.4846660000000  0.5138560000000  0.5533180000000 1.0
C      1  0.5098390000000  0.5173140000000  0.4341230000000 1.0
C      1  0.5481100000000  0.4824500000000  0.4973980000000 1.0
C      1  0.4478980000000  0.5099890000000  0.4905400000000 1.0
C      1  0.5524420000000  0.5071300000000  0.4927190000000 1.0
C      1  0.4907350000000  0.4369520000000  0.5245170000000 1.0
C      1  0.4944080000000  0.5470660000000  0.5228030000000 1.0
C      1  0.4858050000000  0.5605600000000  0.5016790000000 1.0
C      1  0.5214940000000  0.5369360000000  0.4466400000000 1.0
C      1  0.4781130000000  0.5165150000000  0.4826150000000 1.0
C      1  0.4875490000000  0.4636690000000  0.5325500000000 1.0
C      1  0.4748460000000  0.5278860000000  0.5319450000000 1.0
C      1  0.5169140000000  0.5036920000000  0.5399790000000 1.0
C      1  0.4897160000000  0.4926760000000  0.4675640000000 1.0
C      1  0.5313220000000  0.5262340000000  0.4949180000000 1.0
C      1  0.4769460000000  0.4799270000000  0.5109610000000 1.0
C      1  0.5248170000000  0.4696610000000  0.5064990000000 1.0
C      1  0.5085890000000  0.4503940000000  0.4914890000000 1.0
C      1  0.4897920000000  0.5432790000000  0.4815340000000 1.0
C      1  0.5143590000000  0.5238580000000  0.5176940000000 1.0
C      1  0.4859340000000  0.5090140000000  0.5094700000000 1.0
C      1  0.5173410000000  0.5394860000000  0.4737920000000 1.0
C      1  0.5141290000000  0.4765520000000  0.5320670000000 1.0
C      1  0.4905720000000  0.4712690000000  0.4861330000000 1.0
END
