TITL C-125361-8706-3 0.000873785533452243 125000 -304.423021866431 0 0 45 (C5) n - 1
REM
REM in /rds/project/t2_vol4/rds-t2-cs072/BORA/CARBON/from-Arr/AIRSS/Generating-Clusters/GAP-ML-2020/Higher-Symm/SD-CG/HFTN-CG
REM
REM
REM
REM
REM
REM ./C.cell (b20cbc046b6831c77cfcea5457e17084)
REM AIRSS Version 0.9.1 bugfix July 2018 build 013d7b7c2542+ Fri, 06 Jul 2018 19:26:36 +0100
REM compiler GCC version 9.3.0
REM options -cpp -mtune=generic -march=x86-64 -g -O0
REM seed -26081550 1688214638 446203427 273137285 -252979887 1116772111 605793975 1507276405 579164987 -1666072745 -666610724 1453858116 -660932883 -1599016303 -1608180975 -1966347461 191960648 649161543 -1559152584 -1061814547 -2142167578 580638713 -1573890432 -732298504 -1603517682 1771376446 -1355060663 -75834058 747005423 1303958774 -307216567 -1551486650 -44484337
REM
CELL 1.54180   50.00000   50.00000   50.00000   90.00000   90.00000   90.00000
LATT -1
SFAC C  
C      1  0.5372870000000  0.4717700000000  0.4638060000000 1.0
C      1  0.4846770000000  0.4558120000000  0.4638080000000 1.0
C      1  0.4532420000000  0.5009160000000  0.4638050000000 1.0
C      1  0.4864240000000  0.5447490000000  0.4638010000000 1.0
C      1  0.5383670000000  0.5267370000000  0.4638010000000 1.0
C      1  0.4610230000000  0.5248360000000  0.5374880000000 1.0
C      1  0.5115730000000  0.5447470000000  0.5374860000000 1.0
C      1  0.5461310000000  0.5028240000000  0.5374890000000 1.0
C      1  0.5169380000000  0.4570020000000  0.5374930000000 1.0
C      1  0.4643380000000  0.4706070000000  0.5374930000000 1.0
C      1  0.5231400000000  0.5611120000000  0.4916850000000 1.0
C      1  0.5652720000000  0.4968770000000  0.4916900000000 1.0
C      1  0.5172000000000  0.4369570000000  0.4916960000000 1.0
C      1  0.4453580000000  0.4641590000000  0.4916950000000 1.0
C      1  0.4490290000000  0.5408920000000  0.4916880000000 1.0
C      1  0.5646320000000  0.5117090000000  0.5154980000000 1.0
C      1  0.5311070000000  0.4421510000000  0.5155040000000 1.0
C      1  0.4545940000000  0.4525400000000  0.5155050000000 1.0
C      1  0.4408300000000  0.5285190000000  0.5154980000000 1.0
C      1  0.5088380000000  0.5650880000000  0.5154940000000 1.0
C      1  0.5462690000000  0.5001120000000  0.4692960000000 1.0
C      1  0.5144070000000  0.4560280000000  0.4693000000000 1.0
C      1  0.4626340000000  0.4727080000000  0.4693000000000 1.0
C      1  0.4624990000000  0.5271010000000  0.4692950000000 1.0
C      1  0.5141880000000  0.5440380000000  0.4692930000000 1.0
C      1  0.4315470000000  0.5016640000000  0.5180430000000 1.0
C      1  0.4804280000000  0.5656190000000  0.5180360000000 1.0
C      1  0.5563580000000  0.5388920000000  0.5180380000000 1.0
C      1  0.5544030000000  0.4584200000000  0.5180450000000 1.0
C      1  0.4772650000000  0.4354120000000  0.5180480000000 1.0
C      1  0.5680440000000  0.4682920000000  0.4953830000000 1.0
C      1  0.4908710000000  0.4254880000000  0.4953880000000 1.0
C      1  0.4263140000000  0.4856560000000  0.4953840000000 1.0
C      1  0.4635880000000  0.5656470000000  0.4953760000000 1.0
C      1  0.5511820000000  0.5549150000000  0.4953760000000 1.0
C      1  0.4773540000000  0.4286090000000  0.4707550000000 1.0
C      1  0.4251080000000  0.4994750000000  0.4707490000000 1.0
C      1  0.4763590000000  0.5710620000000  0.4707420000000 1.0
C      1  0.5602810000000  0.5444410000000  0.4707430000000 1.0
C      1  0.5608960000000  0.4564000000000  0.4707510000000 1.0
C      1  0.5399370000000  0.4759870000000  0.5380490000000 1.0
C      1  0.4895010000000  0.4546000000000  0.5380520000000 1.0
C      1  0.4535750000000  0.4959590000000  0.5380490000000 1.0
C      1  0.4818080000000  0.5429070000000  0.5380440000000 1.0
C      1  0.5351820000000  0.5305640000000  0.5380440000000 1.0
END
