TITL C-122798-4648-4 -0.0271876163641843 125000 -203.235731306043 0 0 31 (C1) n - 1
REM
REM in /rds/project/t2_vol4/rds-t2-cs072/BORA/CARBON/from-Arr/AIRSS/Generating-Clusters/GAP-ML-2020/Higher-Symm/SD-CG/HFTN-CG
REM
REM
REM
REM
REM
REM ./C.cell (b20cbc046b6831c77cfcea5457e17084)
REM AIRSS Version 0.9.1 bugfix July 2018 build 013d7b7c2542+ Fri, 06 Jul 2018 19:26:36 +0100
REM compiler GCC version 9.3.0
REM options -cpp -mtune=generic -march=x86-64 -g -O0
REM seed -1352589381 -65180366 -1768712328 -1703797192 -1431375277 1815850817 1662792641 598200083 -766336281 -1000900363 540169314 490841288 -404396388 -30231112 155494600 119393036 1969392766 -365235611 616740685 -1317666412 -958196003 -457190329 -1035657710 501451289 -1546695260 -1304639989 829467420 -1231473812 7771741 1606952337 929547160 1548893570 190297219
REM
CELL 1.54180   50.00000   50.00000   50.00000   90.00000   90.00000   90.00000
LATT -1
SFAC C  
C      1  0.5162900000000  0.5274790000000  0.4714930000000 1.0
C      1  0.4526100000000  0.5529790000000  0.5037440000000 1.0
C      1  0.5144910000000  0.5404580000000  0.5446260000000 1.0
C      1  0.4624720000000  0.5443350000000  0.4772240000000 1.0
C      1  0.5346780000000  0.5268570000000  0.4941200000000 1.0
C      1  0.4865260000000  0.5488480000000  0.5469800000000 1.0
C      1  0.5238730000000  0.5161480000000  0.5371010000000 1.0
C      1  0.4950760000000  0.5087870000000  0.4703030000000 1.0
C      1  0.4476090000000  0.5369220000000  0.5246140000000 1.0
C      1  0.4635110000000  0.5352160000000  0.5455910000000 1.0
C      1  0.4696970000000  0.5192000000000  0.4716270000000 1.0
C      1  0.5366120000000  0.5093680000000  0.5149290000000 1.0
C      1  0.5190430000000  0.5624860000000  0.5246510000000 1.0
C      1  0.5105650000000  0.5554700000000  0.4759770000000 1.0
C      1  0.4744270000000  0.5731840000000  0.5052710000000 1.0
C      1  0.4915420000000  0.5715910000000  0.5278730000000 1.0
C      1  0.4842750000000  0.5644390000000  0.4789890000000 1.0
C      1  0.5287370000000  0.5549330000000  0.4991060000000 1.0
C      1  0.5259340000000  0.4256830000000  0.4792120000000 1.0
C      1  0.4850770000000  0.4372260000000  0.4794330000000 1.0
C      1  0.5063870000000  0.4352740000000  0.5217550000000 1.0
C      1  0.5007890000000  0.4149800000000  0.4782300000000 1.0
C      1  0.5312560000000  0.4304470000000  0.5063900000000 1.0
C      1  0.4829720000000  0.4446310000000  0.5065080000000 1.0
C      1  0.5018110000000  0.4803250000000  0.4806150000000 1.0
C      1  0.5138440000000  0.4625500000000  0.5222710000000 1.0
C      1  0.5253720000000  0.4492890000000  0.4631940000000 1.0
C      1  0.5371510000000  0.4583790000000  0.5063750000000 1.0
C      1  0.4919760000000  0.4713550000000  0.5061110000000 1.0
C      1  0.4975270000000  0.4573400000000  0.4633320000000 1.0
C      1  0.5304960000000  0.4709940000000  0.4812980000000 1.0
END
