TITL C-122798-4648-14 -0.13258610175066 125000 -388.943612912673 0 0 56 (C1) n - 1
REM
REM in /rds/project/t2_vol4/rds-t2-cs072/BORA/CARBON/from-Arr/AIRSS/Generating-Clusters/GAP-ML-2020/Higher-Symm/SD-CG/HFTN-CG
REM
REM
REM
REM
REM
REM ./C.cell (b20cbc046b6831c77cfcea5457e17084)
REM AIRSS Version 0.9.1 bugfix July 2018 build 013d7b7c2542+ Fri, 06 Jul 2018 19:26:36 +0100
REM compiler GCC version 9.3.0
REM options -cpp -mtune=generic -march=x86-64 -g -O0
REM seed 217401762 -1606569077 213278701 -272266843 981511208 -272521921 1476676217 -1661671397 -1520870905 -670280822 1470256980 -985818612 1673438029 1926703142 1302133702 -1291575896 646691661 -1411254548 -378779899 1750495544 -674147899 -1065628198 1002680541 -712028404 1666080960 -1177004625 -1555410952 -21039780 363351212 -91463152 -1557541733 -2146001079 1845825582
REM
CELL 1.54180   50.00000   50.00000   50.00000   90.00000   90.00000   90.00000
LATT -1
SFAC C  
C      1  0.5262290000000  0.4908550000000  0.4382190000000 1.0
C      1  0.5168050000000  0.5186880000000  0.4373060000000 1.0
C      1  0.4888310000000  0.5187470000000  0.4404150000000 1.0
C      1  0.4808340000000  0.4905830000000  0.4411280000000 1.0
C      1  0.5039910000000  0.4729270000000  0.4404100000000 1.0
C      1  0.5365240000000  0.5357640000000  0.4486270000000 1.0
C      1  0.4698200000000  0.5349180000000  0.4555050000000 1.0
C      1  0.4551650000000  0.4901800000000  0.4535320000000 1.0
C      1  0.5045310000000  0.4487730000000  0.4570190000000 1.0
C      1  0.5504070000000  0.4903850000000  0.4540260000000 1.0
C      1  0.5180490000000  0.4829000000000  0.5762280000000 1.0
C      1  0.5203980000000  0.5124330000000  0.5759290000000 1.0
C      1  0.4930650000000  0.5230660000000  0.5730360000000 1.0
C      1  0.4723830000000  0.5028500000000  0.5765550000000 1.0
C      1  0.4895560000000  0.4779680000000  0.5744530000000 1.0
C      1  0.4488160000000  0.5171460000000  0.4616890000000 1.0
C      1  0.4424800000000  0.4722410000000  0.4718130000000 1.0
C      1  0.5270360000000  0.4326950000000  0.4588920000000 1.0
C      1  0.5568670000000  0.5172880000000  0.4594060000000 1.0
C      1  0.5304930000000  0.5558790000000  0.4685010000000 1.0
C      1  0.5109720000000  0.5582680000000  0.5103910000000 1.0
C      1  0.4439860000000  0.5274740000000  0.5097670000000 1.0
C      1  0.4547680000000  0.4584810000000  0.5143350000000 1.0
C      1  0.5268620000000  0.4460470000000  0.5082190000000 1.0
C      1  0.5611570000000  0.5098190000000  0.5087870000000 1.0
C      1  0.4342540000000  0.5159730000000  0.4857420000000 1.0
C      1  0.4572710000000  0.4525220000000  0.4856830000000 1.0
C      1  0.5357330000000  0.4477570000000  0.4800780000000 1.0
C      1  0.5642180000000  0.5262490000000  0.4850960000000 1.0
C      1  0.5052350000000  0.5606020000000  0.4820170000000 1.0
C      1  0.4856460000000  0.4494850000000  0.4800290000000 1.0
C      1  0.5475660000000  0.4738940000000  0.4781890000000 1.0
C      1  0.5499880000000  0.5507330000000  0.4888980000000 1.0
C      1  0.4788410000000  0.5496470000000  0.4786010000000 1.0
C      1  0.4279610000000  0.4880520000000  0.4904730000000 1.0
C      1  0.5231520000000  0.4808020000000  0.5443480000000 1.0
C      1  0.5256480000000  0.5123800000000  0.5451350000000 1.0
C      1  0.4964720000000  0.5236730000000  0.5426600000000 1.0
C      1  0.4568010000000  0.5031720000000  0.5517110000000 1.0
C      1  0.4923610000000  0.4745080000000  0.5448240000000 1.0
C      1  0.5396500000000  0.4667410000000  0.5237320000000 1.0
C      1  0.5454580000000  0.5255440000000  0.5277090000000 1.0
C      1  0.4899630000000  0.5466180000000  0.5247860000000 1.0
C      1  0.4388930000000  0.5064190000000  0.5313350000000 1.0
C      1  0.4798240000000  0.4531190000000  0.5278980000000 1.0
C      1  0.4957790000000  0.4743610000000  0.4934690000000 1.0
C      1  0.5190170000000  0.4875800000000  0.4850190000000 1.0
C      1  0.5163340000000  0.5143310000000  0.4872520000000 1.0
C      1  0.4889660000000  0.5160860000000  0.4909010000000 1.0
C      1  0.4773340000000  0.4937680000000  0.5036890000000 1.0
C      1  0.4346700000000  0.4804700000000  0.5169900000000 1.0
C      1  0.4984390000000  0.4457240000000  0.5077080000000 1.0
C      1  0.5558060000000  0.4822680000000  0.5056600000000 1.0
C      1  0.5377860000000  0.5501040000000  0.5143800000000 1.0
C      1  0.4684010000000  0.5425850000000  0.5058500000000 1.0
C      1  0.4801460000000  0.4992950000000  0.5340130000000 1.0
END
