TITL C-127522-232-4 -0.106873273339853 125000 -382.548005626992 0 0 59 (C1) n - 1
REM
REM in /rds/project/t2_vol4/rds-t2-cs072/BORA/CARBON/from-Arr/AIRSS/Generating-Clusters/GAP-ML-2020/Higher-Symm/SD-CG/HFTN-CG
REM
REM
REM
REM
REM
REM ./C.cell (b20cbc046b6831c77cfcea5457e17084)
REM AIRSS Version 0.9.1 bugfix July 2018 build 013d7b7c2542+ Fri, 06 Jul 2018 19:26:36 +0100
REM compiler GCC version 9.3.0
REM options -cpp -mtune=generic -march=x86-64 -g -O0
REM seed 1844216299 -1028280796 1563371187 -483161220 -1418509594 1598043384 -494259760 425283654 -81633326 1088800276 875073828 -945893704 494669954 988823610 1457155196 729929762 -358138501 -1000101434 -1073183309 -379948606 1018286074 -343974931 -659829737 -1949345379 1835017122 1631050532 -445363641 2132862970 1451841041 925472077 689099177 1588558602 -413232761
REM
CELL 1.54180   50.00000   50.00000   50.00000   90.00000   90.00000   90.00000
LATT -1
SFAC C  
C      1  0.5433200000000  0.5428100000000  0.4550870000000 1.0
C      1  0.4690990000000  0.5693760000000  0.4586990000000 1.0
C      1  0.4358350000000  0.4748360000000  0.4663390000000 1.0
C      1  0.4994480000000  0.4334470000000  0.4655340000000 1.0
C      1  0.5655890000000  0.4735220000000  0.4565550000000 1.0
C      1  0.4587530000000  0.5549350000000  0.5374750000000 1.0
C      1  0.5364190000000  0.5502050000000  0.5520280000000 1.0
C      1  0.5673890000000  0.4843780000000  0.5333100000000 1.0
C      1  0.5161920000000  0.4314800000000  0.5419950000000 1.0
C      1  0.4306230000000  0.4853530000000  0.5338390000000 1.0
C      1  0.5394780000000  0.4435990000000  0.5379360000000 1.0
C      1  0.5624520000000  0.5134280000000  0.5387640000000 1.0
C      1  0.5048340000000  0.5525140000000  0.5463240000000 1.0
C      1  0.4503560000000  0.5257860000000  0.5368090000000 1.0
C      1  0.4679600000000  0.4449020000000  0.5358440000000 1.0
C      1  0.4742800000000  0.4430420000000  0.4746430000000 1.0
C      1  0.4347360000000  0.5297720000000  0.4639590000000 1.0
C      1  0.4956450000000  0.5606520000000  0.4637330000000 1.0
C      1  0.5549560000000  0.5182130000000  0.4627820000000 1.0
C      1  0.5461150000000  0.4570140000000  0.4661420000000 1.0
C      1  0.4982340000000  0.5248370000000  0.5509490000000 1.0
C      1  0.4730070000000  0.5124980000000  0.5488670000000 1.0
C      1  0.4721590000000  0.4851580000000  0.5529700000000 1.0
C      1  0.5155300000000  0.4806160000000  0.5503540000000 1.0
C      1  0.5190590000000  0.5073400000000  0.5470470000000 1.0
C      1  0.4857810000000  0.5211230000000  0.4455570000000 1.0
C      1  0.5201610000000  0.4961760000000  0.4419380000000 1.0
C      1  0.5072130000000  0.4717120000000  0.4445910000000 1.0
C      1  0.4850140000000  0.4793940000000  0.4588830000000 1.0
C      1  0.4688130000000  0.4998130000000  0.4502250000000 1.0
C      1  0.5242570000000  0.4663580000000  0.5253090000000 1.0
C      1  0.5377670000000  0.5124740000000  0.5232020000000 1.0
C      1  0.5031000000000  0.5457300000000  0.5192740000000 1.0
C      1  0.4643290000000  0.5166230000000  0.5130590000000 1.0
C      1  0.4576590000000  0.4724150000000  0.5301790000000 1.0
C      1  0.4824280000000  0.4685010000000  0.4861200000000 1.0
C      1  0.4424370000000  0.5025180000000  0.4601910000000 1.0
C      1  0.4904100000000  0.5343810000000  0.4754490000000 1.0
C      1  0.5306180000000  0.5029330000000  0.4695280000000 1.0
C      1  0.5359070000000  0.4775260000000  0.4850290000000 1.0
C      1  0.4909740000000  0.4413490000000  0.5496200000000 1.0
C      1  0.5640040000000  0.4598530000000  0.5450270000000 1.0
C      1  0.5589340000000  0.5379940000000  0.5537400000000 1.0
C      1  0.4761230000000  0.5678920000000  0.5506960000000 1.0
C      1  0.4261080000000  0.5098550000000  0.5384400000000 1.0
C      1  0.5197940000000  0.4479980000000  0.4546740000000 1.0
C      1  0.4471980000000  0.4520100000000  0.4670280000000 1.0
C      1  0.4503750000000  0.5503880000000  0.4618570000000 1.0
C      1  0.5221220000000  0.5563790000000  0.4547020000000 1.0
C      1  0.5735480000000  0.4984050000000  0.4566580000000 1.0
C      1  0.4789560000000  0.5393930000000  0.5048350000000 1.0
C      1  0.4702180000000  0.4881090000000  0.5070950000000 1.0
C      1  0.5451460000000  0.4850800000000  0.5125730000000 1.0
C      1  0.5243380000000  0.5323890000000  0.5075710000000 1.0
C      1  0.5103460000000  0.4702790000000  0.4990910000000 1.0
C      1  0.5110170000000  0.5169370000000  0.4866940000000 1.0
C      1  0.4989200000000  0.4961980000000  0.5061160000000 1.0
C      1  0.4929500000000  0.4693650000000  0.5608680000000 1.0
C      1  0.5071890000000  0.5168240000000  0.4293870000000 1.0
END
