TITL C-123183-8052-5 -12.3231777108772 125000 -304.370911477852 0 0 45 (C1) n - 1
REM
REM in /rds/project/t2_vol4/rds-t2-cs072/BORA/CARBON/from-Arr/AIRSS/Generating-Clusters/GAP-ML-2020/Higher-Symm/SD-CG/HFTN-CG
REM
REM
REM
REM
REM
REM ./C.cell (b20cbc046b6831c77cfcea5457e17084)
REM AIRSS Version 0.9.1 bugfix July 2018 build 013d7b7c2542+ Fri, 06 Jul 2018 19:26:36 +0100
REM compiler GCC version 9.3.0
REM options -cpp -mtune=generic -march=x86-64 -g -O0
REM seed -93680156 460452330 -833296436 -2012804713 1784568042 467507285 1035763024 1326195666 -22967765 -2068123896 -896076754 -2055530652 631940669 -309421636 165373914 1856498561 302472778 -710443158 858341690 1008031928 -1935271721 1804496255 588746377 1288664412 1384817022 1127833240 -2059119336 -655141974 1201646550 1571230078 748569803 -403498065 -1572470119
REM
CELL 1.54180   50.00000   50.00000   50.00000   90.00000   90.00000   90.00000
LATT -1
SFAC C  
C      1  0.4666570000000  0.4999240000000  0.5433700000000 1.0
C      1  0.4997410000000  0.5357990000000  0.4543640000000 1.0
C      1  0.5370990000000  0.4961620000000  0.5462080000000 1.0
C      1  0.4979640000000  0.4621340000000  0.4534820000000 1.0
C      1  0.4994850000000  0.5528030000000  0.5250010000000 1.0
C      1  0.5526750000000  0.5062170000000  0.4758130000000 1.0
C      1  0.5074600000000  0.4456880000000  0.5219190000000 1.0
C      1  0.4439560000000  0.4848840000000  0.4747550000000 1.0
C      1  0.5087090000000  0.4884580000000  0.4484330000000 1.0
C      1  0.4911260000000  0.4877620000000  0.5529200000000 1.0
C      1  0.4856010000000  0.5089060000000  0.4528780000000 1.0
C      1  0.5122220000000  0.5081130000000  0.5539690000000 1.0
C      1  0.4705020000000  0.5677580000000  0.4796690000000 1.0
C      1  0.5483690000000  0.5348040000000  0.5206270000000 1.0
C      1  0.5348490000000  0.4545400000000  0.4782280000000 1.0
C      1  0.4555690000000  0.4597830000000  0.5213070000000 1.0
C      1  0.4569190000000  0.5234500000000  0.4913340000000 1.0
C      1  0.5102440000000  0.5155140000000  0.4956870000000 1.0
C      1  0.5089410000000  0.4910850000000  0.5095710000000 1.0
C      1  0.4867610000000  0.4842580000000  0.4939120000000 1.0
C      1  0.5558970000000  0.4928390000000  0.5000400000000 1.0
C      1  0.4939100000000  0.4406330000000  0.4982870000000 1.0
C      1  0.4426070000000  0.5001650000000  0.4983430000000 1.0
C      1  0.5116620000000  0.5538160000000  0.4992200000000 1.0
C      1  0.5094540000000  0.4459590000000  0.4742720000000 1.0
C      1  0.4497230000000  0.4861530000000  0.5238050000000 1.0
C      1  0.4944020000000  0.5564010000000  0.4752720000000 1.0
C      1  0.5514320000000  0.5082630000000  0.5243360000000 1.0
C      1  0.4586050000000  0.5508340000000  0.4984640000000 1.0
C      1  0.5397900000000  0.5477580000000  0.4978770000000 1.0
C      1  0.5474740000000  0.4652070000000  0.4995750000000 1.0
C      1  0.4658070000000  0.4477730000000  0.4985050000000 1.0
C      1  0.5026250000000  0.4629950000000  0.5453710000000 1.0
C      1  0.4611390000000  0.4914790000000  0.4516050000000 1.0
C      1  0.5019650000000  0.5322760000000  0.5451600000000 1.0
C      1  0.5332930000000  0.5005800000000  0.4536750000000 1.0
C      1  0.5319510000000  0.4690420000000  0.5449290000000 1.0
C      1  0.4702910000000  0.4641890000000  0.4528730000000 1.0
C      1  0.4722100000000  0.5275700000000  0.5422640000000 1.0
C      1  0.5269440000000  0.5298970000000  0.4543490000000 1.0
C      1  0.4703640000000  0.5497600000000  0.5241020000000 1.0
C      1  0.5468090000000  0.5345450000000  0.4741310000000 1.0
C      1  0.5356600000000  0.4530530000000  0.5221270000000 1.0
C      1  0.4532040000000  0.4574030000000  0.4752330000000 1.0
C      1  0.4838550000000  0.5120030000000  0.4831720000000 1.0
END
