TITL C-127523-288-11 -0.0872600497169316 125000 -722.263472304318 0 0 105 (C1) n - 1
REM
REM in /rds/project/t2_vol4/rds-t2-cs072/BORA/CARBON/from-Arr/AIRSS/Generating-Clusters/GAP-ML-2020/Higher-Symm/SD-CG/HFTN-CG
REM
REM
REM
REM
REM
REM ./C.cell (b20cbc046b6831c77cfcea5457e17084)
REM AIRSS Version 0.9.1 bugfix July 2018 build 013d7b7c2542+ Fri, 06 Jul 2018 19:26:36 +0100
REM compiler GCC version 9.3.0
REM options -cpp -mtune=generic -march=x86-64 -g -O0
REM seed -248260083 -473149168 1369686143 731206229 -2042864508 599944694 154201751 -1742789249 -520518497 -205802238 999460132 364288346 1374736512 -402999260 204249811 1344746529 -1389764192 944057370 1218956489 -429465106 -746876458 -1516883665 -1989244007 1295965662 -1004416306 -35243457 -1515677069 1063271620 -2111242590 156006709 -431162133 -1296588787 -1979246742
REM
CELL 1.54180   50.00000   50.00000   50.00000   90.00000   90.00000   90.00000
LATT -1
SFAC C  
C      1  0.4975330000000  0.4728810000000  0.3989820000000 1.0
C      1  0.5026390000000  0.5311900000000  0.5999020000000 1.0
C      1  0.5167070000000  0.4902710000000  0.4076670000000 1.0
C      1  0.4832660000000  0.5126560000000  0.5954190000000 1.0
C      1  0.4667410000000  0.5572610000000  0.4553880000000 1.0
C      1  0.5294990000000  0.4387020000000  0.5458530000000 1.0
C      1  0.5368390000000  0.5044170000000  0.5013940000000 1.0
C      1  0.4658860000000  0.5022420000000  0.5001650000000 1.0
C      1  0.5086540000000  0.4235020000000  0.5350400000000 1.0
C      1  0.4851590000000  0.5757960000000  0.4646640000000 1.0
C      1  0.5532530000000  0.4682730000000  0.4679840000000 1.0
C      1  0.4472160000000  0.5306720000000  0.5341200000000 1.0
C      1  0.5857630000000  0.4703650000000  0.5191450000000 1.0
C      1  0.4151660000000  0.5243080000000  0.4838530000000 1.0
C      1  0.4506080000000  0.5348920000000  0.5622270000000 1.0
C      1  0.5500510000000  0.4653000000000  0.4390700000000 1.0
C      1  0.5892250000000  0.5184540000000  0.5166820000000 1.0
C      1  0.4108280000000  0.4761240000000  0.4833170000000 1.0
C      1  0.4312100000000  0.4956250000000  0.4464320000000 1.0
C      1  0.5643460000000  0.5013000000000  0.5518380000000 1.0
C      1  0.4401310000000  0.4365210000000  0.5123360000000 1.0
C      1  0.5718630000000  0.5548250000000  0.4771870000000 1.0
C      1  0.5265890000000  0.5237570000000  0.5874000000000 1.0
C      1  0.4735890000000  0.4789500000000  0.4126960000000 1.0
C      1  0.4356440000000  0.4676650000000  0.4447510000000 1.0
C      1  0.5586510000000  0.5288360000000  0.5497640000000 1.0
C      1  0.4926320000000  0.4229450000000  0.4550020000000 1.0
C      1  0.5060360000000  0.5797830000000  0.5428540000000 1.0
C      1  0.4112450000000  0.4736410000000  0.5104050000000 1.0
C      1  0.5993560000000  0.5180370000000  0.4913840000000 1.0
C      1  0.5675020000000  0.4505770000000  0.5137270000000 1.0
C      1  0.4298960000000  0.5467210000000  0.4885020000000 1.0
C      1  0.5830930000000  0.4945880000000  0.5312020000000 1.0
C      1  0.4154260000000  0.5015460000000  0.4697890000000 1.0
C      1  0.5092720000000  0.4151870000000  0.5080150000000 1.0
C      1  0.4815630000000  0.5860990000000  0.4914670000000 1.0
C      1  0.4943800000000  0.5436460000000  0.5121430000000 1.0
C      1  0.5035950000000  0.4590900000000  0.4878690000000 1.0
C      1  0.5516590000000  0.4479410000000  0.4894400000000 1.0
C      1  0.4460980000000  0.5505910000000  0.5122670000000 1.0
C      1  0.4237410000000  0.4557200000000  0.4681830000000 1.0
C      1  0.5690780000000  0.5384130000000  0.5234100000000 1.0
C      1  0.4748790000000  0.4572980000000  0.4826750000000 1.0
C      1  0.5244010000000  0.5502560000000  0.5152280000000 1.0
C      1  0.5277560000000  0.4505170000000  0.4461850000000 1.0
C      1  0.4725100000000  0.5504530000000  0.5545550000000 1.0
C      1  0.5284650000000  0.5556180000000  0.4426290000000 1.0
C      1  0.4774710000000  0.4445600000000  0.5686950000000 1.0
C      1  0.4953530000000  0.5172760000000  0.4669990000000 1.0
C      1  0.5002850000000  0.4756590000000  0.5389720000000 1.0
C      1  0.5134640000000  0.5746080000000  0.4584830000000 1.0
C      1  0.4811490000000  0.4300910000000  0.5428910000000 1.0
C      1  0.5834800000000  0.5279070000000  0.4724120000000 1.0
C      1  0.4304780000000  0.4613410000000  0.5255490000000 1.0
C      1  0.4973430000000  0.4872830000000  0.5912210000000 1.0
C      1  0.5030120000000  0.5160350000000  0.4144830000000 1.0
C      1  0.5191660000000  0.5526170000000  0.5472240000000 1.0
C      1  0.4809250000000  0.4504480000000  0.4501390000000 1.0
C      1  0.4818840000000  0.4104220000000  0.5006530000000 1.0
C      1  0.5056670000000  0.5991270000000  0.4983230000000 1.0
C      1  0.5201240000000  0.4257720000000  0.4591970000000 1.0
C      1  0.4779890000000  0.5752730000000  0.5408830000000 1.0
C      1  0.4603370000000  0.4601920000000  0.4316860000000 1.0
C      1  0.5381480000000  0.5400720000000  0.5658250000000 1.0
C      1  0.5661800000000  0.5627670000000  0.5045220000000 1.0
C      1  0.4338340000000  0.4335550000000  0.4838240000000 1.0
C      1  0.5083900000000  0.4746970000000  0.5106930000000 1.0
C      1  0.4911510000000  0.5192890000000  0.4955070000000 1.0
C      1  0.4638160000000  0.4220910000000  0.5201880000000 1.0
C      1  0.5262710000000  0.5876210000000  0.4807990000000 1.0
C      1  0.5516930000000  0.5483610000000  0.4572190000000 1.0
C      1  0.4761200000000  0.4609740000000  0.5442580000000 1.0
C      1  0.5412380000000  0.4972930000000  0.4732500000000 1.0
C      1  0.4612110000000  0.5033100000000  0.5287170000000 1.0
C      1  0.4504860000000  0.4187910000000  0.4692270000000 1.0
C      1  0.5393240000000  0.5753120000000  0.5052670000000 1.0
C      1  0.4602450000000  0.4796950000000  0.4866310000000 1.0
C      1  0.5436700000000  0.5293710000000  0.5108870000000 1.0
C      1  0.5250250000000  0.4322420000000  0.4878310000000 1.0
C      1  0.4715390000000  0.5671470000000  0.5124290000000 1.0
C      1  0.5198730000000  0.5928690000000  0.5221950000000 1.0
C      1  0.4755810000000  0.4091560000000  0.4729960000000 1.0
C      1  0.4318320000000  0.5417070000000  0.4371520000000 1.0
C      1  0.5658670000000  0.4573840000000  0.5642330000000 1.0
C      1  0.5131470000000  0.4962040000000  0.4591910000000 1.0
C      1  0.4918460000000  0.5052990000000  0.5383990000000 1.0
C      1  0.5229760000000  0.4649120000000  0.5541930000000 1.0
C      1  0.4731790000000  0.5293830000000  0.4521580000000 1.0
C      1  0.4578820000000  0.5129490000000  0.5794890000000 1.0
C      1  0.5425730000000  0.4875590000000  0.4217390000000 1.0
C      1  0.5261470000000  0.4944420000000  0.5856540000000 1.0
C      1  0.4741110000000  0.5081160000000  0.4182890000000 1.0
C      1  0.4539790000000  0.4859520000000  0.5725140000000 1.0
C      1  0.5479050000000  0.5143260000000  0.4289850000000 1.0
C      1  0.4762240000000  0.4693540000000  0.5824940000000 1.0
C      1  0.5245890000000  0.5323090000000  0.4249310000000 1.0
C      1  0.5458920000000  0.4812420000000  0.5659890000000 1.0
C      1  0.4507690000000  0.5170470000000  0.4359200000000 1.0
C      1  0.5062910000000  0.4679230000000  0.4576220000000 1.0
C      1  0.4945850000000  0.5347520000000  0.5426000000000 1.0
C      1  0.5575920000000  0.4422330000000  0.5412600000000 1.0
C      1  0.4382160000000  0.5557410000000  0.4606170000000 1.0
C      1  0.5586720000000  0.5188760000000  0.4567890000000 1.0
C      1  0.4506390000000  0.4775590000000  0.5425110000000 1.0
C      1  0.5101330000000  0.5027500000000  0.5113060000000 1.0
END
