TITL C-123187-8068-2 -231.741268097235 125000 -899.771279233237 0 0 131 (C3) n - 1
REM
REM in /rds/project/t2_vol4/rds-t2-cs072/BORA/CARBON/from-Arr/AIRSS/Generating-Clusters/GAP-ML-2020/Higher-Symm/SD-CG/HFTN-CG
REM
REM
REM
REM
REM
REM ./C.cell (b20cbc046b6831c77cfcea5457e17084)
REM AIRSS Version 0.9.1 bugfix July 2018 build 013d7b7c2542+ Fri, 06 Jul 2018 19:26:36 +0100
REM compiler GCC version 9.3.0
REM options -cpp -mtune=generic -march=x86-64 -g -O0
REM seed 1582910816 -1060630389 56397432 1561208287 -314290462 786279743 1574962524 792955548 1624494006 1159536892 -1233499517 1073240151 293684140 -378637190 181956831 -757216707 -222785475 -1578178382 -14279744 280295237 385304048 -1570732582 487191082 934065330 -598139241 1728635332 -1139519628 -739371780 1745053564 -1972429871 -520963310 1156652382 395910825
REM
CELL 1.54180   50.00000   50.00000   50.00000   90.00000   90.00000   90.00000
LATT -1
SFAC C  
C      1  0.5436490000000  0.5245720000000  0.5671130000000 1.0
C      1  0.4574880000000  0.5267320000000  0.5671150000000 1.0
C      1  0.4986980000000  0.4510340000000  0.5671120000000 1.0
C      1  0.4390440000000  0.4445950000000  0.4547570000000 1.0
C      1  0.5790510000000  0.4761370000000  0.4547540000000 1.0
C      1  0.4817310000000  0.5816170000000  0.4547600000000 1.0
C      1  0.5083790000000  0.5274000000000  0.4725930000000 1.0
C      1  0.4726720000000  0.4947800000000  0.4725930000000 1.0
C      1  0.5187760000000  0.4801670000000  0.4725910000000 1.0
C      1  0.5270100000000  0.4063660000000  0.4883320000000 1.0
C      1  0.5681750000000  0.5714310000000  0.4883360000000 1.0
C      1  0.4046430000000  0.5245490000000  0.4883380000000 1.0
C      1  0.4114700000000  0.5063110000000  0.5139160000000 1.0
C      1  0.5393910000000  0.4213960000000  0.5139100000000 1.0
C      1  0.5489690000000  0.5746370000000  0.5139150000000 1.0
C      1  0.4379490000000  0.5372360000000  0.5498520000000 1.0
C      1  0.4993700000000  0.4288620000000  0.5498470000000 1.0
C      1  0.5625140000000  0.5362410000000  0.5498490000000 1.0
C      1  0.5324380000000  0.4410030000000  0.4254060000000 1.0
C      1  0.5354650000000  0.5588170000000  0.4254100000000 1.0
C      1  0.4319220000000  0.5025310000000  0.4254100000000 1.0
C      1  0.5622340000000  0.5119680000000  0.4234390000000 1.0
C      1  0.4591100000000  0.5491380000000  0.4234420000000 1.0
C      1  0.4784810000000  0.4412440000000  0.4234390000000 1.0
C      1  0.5612480000000  0.4847980000000  0.4333910000000 1.0
C      1  0.4831320000000  0.5618700000000  0.4333950000000 1.0
C      1  0.4554450000000  0.4556830000000  0.4333930000000 1.0
C      1  0.4007790000000  0.5026100000000  0.4692600000000 1.0
C      1  0.5479420000000  0.4139900000000  0.4692540000000 1.0
C      1  0.5511070000000  0.5857480000000  0.4692590000000 1.0
C      1  0.4693100000000  0.4695790000000  0.4875950000000 1.0
C      1  0.5422810000000  0.4898540000000  0.4875940000000 1.0
C      1  0.4882370000000  0.5429120000000  0.4875970000000 1.0
C      1  0.5637540000000  0.4657730000000  0.5401580000000 1.0
C      1  0.4983570000000  0.5735440000000  0.5401630000000 1.0
C      1  0.4377220000000  0.4630230000000  0.5401620000000 1.0
C      1  0.5264380000000  0.5538490000000  0.5072640000000 1.0
C      1  0.4407380000000  0.4971920000000  0.5072650000000 1.0
C      1  0.5326540000000  0.4513020000000  0.5072610000000 1.0
C      1  0.5090920000000  0.5493470000000  0.4285600000000 1.0
C      1  0.4533090000000  0.4844260000000  0.4285590000000 1.0
C      1  0.5374230000000  0.4685780000000  0.4285560000000 1.0
C      1  0.5717350000000  0.4247270000000  0.4814180000000 1.0
C      1  0.5299120000000  0.6009840000000  0.4814250000000 1.0
C      1  0.3981810000000  0.4766360000000  0.4814240000000 1.0
C      1  0.5045220000000  0.4344640000000  0.4214560000000 1.0
C      1  0.5550860000000  0.5379110000000  0.4214580000000 1.0
C      1  0.4402170000000  0.5299760000000  0.4214590000000 1.0
C      1  0.5491040000000  0.4983390000000  0.5739320000000 1.0
C      1  0.4774790000000  0.5445720000000  0.5739350000000 1.0
C      1  0.4732530000000  0.4594270000000  0.5739320000000 1.0
C      1  0.4615810000000  0.5836890000000  0.4749270000000 1.0
C      1  0.4473240000000  0.4261070000000  0.4749220000000 1.0
C      1  0.5909220000000  0.4925510000000  0.4749200000000 1.0
C      1  0.4014910000000  0.4770660000000  0.5093980000000 1.0
C      1  0.5697080000000  0.4273770000000  0.5093920000000 1.0
C      1  0.5286310000000  0.5979010000000  0.5093980000000 1.0
C      1  0.4761890000000  0.4187340000000  0.4856030000000 1.0
C      1  0.5828760000000  0.5212350000000  0.4856040000000 1.0
C      1  0.4407640000000  0.5623780000000  0.4856080000000 1.0
C      1  0.4599900000000  0.5131990000000  0.4917730000000 1.0
C      1  0.5091660000000  0.4599730000000  0.4917690000000 1.0
C      1  0.5306730000000  0.5291730000000  0.4917710000000 1.0
C      1  0.4996420000000  0.5297510000000  0.5817480000000 1.0
C      1  0.4750060000000  0.4860300000000  0.5817470000000 1.0
C      1  0.5251880000000  0.4865560000000  0.5817460000000 1.0
C      1  0.5158410000000  0.5289800000000  0.5583930000000 1.0
C      1  0.4675740000000  0.5004460000000  0.5583940000000 1.0
C      1  0.5164190000000  0.4729130000000  0.5583910000000 1.0
C      1  0.4241610000000  0.5142970000000  0.5399190000000 1.0
C      1  0.5261300000000  0.4283910000000  0.5399140000000 1.0
C      1  0.5495420000000  0.5596520000000  0.5399170000000 1.0
C      1  0.4893180000000  0.4745160000000  0.5091160000000 1.0
C      1  0.5280020000000  0.5047120000000  0.5091160000000 1.0
C      1  0.4825100000000  0.5231150000000  0.5091180000000 1.0
C      1  0.4497390000000  0.5738200000000  0.5137270000000 1.0
C      1  0.4617920000000  0.4207830000000  0.5137220000000 1.0
C      1  0.5882990000000  0.5077400000000  0.5137220000000 1.0
C      1  0.5450880000000  0.5179660000000  0.4468950000000 1.0
C      1  0.4624880000000  0.5312890000000  0.4468980000000 1.0
C      1  0.4922490000000  0.4530940000000  0.4468940000000 1.0
C      1  0.5787090000000  0.5133610000000  0.5401200000000 1.0
C      1  0.4496660000000  0.5627030000000  0.5401250000000 1.0
C      1  0.4714570000000  0.4262770000000  0.5401200000000 1.0
C      1  0.5854650000000  0.5505940000000  0.4832830000000 1.0
C      1  0.4140430000000  0.5499410000000  0.4832870000000 1.0
C      1  0.5003200000000  0.4018110000000  0.4832810000000 1.0
C      1  0.5091900000000  0.5836340000000  0.4664380000000 1.0
C      1  0.4235670000000  0.4673660000000  0.4664360000000 1.0
C      1  0.5670700000000  0.4513480000000  0.4664320000000 1.0
C      1  0.4401510000000  0.4713120000000  0.4931320000000 1.0
C      1  0.5553600000000  0.4637350000000  0.4931280000000 1.0
C      1  0.5043180000000  0.5672980000000  0.4931330000000 1.0
C      1  0.5120790000000  0.4756900000000  0.4431130000000 1.0
C      1  0.5156040000000  0.5238410000000  0.4431150000000 1.0
C      1  0.4721420000000  0.5028190000000  0.4431160000000 1.0
C      1  0.4191930000000  0.4917240000000  0.4485210000000 1.0
C      1  0.5481620000000  0.4353820000000  0.4485160000000 1.0
C      1  0.5324710000000  0.5752430000000  0.4485210000000 1.0
C      1  0.5200350000000  0.5539060000000  0.5404120000000 1.0
C      1  0.4438910000000  0.4916160000000  0.5404120000000 1.0
C      1  0.5359070000000  0.4568190000000  0.5404080000000 1.0
C      1  0.4703320000000  0.5900200000000  0.5024320000000 1.0
C      1  0.4374660000000  0.4305170000000  0.5024280000000 1.0
C      1  0.5920320000000  0.4818060000000  0.5024250000000 1.0
C      1  0.4251550000000  0.4554030000000  0.5147290000000 1.0
C      1  0.5766360000000  0.4587010000000  0.5147250000000 1.0
C      1  0.4980390000000  0.5882390000000  0.5147310000000 1.0
C      1  0.4754290000000  0.5651660000000  0.5542580000000 1.0
C      1  0.4564430000000  0.4473560000000  0.5542550000000 1.0
C      1  0.5679620000000  0.4898180000000  0.5542530000000 1.0
C      1  0.4866330000000  0.4462780000000  0.4758010000000 1.0
C      1  0.5538000000000  0.5165080000000  0.4758010000000 1.0
C      1  0.4593950000000  0.5395610000000  0.4758040000000 1.0
C      1  0.4999480000000  0.5007770000000  0.7505890000000 1.0
C      1  0.4999460000000  0.5007840000000  0.2722410000000 1.0
C      1  0.4999420000000  0.5007820000000  0.4716180000000 1.0
C      1  0.4999420000000  0.5007840000000  0.3486020000000 1.0
C      1  0.4999470000000  0.5007770000000  0.6740920000000 1.0
C      1  0.4999410000000  0.5007840000000  0.4284930000000 1.0
C      1  0.4999420000000  0.5007850000000  0.3236690000000 1.0
C      1  0.4999420000000  0.5007830000000  0.3746780000000 1.0
C      1  0.4999440000000  0.5007800000000  0.5471780000000 1.0
C      1  0.4999440000000  0.5007850000000  0.2976660000000 1.0
C      1  0.4999470000000  0.5007770000000  0.7252200000000 1.0
C      1  0.4999460000000  0.5007790000000  0.5937140000000 1.0
C      1  0.4999460000000  0.5007780000000  0.6226630000000 1.0
C      1  0.4999470000000  0.5007770000000  0.6989060000000 1.0
C      1  0.4999370000000  0.5007870000000  0.3994410000000 1.0
C      1  0.4999460000000  0.5007770000000  0.6475160000000 1.0
C      1  0.4999440000000  0.5007810000000  0.5186330000000 1.0
END
