TITL C-122877-6437-8 0.049818621979861 125000 -425.06711201714 0 0 65 (C5) n - 1
REM
REM in /rds/project/t2_vol4/rds-t2-cs072/BORA/CARBON/from-Arr/AIRSS/Generating-Clusters/GAP-ML-2020/Higher-Symm/SD-CG/HFTN-CG
REM
REM
REM
REM
REM
REM ./C.cell (b20cbc046b6831c77cfcea5457e17084)
REM AIRSS Version 0.9.1 bugfix July 2018 build 013d7b7c2542+ Fri, 06 Jul 2018 19:26:36 +0100
REM compiler GCC version 9.3.0
REM options -cpp -mtune=generic -march=x86-64 -g -O0
REM seed 9406429 538209006 198895316 399855926 -539698924 1834011928 -985440141 1605158511 29289261 -1394034711 -1391032232 -197054814 -731087862 -292646026 6342266 842993852 1701517121 2069554575 -2116673989 -1613297625 -1034129909 -2058714196 -1798731414 -1172265440 -1712540580 517333533 614004631 1689134540 1290236147 957802453 -867914155 890636290 -355869494
REM
CELL 1.54180   50.00000   50.00000   50.00000   90.00000   90.00000   90.00000
LATT -1
SFAC C  
C      1  0.5710300000000  0.4671120000000  0.5266930000000 1.0
C      1  0.5710750000000  0.5152740000000  0.5394260000000 1.0
C      1  0.5710410000000  0.5422680000000  0.4975550000000 1.0
C      1  0.5709750000000  0.5107880000000  0.4589450000000 1.0
C      1  0.5709680000000  0.4643390000000  0.4769530000000 1.0
C      1  0.4249420000000  0.5116630000000  0.4673430000000 1.0
C      1  0.4249320000000  0.4724910000000  0.4789230000000 1.0
C      1  0.4249810000000  0.4713990000000  0.5197560000000 1.0
C      1  0.4250210000000  0.5098970000000  0.5334130000000 1.0
C      1  0.4249970000000  0.5347810000000  0.5010190000000 1.0
C      1  0.4906020000000  0.4384940000000  0.4867720000000 1.0
C      1  0.4907020000000  0.4684060000000  0.5544220000000 1.0
C      1  0.4907380000000  0.5419880000000  0.5468780000000 1.0
C      1  0.4906600000000  0.5575520000000  0.4745660000000 1.0
C      1  0.4905760000000  0.4935890000000  0.4374180000000 1.0
C      1  0.5373110000000  0.5525470000000  0.5309980000000 1.0
C      1  0.5372200000000  0.5457460000000  0.4595510000000 1.0
C      1  0.5371580000000  0.4756940000000  0.4439410000000 1.0
C      1  0.5372100000000  0.4392000000000  0.5057400000000 1.0
C      1  0.5373050000000  0.4866980000000  0.5595450000000 1.0
C      1  0.5675370000000  0.4865420000000  0.5488350000000 1.0
C      1  0.5675460000000  0.5423350000000  0.5277950000000 1.0
C      1  0.5674720000000  0.5395650000000  0.4682300000000 1.0
C      1  0.5674180000000  0.4820600000000  0.4524580000000 1.0
C      1  0.5674580000000  0.4492900000000  0.5022740000000 1.0
C      1  0.4777670000000  0.5157110000000  0.4570450000000 1.0
C      1  0.4777530000000  0.4639860000000  0.4718150000000 1.0
C      1  0.4778170000000  0.4620500000000  0.5255730000000 1.0
C      1  0.4778700000000  0.5125780000000  0.5440270000000 1.0
C      1  0.4778390000000  0.5457430000000  0.5016740000000 1.0
C      1  0.5194430000000  0.4661680000000  0.5524010000000 1.0
C      1  0.5194830000000  0.5393950000000  0.5483410000000 1.0
C      1  0.5194090000000  0.5581630000000  0.4774430000000 1.0
C      1  0.5193230000000  0.4965350000000  0.4376860000000 1.0
C      1  0.5193440000000  0.4396790000000  0.4840120000000 1.0
C      1  0.4802730000000  0.4697700000000  0.4438720000000 1.0
C      1  0.4803340000000  0.4372630000000  0.5114340000000 1.0
C      1  0.4804300000000  0.4914730000000  0.5632270000000 1.0
C      1  0.4804280000000  0.5574840000000  0.5276760000000 1.0
C      1  0.4803310000000  0.5440710000000  0.4539100000000 1.0
C      1  0.5463930000000  0.5073580000000  0.4768630000000 1.0
C      1  0.5463870000000  0.4803020000000  0.4857870000000 1.0
C      1  0.5464220000000  0.4804290000000  0.5142760000000 1.0
C      1  0.5464490000000  0.5075630000000  0.5229580000000 1.0
C      1  0.5464310000000  0.5242050000000  0.4998360000000 1.0
C      1  0.4534470000000  0.5080910000000  0.5252260000000 1.0
C      1  0.4534280000000  0.5264580000000  0.5001660000000 1.0
C      1  0.4533860000000  0.5083000000000  0.4749550000000 1.0
C      1  0.4533800000000  0.4787120000000  0.4844330000000 1.0
C      1  0.4534170000000  0.4785830000000  0.5155020000000 1.0
C      1  0.5246030000000  0.4622110000000  0.5233270000000 1.0
C      1  0.5246560000000  0.5105260000000  0.5431120000000 1.0
C      1  0.5246290000000  0.5442730000000  0.5032770000000 1.0
C      1  0.5245590000000  0.5168150000000  0.4588720000000 1.0
C      1  0.5245420000000  0.4660990000000  0.4712630000000 1.0
C      1  0.5005660000000  0.4777590000000  0.5125090000000 1.0
C      1  0.5005980000000  0.5050240000000  0.5250170000000 1.0
C      1  0.5005840000000  0.5253450000000  0.5029520000000 1.0
C      1  0.5005430000000  0.5106400000000  0.4768060000000 1.0
C      1  0.5005320000000  0.4812300000000  0.4827130000000 1.0
C      1  0.4060970000000  0.5206970000000  0.5159340000000 1.0
C      1  0.4060610000000  0.5214820000000  0.4853730000000 1.0
C      1  0.4060310000000  0.4926600000000  0.4751830000000 1.0
C      1  0.4060480000000  0.4740620000000  0.4994460000000 1.0
C      1  0.4060890000000  0.4913900000000  0.5246310000000 1.0
END
