TITL C-126819-9175-10 -962.651592095541 125000 -878.533931950619 0 0 126 (C1) n - 1
REM
REM in /rds/project/t2_vol4/rds-t2-cs072/BORA/CARBON/from-Arr/AIRSS/Generating-Clusters/GAP-ML-2020/Higher-Symm/SD-CG/HFTN-CG
REM
REM
REM
REM
REM
REM ./C.cell (b20cbc046b6831c77cfcea5457e17084)
REM AIRSS Version 0.9.1 bugfix July 2018 build 013d7b7c2542+ Fri, 06 Jul 2018 19:26:36 +0100
REM compiler GCC version 9.3.0
REM options -cpp -mtune=generic -march=x86-64 -g -O0
REM seed -1001530814 -361142304 -72498434 -1713408609 -629316108 -2019097940 615261381 705003695 -327027791 1796508900 -1480681938 1252437495 31801460 774710284 964850604 1743326100 2067815528 1768709808 333611914 803353236 387147294 675192757 1369231528 1294148640 -446573625 1287168185 88798023 32244469 1685750299 922219107 1822231244 711814159 -915698603
REM
CELL 1.54180   50.00000   50.00000   50.00000   90.00000   90.00000   90.00000
LATT -1
SFAC C  
C      1  0.5791930000000  0.5403040000000  0.5529960000000 1.0
C      1  0.4125160000000  0.5418780000000  0.5422410000000 1.0
C      1  0.5044290000000  0.5409820000000  0.4042970000000 1.0
C      1  0.5173410000000  0.5171280000000  0.4076220000000 1.0
C      1  0.5704440000000  0.5169950000000  0.5637240000000 1.0
C      1  0.4105090000000  0.5182910000000  0.5280050000000 1.0
C      1  0.5963170000000  0.4915010000000  0.5254650000000 1.0
C      1  0.4317140000000  0.4882440000000  0.5663800000000 1.0
C      1  0.4713150000000  0.4923890000000  0.4027540000000 1.0
C      1  0.4975920000000  0.5467750000000  0.5368040000000 1.0
C      1  0.4687430000000  0.5451490000000  0.4804710000000 1.0
C      1  0.5316430000000  0.5448400000000  0.4840340000000 1.0
C      1  0.4368910000000  0.4790590000000  0.5170450000000 1.0
C      1  0.5083870000000  0.4675900000000  0.4195150000000 1.0
C      1  0.5627790000000  0.4678480000000  0.5500680000000 1.0
C      1  0.5415450000000  0.5676860000000  0.5553710000000 1.0
C      1  0.4309850000000  0.5681750000000  0.5084920000000 1.0
C      1  0.5257810000000  0.5667190000000  0.4368610000000 1.0
C      1  0.5352140000000  0.4569510000000  0.4235320000000 1.0
C      1  0.5473260000000  0.4572370000000  0.5729270000000 1.0
C      1  0.4182390000000  0.4610750000000  0.5001770000000 1.0
C      1  0.4050930000000  0.5036770000000  0.4774320000000 1.0
C      1  0.5618870000000  0.5009210000000  0.4303540000000 1.0
C      1  0.5286050000000  0.5022840000000  0.5924860000000 1.0
C      1  0.4861610000000  0.4575630000000  0.4381840000000 1.0
C      1  0.5502560000000  0.4589490000000  0.5232920000000 1.0
C      1  0.4641380000000  0.4624090000000  0.5252350000000 1.0
C      1  0.4569230000000  0.4310290000000  0.4639520000000 1.0
C      1  0.5555720000000  0.4292650000000  0.4824470000000 1.0
C      1  0.4938630000000  0.4291360000000  0.5568210000000 1.0
C      1  0.5558680000000  0.5399360000000  0.4647510000000 1.0
C      1  0.5015980000000  0.5427960000000  0.5683430000000 1.0
C      1  0.4402620000000  0.5415160000000  0.4684240000000 1.0
C      1  0.5194400000000  0.5266030000000  0.5277010000000 1.0
C      1  0.4656570000000  0.5250060000000  0.5041400000000 1.0
C      1  0.5117310000000  0.5237470000000  0.4709350000000 1.0
C      1  0.4216090000000  0.5480230000000  0.4901590000000 1.0
C      1  0.5455840000000  0.5458490000000  0.4377320000000 1.0
C      1  0.5306340000000  0.5476190000000  0.5728640000000 1.0
C      1  0.4860270000000  0.5289480000000  0.4623630000000 1.0
C      1  0.5387430000000  0.5290900000000  0.5082490000000 1.0
C      1  0.4736080000000  0.5297690000000  0.5305130000000 1.0
C      1  0.4853830000000  0.4475000000000  0.5774590000000 1.0
C      1  0.4411610000000  0.4503070000000  0.4472960000000 1.0
C      1  0.5784540000000  0.4467650000000  0.4741950000000 1.0
C      1  0.5290660000000  0.4734630000000  0.5887230000000 1.0
C      1  0.4071690000000  0.4747560000000  0.4784060000000 1.0
C      1  0.5586900000000  0.4721160000000  0.4312340000000 1.0
C      1  0.4082560000000  0.5234400000000  0.4985540000000 1.0
C      1  0.5432430000000  0.5213860000000  0.4222960000000 1.0
C      1  0.5450380000000  0.5227280000000  0.5796090000000 1.0
C      1  0.4876740000000  0.5834810000000  0.4594710000000 1.0
C      1  0.5410410000000  0.5832000000000  0.5104470000000 1.0
C      1  0.4698040000000  0.5843120000000  0.5309110000000 1.0
C      1  0.4633050000000  0.4145970000000  0.5160310000000 1.0
C      1  0.5065570000000  0.4162400000000  0.4646010000000 1.0
C      1  0.5322910000000  0.4122530000000  0.5252760000000 1.0
C      1  0.4566310000000  0.5819670000000  0.5053250000000 1.0
C      1  0.5163640000000  0.5809700000000  0.4606660000000 1.0
C      1  0.5257430000000  0.5823430000000  0.5350010000000 1.0
C      1  0.4843640000000  0.4318620000000  0.4544020000000 1.0
C      1  0.5507220000000  0.4299200000000  0.5112040000000 1.0
C      1  0.4681090000000  0.4338950000000  0.5398060000000 1.0
C      1  0.4252810000000  0.4354570000000  0.4973820000000 1.0
C      1  0.5375280000000  0.4339400000000  0.4374930000000 1.0
C      1  0.5389160000000  0.4315520000000  0.5693440000000 1.0
C      1  0.4781810000000  0.4817310000000  0.4562100000000 1.0
C      1  0.5493670000000  0.4791460000000  0.5013700000000 1.0
C      1  0.4798060000000  0.4824100000000  0.5386950000000 1.0
C      1  0.5009550000000  0.4922070000000  0.4068200000000 1.0
C      1  0.5785390000000  0.4918860000000  0.5494860000000 1.0
C      1  0.4224430000000  0.4938540000000  0.5386380000000 1.0
C      1  0.5680430000000  0.5723620000000  0.5154780000000 1.0
C      1  0.4514290000000  0.5736490000000  0.5514830000000 1.0
C      1  0.4786780000000  0.5738760000000  0.4332510000000 1.0
C      1  0.4209490000000  0.5014230000000  0.4509390000000 1.0
C      1  0.5785410000000  0.4982780000000  0.4570850000000 1.0
C      1  0.4975210000000  0.5005910000000  0.5921520000000 1.0
C      1  0.4593990000000  0.4669760000000  0.3997700000000 1.0
C      1  0.6021610000000  0.4667860000000  0.5141340000000 1.0
C      1  0.4360790000000  0.4612250000000  0.5716010000000 1.0
C      1  0.4766910000000  0.5448980000000  0.5860140000000 1.0
C      1  0.4361780000000  0.5463690000000  0.4386210000000 1.0
C      1  0.5839180000000  0.5438320000000  0.4759420000000 1.0
C      1  0.4977640000000  0.5761070000000  0.5333360000000 1.0
C      1  0.4716150000000  0.5747680000000  0.4822170000000 1.0
C      1  0.5290240000000  0.5743240000000  0.4853510000000 1.0
C      1  0.4473530000000  0.4216930000000  0.4916850000000 1.0
C      1  0.5353850000000  0.4223570000000  0.4612910000000 1.0
C      1  0.5217250000000  0.4194830000000  0.5524170000000 1.0
C      1  0.5842280000000  0.5619030000000  0.4959730000000 1.0
C      1  0.4595790000000  0.5623030000000  0.5750440000000 1.0
C      1  0.4537480000000  0.5640170000000  0.4285990000000 1.0
C      1  0.5976170000000  0.4518730000000  0.4941010000000 1.0
C      1  0.4568990000000  0.4449440000000  0.5682340000000 1.0
C      1  0.4588000000000  0.4553910000000  0.4244790000000 1.0
C      1  0.5001560000000  0.3997490000000  0.4862380000000 1.0
C      1  0.5137490000000  0.3976810000000  0.5106130000000 1.0
C      1  0.4854480000000  0.3991240000000  0.5105100000000 1.0
C      1  0.4309470000000  0.5198900000000  0.4273210000000 1.0
C      1  0.5949690000000  0.5166170000000  0.4770730000000 1.0
C      1  0.4705330000000  0.5169260000000  0.5951760000000 1.0
C      1  0.5073830000000  0.4801910000000  0.5379730000000 1.0
C      1  0.4699940000000  0.4791860000000  0.4825650000000 1.0
C      1  0.5265580000000  0.4763710000000  0.4839680000000 1.0
C      1  0.5003430000000  0.4698710000000  0.5893940000000 1.0
C      1  0.4211450000000  0.4707320000000  0.4537820000000 1.0
C      1  0.5755700000000  0.4682360000000  0.4541670000000 1.0
C      1  0.5578190000000  0.5069890000000  0.5003930000000 1.0
C      1  0.4726250000000  0.5079210000000  0.5508420000000 1.0
C      1  0.4692390000000  0.5083540000000  0.4488270000000 1.0
C      1  0.5076740000000  0.4592870000000  0.4989050000000 1.0
C      1  0.5198530000000  0.4598390000000  0.5245780000000 1.0
C      1  0.4795440000000  0.4599000000000  0.4992880000000 1.0
C      1  0.4529240000000  0.4996500000000  0.4940430000000 1.0
C      1  0.5256180000000  0.4994280000000  0.4673360000000 1.0
C      1  0.5187890000000  0.5046690000000  0.5449180000000 1.0
C      1  0.4432100000000  0.5116770000000  0.4667800000000 1.0
C      1  0.5547910000000  0.5101360000000  0.4692700000000 1.0
C      1  0.4989950000000  0.5134910000000  0.5661300000000 1.0
C      1  0.4573040000000  0.5098270000000  0.4209650000000 1.0
C      1  0.5874330000000  0.5083900000000  0.5036280000000 1.0
C      1  0.4539770000000  0.5053880000000  0.5744290000000 1.0
C      1  0.4268730000000  0.5641100000000  0.5367670000000 1.0
C      1  0.5031540000000  0.5633150000000  0.4193870000000 1.0
C      1  0.5678090000000  0.5629910000000  0.5440330000000 1.0
END
