TITL C-126546-2896-10 3.67698301599754 125000 -398.969403840225 0 0 62 (C2h) n - 1
REM
REM in /rds/project/t2_vol4/rds-t2-cs072/BORA/CARBON/from-Arr/AIRSS/Generating-Clusters/GAP-ML-2020/Higher-Symm/SD-CG/HFTN-CG
REM
REM
REM
REM
REM
REM ./C.cell (b20cbc046b6831c77cfcea5457e17084)
REM AIRSS Version 0.9.1 bugfix July 2018 build 013d7b7c2542+ Fri, 06 Jul 2018 19:26:36 +0100
REM compiler GCC version 9.3.0
REM options -cpp -mtune=generic -march=x86-64 -g -O0
REM seed 1828412563 1153412486 216909940 -847134118 324883183 -1471836121 -1556870894 450766527 290032229 -32122341 82141787 -1905888973 1861762582 -903536234 -679357514 -138934378 -822419676 651039828 -1102801319 167402820 -424879350 853136915 812303365 1467548024 -669424722 2756800 1511985340 261152368 211833928 -395554318 -1163018148 944088287 -1234239877
REM
CELL 1.54180   50.00000   50.00000   50.00000   90.00000   90.00000   90.00000
LATT -1
SFAC C  
C      1  0.5759340000000  0.5132900000000  0.4931710000000 1.0
C      1  0.4736440000000  0.4270610000000  0.4923420000000 1.0
C      1  0.4505160000000  0.5588010000000  0.4902180000000 1.0
C      1  0.5757910000000  0.4864280000000  0.5072560000000 1.0
C      1  0.4737140000000  0.5723420000000  0.5043040000000 1.0
C      1  0.4501120000000  0.4406550000000  0.5051230000000 1.0
C      1  0.4240220000000  0.4863260000000  0.5043000000000 1.0
C      1  0.5263110000000  0.5725540000000  0.5051300000000 1.0
C      1  0.5494400000000  0.4408140000000  0.5072530000000 1.0
C      1  0.4241650000000  0.5131870000000  0.4902160000000 1.0
C      1  0.5262410000000  0.4272730000000  0.4931670000000 1.0
C      1  0.5498430000000  0.5589600000000  0.4923480000000 1.0
C      1  0.4683420000000  0.4480580000000  0.5272350000000 1.0
C      1  0.4702060000000  0.5528190000000  0.5260120000000 1.0
C      1  0.5606110000000  0.4992570000000  0.5284090000000 1.0
C      1  0.4692140000000  0.5520610000000  0.4690650000000 1.0
C      1  0.4709510000000  0.4465530000000  0.4702310000000 1.0
C      1  0.5607740000000  0.5004990000000  0.4714620000000 1.0
C      1  0.5316130000000  0.5515580000000  0.4702370000000 1.0
C      1  0.5297500000000  0.4467970000000  0.4714600000000 1.0
C      1  0.4393450000000  0.5003580000000  0.4690620000000 1.0
C      1  0.5307420000000  0.4475550000000  0.5284060000000 1.0
C      1  0.5290040000000  0.5530620000000  0.5272400000000 1.0
C      1  0.4391810000000  0.4991160000000  0.5260090000000 1.0
C      1  0.5131090000000  0.4269290000000  0.5183680000000 1.0
C      1  0.4300920000000  0.5246260000000  0.5154690000000 1.0
C      1  0.5559630000000  0.5481010000000  0.5179390000000 1.0
C      1  0.5138480000000  0.5724330000000  0.4795380000000 1.0
C      1  0.4302850000000  0.4747790000000  0.4790980000000 1.0
C      1  0.5563890000000  0.4516650000000  0.4820010000000 1.0
C      1  0.4868470000000  0.5726870000000  0.4791030000000 1.0
C      1  0.5698640000000  0.4749900000000  0.4820020000000 1.0
C      1  0.4439930000000  0.4515140000000  0.4795320000000 1.0
C      1  0.4861070000000  0.4271820000000  0.5179330000000 1.0
C      1  0.5696710000000  0.5248360000000  0.5183730000000 1.0
C      1  0.4435670000000  0.5479510000000  0.5154700000000 1.0
C      1  0.4842610000000  0.5274350000000  0.5323750000000 1.0
C      1  0.5323870000000  0.4988400000000  0.5378450000000 1.0
C      1  0.4834350000000  0.4730140000000  0.5338860000000 1.0
C      1  0.4850320000000  0.4720950000000  0.4635820000000 1.0
C      1  0.5317640000000  0.4999960000000  0.4650980000000 1.0
C      1  0.4829510000000  0.5274030000000  0.4596270000000 1.0
C      1  0.5156950000000  0.4721800000000  0.4650960000000 1.0
C      1  0.4675690000000  0.5007760000000  0.4596260000000 1.0
C      1  0.5165210000000  0.5266020000000  0.4635850000000 1.0
C      1  0.5149240000000  0.5275210000000  0.5338890000000 1.0
C      1  0.4681920000000  0.4996200000000  0.5323740000000 1.0
C      1  0.5170040000000  0.4722130000000  0.5378440000000 1.0
C      1  0.5102320000000  0.4708760000000  0.5690630000000 1.0
C      1  0.4708980000000  0.5003950000000  0.5642190000000 1.0
C      1  0.5129740000000  0.5270280000000  0.5651380000000 1.0
C      1  0.5170700000000  0.5246690000000  0.4323360000000 1.0
C      1  0.4697950000000  0.4942440000000  0.4284070000000 1.0
C      1  0.5150150000000  0.4749150000000  0.4332520000000 1.0
C      1  0.4897240000000  0.5287390000000  0.4284090000000 1.0
C      1  0.5290570000000  0.4992210000000  0.4332530000000 1.0
C      1  0.4869820000000  0.4725870000000  0.4323330000000 1.0
C      1  0.4828860000000  0.4749460000000  0.5651360000000 1.0
C      1  0.5301600000000  0.5053720000000  0.5690640000000 1.0
C      1  0.4849400000000  0.5247010000000  0.5642200000000 1.0
C      1  0.4744050000000  0.5145860000000  0.4103110000000 1.0
C      1  0.5255500000000  0.4850300000000  0.5871600000000 1.0
END
