TITL C-126564-5774-7 -0.29250689875808 125000 -852.154422501341 0 0 121 (C1) n - 1
REM
REM in /rds/project/t2_vol4/rds-t2-cs072/BORA/CARBON/from-Arr/AIRSS/Generating-Clusters/GAP-ML-2020/Higher-Symm/SD-CG/HFTN-CG
REM
REM
REM
REM
REM
REM ./C.cell (b20cbc046b6831c77cfcea5457e17084)
REM AIRSS Version 0.9.1 bugfix July 2018 build 013d7b7c2542+ Fri, 06 Jul 2018 19:26:36 +0100
REM compiler GCC version 9.3.0
REM options -cpp -mtune=generic -march=x86-64 -g -O0
REM seed -37781778 920658412 -184036849 153071388 1488720134 1530213891 -269596355 -1651131237 1885923587 1633841169 -1467487249 -359937826 356453583 -567872869 1193853396 758340708 -1273806251 1227752003 -1229378080 1062751613 1097523316 1682811691 884730782 -204707176 -1541914151 -1515401790 -422948555 -684360493 -2020532107 1241821674 -1320770717 -1242244822 -1808512937
REM
CELL 1.54180   50.00000   50.00000   50.00000   90.00000   90.00000   90.00000
LATT -1
SFAC C  
C      1  0.4330340000000  0.5042950000000  0.5667810000000 1.0
C      1  0.5042960000000  0.5672290000000  0.5669210000000 1.0
C      1  0.5667840000000  0.4955660000000  0.5674130000000 1.0
C      1  0.4953390000000  0.4324390000000  0.5680260000000 1.0
C      1  0.4528830000000  0.4467970000000  0.4388310000000 1.0
C      1  0.4469270000000  0.5456400000000  0.4379440000000 1.0
C      1  0.5445870000000  0.5510270000000  0.4380610000000 1.0
C      1  0.5514040000000  0.4522410000000  0.4407960000000 1.0
C      1  0.5047660000000  0.4503500000000  0.4254950000000 1.0
C      1  0.4487220000000  0.4918570000000  0.4239000000000 1.0
C      1  0.4947440000000  0.5629580000000  0.4272200000000 1.0
C      1  0.5504630000000  0.5024140000000  0.4247940000000 1.0
C      1  0.5644040000000  0.5743660000000  0.5053700000000 1.0
C      1  0.5747700000000  0.4348810000000  0.5078330000000 1.0
C      1  0.4356460000000  0.4247180000000  0.5065890000000 1.0
C      1  0.4246870000000  0.5646630000000  0.5059120000000 1.0
C      1  0.5213340000000  0.4183450000000  0.4603340000000 1.0
C      1  0.4201380000000  0.4777460000000  0.4600040000000 1.0
C      1  0.4781230000000  0.5793940000000  0.4595730000000 1.0
C      1  0.5782810000000  0.5211590000000  0.4585780000000 1.0
C      1  0.5006710000000  0.4762320000000  0.4630420000000 1.0
C      1  0.4609490000000  0.5019310000000  0.4710010000000 1.0
C      1  0.4992180000000  0.5362290000000  0.4709010000000 1.0
C      1  0.5383250000000  0.5015580000000  0.4724940000000 1.0
C      1  0.5871630000000  0.4604140000000  0.5050340000000 1.0
C      1  0.4605050000000  0.4109440000000  0.5051670000000 1.0
C      1  0.4113110000000  0.5394170000000  0.5040070000000 1.0
C      1  0.5391040000000  0.5876710000000  0.5034160000000 1.0
C      1  0.4174120000000  0.5293040000000  0.4776850000000 1.0
C      1  0.5286290000000  0.5811910000000  0.4771890000000 1.0
C      1  0.5802220000000  0.4700070000000  0.4786610000000 1.0
C      1  0.4702470000000  0.4147370000000  0.4781730000000 1.0
C      1  0.5278920000000  0.5330800000000  0.5062410000000 1.0
C      1  0.5289360000000  0.4712320000000  0.5048640000000 1.0
C      1  0.4729300000000  0.4685010000000  0.5027700000000 1.0
C      1  0.4668910000000  0.5285200000000  0.5059000000000 1.0
C      1  0.5228290000000  0.5244380000000  0.4804540000000 1.0
C      1  0.5234010000000  0.4791250000000  0.4785470000000 1.0
C      1  0.4768450000000  0.4798180000000  0.4772880000000 1.0
C      1  0.4753540000000  0.5242900000000  0.4797890000000 1.0
C      1  0.5646210000000  0.5368500000000  0.5412300000000 1.0
C      1  0.5361830000000  0.4345700000000  0.5411180000000 1.0
C      1  0.4358440000000  0.4630100000000  0.5400370000000 1.0
C      1  0.4624950000000  0.5653070000000  0.5412820000000 1.0
C      1  0.5011730000000  0.5704450000000  0.4766740000000 1.0
C      1  0.5702450000000  0.4978060000000  0.4767550000000 1.0
C      1  0.4984860000000  0.4135130000000  0.4776930000000 1.0
C      1  0.4287480000000  0.5018630000000  0.4763850000000 1.0
C      1  0.5397930000000  0.4999680000000  0.5798490000000 1.0
C      1  0.4998410000000  0.4596580000000  0.5798120000000 1.0
C      1  0.4600850000000  0.4996980000000  0.5791500000000 1.0
C      1  0.4997150000000  0.5403470000000  0.5795780000000 1.0
C      1  0.5151760000000  0.4185800000000  0.5524640000000 1.0
C      1  0.4200540000000  0.4847410000000  0.5506120000000 1.0
C      1  0.4846190000000  0.5810220000000  0.5512980000000 1.0
C      1  0.5804730000000  0.5152000000000  0.5514330000000 1.0
C      1  0.5712810000000  0.5630320000000  0.5298860000000 1.0
C      1  0.5626000000000  0.4281630000000  0.5318070000000 1.0
C      1  0.4287110000000  0.4366070000000  0.5306570000000 1.0
C      1  0.4360880000000  0.5717320000000  0.5304000000000 1.0
C      1  0.4295630000000  0.4363820000000  0.4815050000000 1.0
C      1  0.4363580000000  0.5707730000000  0.4807260000000 1.0
C      1  0.5702850000000  0.5623440000000  0.4801160000000 1.0
C      1  0.5634560000000  0.4275400000000  0.4828800000000 1.0
C      1  0.4801660000000  0.5155460000000  0.4135710000000 1.0
C      1  0.5075400000000  0.5242700000000  0.4151560000000 1.0
C      1  0.5225990000000  0.5013510000000  0.4193090000000 1.0
C      1  0.4761180000000  0.4843640000000  0.4174310000000 1.0
C      1  0.4695400000000  0.5645370000000  0.4369260000000 1.0
C      1  0.5616200000000  0.5274940000000  0.4365800000000 1.0
C      1  0.5260480000000  0.4357090000000  0.4379020000000 1.0
C      1  0.4353530000000  0.4703800000000  0.4378870000000 1.0
C      1  0.4614390000000  0.5833160000000  0.4818370000000 1.0
C      1  0.5828920000000  0.5374300000000  0.4809280000000 1.0
C      1  0.5389370000000  0.4148490000000  0.4827450000000 1.0
C      1  0.4167090000000  0.4614220000000  0.4823680000000 1.0
C      1  0.4229880000000  0.4839710000000  0.5018300000000 1.0
C      1  0.4838200000000  0.5771720000000  0.5021120000000 1.0
C      1  0.5770880000000  0.5156180000000  0.5016580000000 1.0
C      1  0.5155560000000  0.4178110000000  0.5025480000000 1.0
C      1  0.4248560000000  0.5294280000000  0.5529290000000 1.0
C      1  0.5293790000000  0.5750230000000  0.5527320000000 1.0
C      1  0.5743330000000  0.4705740000000  0.5534790000000 1.0
C      1  0.4705740000000  0.4247610000000  0.5534910000000 1.0
C      1  0.5898880000000  0.4766660000000  0.5284140000000 1.0
C      1  0.4766260000000  0.4087640000000  0.5289900000000 1.0
C      1  0.4091920000000  0.5233070000000  0.5277960000000 1.0
C      1  0.5232550000000  0.5904310000000  0.5273850000000 1.0
C      1  0.4457540000000  0.4366950000000  0.5522080000000 1.0
C      1  0.4363080000000  0.5546300000000  0.5520880000000 1.0
C      1  0.5542810000000  0.5631200000000  0.5516540000000 1.0
C      1  0.5624010000000  0.4457130000000  0.5530620000000 1.0
C      1  0.5488870000000  0.5678430000000  0.4613120000000 1.0
C      1  0.5680240000000  0.4485300000000  0.4641560000000 1.0
C      1  0.4505050000000  0.4300500000000  0.4624350000000 1.0
C      1  0.4305750000000  0.5495080000000  0.4617380000000 1.0
C      1  0.4956270000000  0.5916100000000  0.5261490000000 1.0
C      1  0.5913070000000  0.5042110000000  0.5262940000000 1.0
C      1  0.5043790000000  0.4059660000000  0.5282450000000 1.0
C      1  0.4088900000000  0.4956740000000  0.5260350000000 1.0
C      1  0.5086440000000  0.5195870000000  0.5463230000000 1.0
C      1  0.5200980000000  0.4903780000000  0.5463650000000 1.0
C      1  0.4913560000000  0.4791200000000  0.5451240000000 1.0
C      1  0.4797870000000  0.5081630000000  0.5458280000000 1.0
C      1  0.4494290000000  0.4794790000000  0.5163850000000 1.0
C      1  0.4795400000000  0.5512520000000  0.5181250000000 1.0
C      1  0.5507260000000  0.5195350000000  0.5177530000000 1.0
C      1  0.5184730000000  0.4471240000000  0.5164050000000 1.0
C      1  0.4775740000000  0.4759550000000  0.5733940000000 1.0
C      1  0.4760190000000  0.5226120000000  0.5737590000000 1.0
C      1  0.5221630000000  0.5238320000000  0.5740240000000 1.0
C      1  0.5234330000000  0.4774910000000  0.5743640000000 1.0
C      1  0.4927720000000  0.4611120000000  0.5212530000000 1.0
C      1  0.4598770000000  0.5079760000000  0.5239350000000 1.0
C      1  0.5079060000000  0.5399980000000  0.5247890000000 1.0
C      1  0.5391100000000  0.4904150000000  0.5237510000000 1.0
C      1  0.5182010000000  0.5496200000000  0.4248180000000 1.0
C      1  0.5565570000000  0.4765310000000  0.4305830000000 1.0
C      1  0.4760990000000  0.4527970000000  0.4224670000000 1.0
C      1  0.4537330000000  0.5213160000000  0.4235910000000 1.0
C      1  0.5043840000000  0.4805140000000  0.4316510000000 1.0
END
