TITL C-126559-4969-1 0.103388634885742 125000 -471.096823955042 0 0 70 (C2) n - 1
REM
REM in /rds/project/t2_vol4/rds-t2-cs072/BORA/CARBON/from-Arr/AIRSS/Generating-Clusters/GAP-ML-2020/Higher-Symm/SD-CG/HFTN-CG
REM
REM
REM
REM
REM
REM ./C.cell (b20cbc046b6831c77cfcea5457e17084)
REM AIRSS Version 0.9.1 bugfix July 2018 build 013d7b7c2542+ Fri, 06 Jul 2018 19:26:36 +0100
REM compiler GCC version 9.3.0
REM options -cpp -mtune=generic -march=x86-64 -g -O0
REM seed -1668484280 1836661278 -76948708 628908440 2081603356 -1747880340 1717083274 1238770292 -1538279330 -982097337 -66501241 -826977571 -1341442903 1799311080 556299285 -112631643 1930803021 -569717990 1086954767 76492094 -1261426714 540180683 987166175 459797549 961600269 -773292251 1902436813 -758026710 -249325576 -1231096967 2127138995 1110074538 -141618505
REM
CELL 1.54180   50.00000   50.00000   50.00000   90.00000   90.00000   90.00000
LATT -1
SFAC C  
C      1  0.5778490000000  0.4951650000000  0.4770780000000 1.0
C      1  0.4187250000000  0.5062080000000  0.4981240000000 1.0
C      1  0.4220540000000  0.4982500000000  0.5243370000000 1.0
C      1  0.5814240000000  0.5038800000000  0.5030160000000 1.0
C      1  0.4960170000000  0.5791230000000  0.4865460000000 1.0
C      1  0.5010390000000  0.4262100000000  0.4880610000000 1.0
C      1  0.4967840000000  0.4267280000000  0.5156700000000 1.0
C      1  0.5063290000000  0.5793920000000  0.5121480000000 1.0
C      1  0.5209450000000  0.4892730000000  0.5927330000000 1.0
C      1  0.4640360000000  0.5072830000000  0.5868970000000 1.0
C      1  0.4787020000000  0.4868690000000  0.4089670000000 1.0
C      1  0.5361220000000  0.5033700000000  0.4142340000000 1.0
C      1  0.4840500000000  0.5286100000000  0.5856650000000 1.0
C      1  0.5016130000000  0.4681900000000  0.5903640000000 1.0
C      1  0.4974030000000  0.4653130000000  0.4120390000000 1.0
C      1  0.5167480000000  0.5253080000000  0.4147530000000 1.0
C      1  0.5130120000000  0.5637790000000  0.4664310000000 1.0
C      1  0.4799530000000  0.4405140000000  0.4728340000000 1.0
C      1  0.4888980000000  0.5652300000000  0.5327490000000 1.0
C      1  0.5182910000000  0.4408960000000  0.5304270000000 1.0
C      1  0.5618120000000  0.5151290000000  0.4623890000000 1.0
C      1  0.4302980000000  0.4862280000000  0.4799190000000 1.0
C      1  0.5692740000000  0.4848620000000  0.5218650000000 1.0
C      1  0.4386810000000  0.5182040000000  0.5383680000000 1.0
C      1  0.4373380000000  0.5277120000000  0.5000640000000 1.0
C      1  0.5591770000000  0.4745660000000  0.4849920000000 1.0
C      1  0.5634550000000  0.5258490000000  0.5003590000000 1.0
C      1  0.4401040000000  0.4768590000000  0.5171160000000 1.0
C      1  0.5230050000000  0.4438830000000  0.4890340000000 1.0
C      1  0.4753610000000  0.5613830000000  0.4944160000000 1.0
C      1  0.5264480000000  0.5607990000000  0.5048770000000 1.0
C      1  0.4753500000000  0.4450020000000  0.5141050000000 1.0
C      1  0.5320390000000  0.4850540000000  0.4370880000000 1.0
C      1  0.4794910000000  0.5031960000000  0.4320060000000 1.0
C      1  0.4675640000000  0.4881110000000  0.5646610000000 1.0
C      1  0.5206280000000  0.5048490000000  0.5691680000000 1.0
C      1  0.4960620000000  0.5262890000000  0.4352820000000 1.0
C      1  0.5111420000000  0.4657880000000  0.4379650000000 1.0
C      1  0.4878810000000  0.4682180000000  0.5644300000000 1.0
C      1  0.5047470000000  0.5283010000000  0.5651250000000 1.0
C      1  0.4878530000000  0.5333660000000  0.4886680000000 1.0
C      1  0.5087820000000  0.4718060000000  0.4884170000000 1.0
C      1  0.5131350000000  0.5333690000000  0.5115380000000 1.0
C      1  0.4903940000000  0.4724970000000  0.5138080000000 1.0
C      1  0.5311040000000  0.4904200000000  0.4860890000000 1.0
C      1  0.4651870000000  0.5135410000000  0.4934210000000 1.0
C      1  0.5352020000000  0.5127350000000  0.5074530000000 1.0
C      1  0.4686330000000  0.4918300000000  0.5155100000000 1.0
C      1  0.5456140000000  0.4974290000000  0.5305890000000 1.0
C      1  0.4626920000000  0.5023300000000  0.5416660000000 1.0
C      1  0.4543160000000  0.4977950000000  0.4707960000000 1.0
C      1  0.5373400000000  0.4998720000000  0.4596050000000 1.0
C      1  0.5035590000000  0.5416280000000  0.5399960000000 1.0
C      1  0.5068360000000  0.4672340000000  0.5403130000000 1.0
C      1  0.4921780000000  0.4661620000000  0.4620920000000 1.0
C      1  0.4976550000000  0.5403960000000  0.4599580000000 1.0
C      1  0.5401410000000  0.4434230000000  0.5125510000000 1.0
C      1  0.4626140000000  0.5619070000000  0.5206640000000 1.0
C      1  0.4581960000000  0.4442740000000  0.4906070000000 1.0
C      1  0.5391920000000  0.5600800000000  0.4786320000000 1.0
C      1  0.4414400000000  0.5432220000000  0.5238580000000 1.0
C      1  0.5625070000000  0.4600070000000  0.5092730000000 1.0
C      1  0.4363320000000  0.4616120000000  0.4933250000000 1.0
C      1  0.5598020000000  0.5406820000000  0.4760650000000 1.0
C      1  0.5176480000000  0.5062770000000  0.3948170000000 1.0
C      1  0.5002150000000  0.4843350000000  0.3912470000000 1.0
C      1  0.4993750000000  0.4879620000000  0.6105160000000 1.0
C      1  0.4825970000000  0.5102810000000  0.6062170000000 1.0
C      1  0.5279000000000  0.4871950000000  0.5484470000000 1.0
C      1  0.4717100000000  0.4864580000000  0.4532940000000 1.0
END
