TITL C-127505-201-1 -29.2653122949818 125000 -664.959767462876 0 0 94 (C1) n - 1
REM
REM in /rds/project/t2_vol4/rds-t2-cs072/BORA/CARBON/from-Arr/AIRSS/Generating-Clusters/GAP-ML-2020/Higher-Symm/SD-CG/HFTN-CG
REM
REM
REM
REM
REM
REM ./C.cell (b20cbc046b6831c77cfcea5457e17084)
REM AIRSS Version 0.9.1 bugfix July 2018 build 013d7b7c2542+ Fri, 06 Jul 2018 19:26:36 +0100
REM compiler GCC version 9.3.0
REM options -cpp -mtune=generic -march=x86-64 -g -O0
REM seed 874401232 -507334380 1927623744 315187119 -536089877 294652307 191909646 -536160226 1003182885 -1510017183 432489304 -455226001 -653461682 -1748431854 -1247954163 387455142 -1767414482 -1364213873 -1888639128 136118114 -1855819697 -1862915038 -480468880 -1441922963 2109537870 -1996608520 -1763243578 59855469 1074329864 -1799626494 220935442 740137283 -1740450141
REM
CELL 1.54180   50.00000   50.00000   50.00000   90.00000   90.00000   90.00000
LATT -1
SFAC C  
C      1  0.5710970000000  0.5668670000000  0.4700350000000 1.0
C      1  0.5689970000000  0.4944190000000  0.5745850000000 1.0
C      1  0.5718190000000  0.4409540000000  0.4581890000000 1.0
C      1  0.4285520000000  0.4562900000000  0.5325210000000 1.0
C      1  0.4285440000000  0.4919030000000  0.4597920000000 1.0
C      1  0.4329820000000  0.5672940000000  0.5180640000000 1.0
C      1  0.4661320000000  0.4732400000000  0.5638930000000 1.0
C      1  0.4655200000000  0.4564360000000  0.4484160000000 1.0
C      1  0.4692220000000  0.5721110000000  0.4875220000000 1.0
C      1  0.4890930000000  0.5796810000000  0.5073280000000 1.0
C      1  0.4874140000000  0.4537830000000  0.5631980000000 1.0
C      1  0.4858820000000  0.4684340000000  0.4310190000000 1.0
C      1  0.5048350000000  0.4750110000000  0.5131190000000 1.0
C      1  0.5066280000000  0.5023070000000  0.4721210000000 1.0
C      1  0.5045900000000  0.5246310000000  0.5153030000000 1.0
C      1  0.5533790000000  0.5158530000000  0.5669910000000 1.0
C      1  0.5562380000000  0.4362230000000  0.4804700000000 1.0
C      1  0.5562770000000  0.5501980000000  0.4538300000000 1.0
C      1  0.4709390000000  0.4256980000000  0.4884470000000 1.0
C      1  0.4700590000000  0.5470110000000  0.4434090000000 1.0
C      1  0.4661820000000  0.5254030000000  0.5671250000000 1.0
C      1  0.5624290000000  0.5219340000000  0.4505500000000 1.0
C      1  0.5608850000000  0.5332590000000  0.5446990000000 1.0
C      1  0.5628190000000  0.4468460000000  0.5070160000000 1.0
C      1  0.4772530000000  0.4919090000000  0.4156220000000 1.0
C      1  0.4789580000000  0.5800480000000  0.5343620000000 1.0
C      1  0.4800770000000  0.4282650000000  0.5511960000000 1.0
C      1  0.4400020000000  0.4749960000000  0.5502010000000 1.0
C      1  0.4378060000000  0.4643190000000  0.4603550000000 1.0
C      1  0.4425690000000  0.5612960000000  0.4927260000000 1.0
C      1  0.4382150000000  0.5088470000000  0.4383480000000 1.0
C      1  0.4344490000000  0.5537880000000  0.5444120000000 1.0
C      1  0.4402130000000  0.4308140000000  0.5265890000000 1.0
C      1  0.5222590000000  0.5607580000000  0.5569350000000 1.0
C      1  0.5257180000000  0.4208530000000  0.5245420000000 1.0
C      1  0.5241250000000  0.5186280000000  0.4197180000000 1.0
C      1  0.4728350000000  0.4760970000000  0.4874910000000 1.0
C      1  0.4693600000000  0.5264710000000  0.4853620000000 1.0
C      1  0.4673340000000  0.5013050000000  0.5286150000000 1.0
C      1  0.4240290000000  0.5084080000000  0.4832980000000 1.0
C      1  0.4216010000000  0.4957760000000  0.5090510000000 1.0
C      1  0.4203080000000  0.4675710000000  0.5076710000000 1.0
C      1  0.5737520000000  0.5182780000000  0.5238410000000 1.0
C      1  0.5746460000000  0.4726330000000  0.5047060000000 1.0
C      1  0.5743220000000  0.5117290000000  0.4745890000000 1.0
C      1  0.5416660000000  0.5660830000000  0.5118220000000 1.0
C      1  0.5411840000000  0.4587180000000  0.5514220000000 1.0
C      1  0.5409970000000  0.4773430000000  0.4391320000000 1.0
C      1  0.4449990000000  0.5346460000000  0.4488860000000 1.0
C      1  0.4411170000000  0.5276510000000  0.5523740000000 1.0
C      1  0.4449530000000  0.4303550000000  0.4977140000000 1.0
C      1  0.4790630000000  0.5008910000000  0.4737810000000 1.0
C      1  0.4772080000000  0.5249810000000  0.5137570000000 1.0
C      1  0.4771810000000  0.4769210000000  0.5145560000000 1.0
C      1  0.5111140000000  0.4508200000000  0.4661170000000 1.0
C      1  0.5121650000000  0.5547860000000  0.4749140000000 1.0
C      1  0.5092870000000  0.4950100000000  0.5587920000000 1.0
C      1  0.5458900000000  0.4403020000000  0.5298490000000 1.0
C      1  0.5451490000000  0.5050730000000  0.4337480000000 1.0
C      1  0.5442040000000  0.5563030000000  0.5387330000000 1.0
C      1  0.4823210000000  0.5531460000000  0.4699510000000 1.0
C      1  0.4787500000000  0.4993650000000  0.5590700000000 1.0
C      1  0.4812280000000  0.4475800000000  0.4713160000000 1.0
C      1  0.4886500000000  0.5401710000000  0.4239430000000 1.0
C      1  0.4851000000000  0.5458980000000  0.5713630000000 1.0
C      1  0.4903310000000  0.4128960000000  0.5040030000000 1.0
C      1  0.5631100000000  0.5557680000000  0.4941670000000 1.0
C      1  0.5621940000000  0.4794720000000  0.5520970000000 1.0
C      1  0.5627980000000  0.4672540000000  0.4567290000000 1.0
C      1  0.5741550000000  0.4894580000000  0.5271510000000 1.0
C      1  0.5744340000000  0.4841140000000  0.4780510000000 1.0
C      1  0.5742760000000  0.5290950000000  0.4980170000000 1.0
C      1  0.5158190000000  0.5722440000000  0.4987340000000 1.0
C      1  0.5140510000000  0.4659320000000  0.5620570000000 1.0
C      1  0.5138080000000  0.4638440000000  0.4400510000000 1.0
C      1  0.4538790000000  0.4197800000000  0.5467450000000 1.0
C      1  0.4501100000000  0.4991500000000  0.4157600000000 1.0
C      1  0.4511000000000  0.5750420000000  0.5376910000000 1.0
C      1  0.4958840000000  0.5133100000000  0.4142020000000 1.0
C      1  0.4943690000000  0.5683050000000  0.5543610000000 1.0
C      1  0.4979580000000  0.4173660000000  0.5321220000000 1.0
C      1  0.5252300000000  0.5152040000000  0.5733160000000 1.0
C      1  0.5286180000000  0.4292700000000  0.4762410000000 1.0
C      1  0.5285320000000  0.5568180000000  0.4502560000000 1.0
C      1  0.5187250000000  0.4781970000000  0.4871220000000 1.0
C      1  0.5183580000000  0.5238140000000  0.4882250000000 1.0
C      1  0.5164210000000  0.4998470000000  0.5263740000000 1.0
C      1  0.4304150000000  0.4517720000000  0.4853550000000 1.0
C      1  0.4398180000000  0.5340920000000  0.4778610000000 1.0
C      1  0.4375490000000  0.5017340000000  0.5358260000000 1.0
C      1  0.5182670000000  0.4146730000000  0.4969610000000 1.0
C      1  0.5169560000000  0.5457000000000  0.4279000000000 1.0
C      1  0.5132390000000  0.5398070000000  0.5750510000000 1.0
C      1  0.5348940000000  0.5004760000000  0.5016140000000 1.0
END
