TITL C-122778-5783-9 -327.069322295058 125000 -49.1118722014213 0 0 8 (Cs) n - 1
REM
REM in /rds/project/t2_vol4/rds-t2-cs072/BORA/CARBON/from-Arr/AIRSS/Generating-Clusters/GAP-ML-2020/Higher-Symm/SD-CG/HFTN-CG
REM
REM
REM
REM
REM
REM ./C.cell (b20cbc046b6831c77cfcea5457e17084)
REM AIRSS Version 0.9.1 bugfix July 2018 build 013d7b7c2542+ Fri, 06 Jul 2018 19:26:36 +0100
REM compiler GCC version 9.3.0
REM options -cpp -mtune=generic -march=x86-64 -g -O0
REM seed 676035796 2026750734 72189524 -172327547 1873226298 -263658060 -1726064329 890164187 2103489281 -1628697827 1784561516 572600869 -136051818 -250636275 -1631575294 343207851 736178737 1952729156 644312705 -1457691007 -1921587847 -1581058612 528465011 1809698836 600746181 -826284516 1606194468 1514127423 -1871862675 -689330749 -1208823103 1947087933 783413605
REM
CELL 1.54180   50.00000   50.00000   50.00000   90.00000   90.00000   90.00000
LATT -1
SFAC C  
C      1  0.4981820000000  0.5274150000000  0.5218650000000 1.0
C      1  0.4872880000000  0.5315850000000  0.4979240000000 1.0
C      1  0.4978800000000  0.4697540000000  0.4889550000000 1.0
C      1  0.4870610000000  0.4883320000000  0.4732380000000 1.0
C      1  0.5178150000000  0.5117000000000  0.5257280000000 1.0
C      1  0.5176200000000  0.4742650000000  0.5043620000000 1.0
C      1  0.5313810000000  0.4901600000000  0.5198650000000 1.0
C      1  0.4874830000000  0.5129860000000  0.4802740000000 1.0
END
