TITL C-122793-4652-1 -116.065150084941 125000 -181.781458642728 0 0 29 (C1) n - 1
REM
REM in /rds/project/t2_vol4/rds-t2-cs072/BORA/CARBON/from-Arr/AIRSS/Generating-Clusters/GAP-ML-2020/Higher-Symm/SD-CG/HFTN-CG
REM
REM
REM
REM
REM
REM ./C.cell (b20cbc046b6831c77cfcea5457e17084)
REM AIRSS Version 0.9.1 bugfix July 2018 build 013d7b7c2542+ Fri, 06 Jul 2018 19:26:36 +0100
REM compiler GCC version 9.3.0
REM options -cpp -mtune=generic -march=x86-64 -g -O0
REM seed 988172407 -1535438039 535376087 1173085640 -735690038 -1084296289 880615717 -1695401435 3592653 -717154273 -1317893368 -833133326 -1139793176 -1379052852 -1456137448 -219136173 -1775751382 784746367 2092474791 -670877783 -1871461270 1054885236 -1687995997 -1792565421 1338624508 -1078587414 752698114 -1948188596 -1901962248 -945677838 45705851 1445916656 1522179303
REM
CELL 1.54180   50.00000   50.00000   50.00000   90.00000   90.00000   90.00000
LATT -1
SFAC C  
C      1  0.5120300000000  0.5485180000000  0.5450930000000 1.0
C      1  0.5256180000000  0.5267790000000  0.5629660000000 1.0
C      1  0.5426630000000  0.5223250000000  0.5365040000000 1.0
C      1  0.4629620000000  0.5531380000000  0.4783680000000 1.0
C      1  0.5282440000000  0.4211580000000  0.4682480000000 1.0
C      1  0.4840810000000  0.4467160000000  0.5323350000000 1.0
C      1  0.4774430000000  0.5341550000000  0.4411590000000 1.0
C      1  0.4946960000000  0.4573580000000  0.4752410000000 1.0
C      1  0.4900970000000  0.4751240000000  0.5444900000000 1.0
C      1  0.4478290000000  0.5256130000000  0.4618390000000 1.0
C      1  0.5515000000000  0.4606870000000  0.4592550000000 1.0
C      1  0.4591120000000  0.4665360000000  0.5153600000000 1.0
C      1  0.5121920000000  0.5491090000000  0.5716420000000 1.0
C      1  0.5275970000000  0.5415550000000  0.5224420000000 1.0
C      1  0.5490320000000  0.5127900000000  0.5604580000000 1.0
C      1  0.4865960000000  0.5484030000000  0.4637090000000 1.0
C      1  0.4940080000000  0.4515170000000  0.5569470000000 1.0
C      1  0.5065740000000  0.4349570000000  0.4727250000000 1.0
C      1  0.4391660000000  0.5409830000000  0.4825310000000 1.0
C      1  0.4634050000000  0.4406160000000  0.5154750000000 1.0
C      1  0.5508530000000  0.4343550000000  0.4627110000000 1.0
C      1  0.4559080000000  0.5193240000000  0.4366650000000 1.0
C      1  0.4774240000000  0.4902890000000  0.5247790000000 1.0
C      1  0.5352110000000  0.4803280000000  0.4615780000000 1.0
C      1  0.5090170000000  0.4823820000000  0.4726230000000 1.0
C      1  0.4861780000000  0.5068710000000  0.5056940000000 1.0
C      1  0.5068030000000  0.5353900000000  0.4785710000000 1.0
C      1  0.5221550000000  0.5472340000000  0.4966180000000 1.0
C      1  0.5001720000000  0.5072890000000  0.4839410000000 1.0
END
