TITL C-123296-3127-4 -581.926393871396 125000 -606.641923824392 0 0 88 (C1) n - 1
REM
REM in /rds/project/t2_vol4/rds-t2-cs072/BORA/CARBON/from-Arr/AIRSS/Generating-Clusters/GAP-ML-2020/Higher-Symm/SD-CG/HFTN-CG
REM
REM
REM
REM
REM
REM ./C.cell (b20cbc046b6831c77cfcea5457e17084)
REM AIRSS Version 0.9.1 bugfix July 2018 build 013d7b7c2542+ Fri, 06 Jul 2018 19:26:36 +0100
REM compiler GCC version 9.3.0
REM options -cpp -mtune=generic -march=x86-64 -g -O0
REM seed 1253556463 199177640 -574071441 -36180683 -1375618500 -413012633 -377505404 1433151315 -1902596521 1616901568 1439093196 -443311855 -199235548 -1117226937 595533892 336765162 -1594511125 -637838813 -30658570 1352918980 1746130510 -235479910 -103200605 1815784868 -139929918 -1389924343 1912122336 1537446331 -146389754 589087362 733169359 -1559847366 1586201301
REM
CELL 1.54180   50.00000   50.00000   50.00000   90.00000   90.00000   90.00000
LATT -1
SFAC C  
C      1  0.5789410000000  0.5221170000000  0.4898210000000 1.0
C      1  0.4514070000000  0.5227980000000  0.4358200000000 1.0
C      1  0.4687640000000  0.5225410000000  0.5731970000000 1.0
C      1  0.5206660000000  0.5588500000000  0.5179220000000 1.0
C      1  0.5050940000000  0.5590760000000  0.4724730000000 1.0
C      1  0.4735390000000  0.5589070000000  0.5086870000000 1.0
C      1  0.4570080000000  0.5601580000000  0.4625280000000 1.0
C      1  0.4889620000000  0.5600910000000  0.5553090000000 1.0
C      1  0.5533540000000  0.5597900000000  0.4813620000000 1.0
C      1  0.5153270000000  0.3934010000000  0.4894120000000 1.0
C      1  0.4861450000000  0.3944910000000  0.4889810000000 1.0
C      1  0.5004090000000  0.3948800000000  0.5274900000000 1.0
C      1  0.4778590000000  0.5679460000000  0.4803840000000 1.0
C      1  0.4940110000000  0.5677920000000  0.5283190000000 1.0
C      1  0.5275090000000  0.5678390000000  0.4904270000000 1.0
C      1  0.5654120000000  0.5174540000000  0.4641060000000 1.0
C      1  0.4359720000000  0.5178810000000  0.4604840000000 1.0
C      1  0.4978750000000  0.5176260000000  0.5740730000000 1.0
C      1  0.5676860000000  0.4924850000000  0.4485810000000 1.0
C      1  0.4217570000000  0.4926410000000  0.4667270000000 1.0
C      1  0.5101200000000  0.4928110000000  0.5840540000000 1.0
C      1  0.4142740000000  0.4814340000000  0.4939560000000 1.0
C      1  0.5374910000000  0.4816580000000  0.5769090000000 1.0
C      1  0.5481110000000  0.4819290000000  0.4279750000000 1.0
C      1  0.4526150000000  0.5041130000000  0.5585880000000 1.0
C      1  0.5742840000000  0.5033840000000  0.5108870000000 1.0
C      1  0.4720720000000  0.5042960000000  0.4290390000000 1.0
C      1  0.4328100000000  0.4665360000000  0.4604180000000 1.0
C      1  0.4990510000000  0.4670060000000  0.5769840000000 1.0
C      1  0.5668110000000  0.4663380000000  0.4614290000000 1.0
C      1  0.5020000000000  0.4078980000000  0.4703410000000 1.0
C      1  0.4777940000000  0.4060590000000  0.5136590000000 1.0
C      1  0.5225260000000  0.4057210000000  0.5152540000000 1.0
C      1  0.5044960000000  0.5294860000000  0.4827260000000 1.0
C      1  0.4827090000000  0.5293460000000  0.5038000000000 1.0
C      1  0.5119620000000  0.5292400000000  0.5120190000000 1.0
C      1  0.5298890000000  0.4330080000000  0.5145690000000 1.0
C      1  0.4974660000000  0.4346350000000  0.4630080000000 1.0
C      1  0.4716270000000  0.4331440000000  0.5184870000000 1.0
C      1  0.5512390000000  0.4855680000000  0.5014210000000 1.0
C      1  0.4753810000000  0.4865290000000  0.4536430000000 1.0
C      1  0.4721740000000  0.4865220000000  0.5431800000000 1.0
C      1  0.4586670000000  0.5032150000000  0.4730990000000 1.0
C      1  0.4973490000000  0.5033130000000  0.5478660000000 1.0
C      1  0.5429560000000  0.5029620000000  0.4774280000000 1.0
C      1  0.5193280000000  0.4531360000000  0.5346550000000 1.0
C      1  0.5198450000000  0.4541400000000  0.4641370000000 1.0
C      1  0.4595430000000  0.4528260000000  0.4987520000000 1.0
C      1  0.5151660000000  0.5081310000000  0.4053060000000 1.0
C      1  0.4105820000000  0.5076630000000  0.5335940000000 1.0
C      1  0.5737270000000  0.5071870000000  0.5599750000000 1.0
C      1  0.4885320000000  0.4440740000000  0.5391470000000 1.0
C      1  0.5383620000000  0.4430910000000  0.4892760000000 1.0
C      1  0.4711390000000  0.4438820000000  0.4695210000000 1.0
C      1  0.5245990000000  0.4584700000000  0.5650360000000 1.0
C      1  0.5439150000000  0.4585030000000  0.4448800000000 1.0
C      1  0.4306280000000  0.4577550000000  0.4883950000000 1.0
C      1  0.5665190000000  0.5456640000000  0.5275960000000 1.0
C      1  0.4904350000000  0.5464150000000  0.4278350000000 1.0
C      1  0.4421800000000  0.5463010000000  0.5437010000000 1.0
C      1  0.4656810000000  0.5066000000000  0.5001770000000 1.0
C      1  0.5173150000000  0.5064170000000  0.5283150000000 1.0
C      1  0.5160710000000  0.5068320000000  0.4697830000000 1.0
C      1  0.4789490000000  0.4625390000000  0.5579310000000 1.0
C      1  0.5599800000000  0.4612220000000  0.4882220000000 1.0
C      1  0.4592510000000  0.4622930000000  0.4521600000000 1.0
C      1  0.4012760000000  0.4921350000000  0.5155590000000 1.0
C      1  0.5627300000000  0.4923450000000  0.5775850000000 1.0
C      1  0.5358170000000  0.4930450000000  0.4061300000000 1.0
C      1  0.4641640000000  0.5478650000000  0.5616890000000 1.0
C      1  0.5712240000000  0.5474530000000  0.4996320000000 1.0
C      1  0.4638460000000  0.5480510000000  0.4378080000000 1.0
C      1  0.4308650000000  0.5191290000000  0.5472620000000 1.0
C      1  0.5751480000000  0.5183530000000  0.5354240000000 1.0
C      1  0.4930080000000  0.5192930000000  0.4161400000000 1.0
C      1  0.5431860000000  0.5578670000000  0.5382260000000 1.0
C      1  0.5114170000000  0.5583230000000  0.4428160000000 1.0
C      1  0.4446940000000  0.5581690000000  0.5180500000000 1.0
C      1  0.5560120000000  0.5454130000000  0.4561540000000 1.0
C      1  0.4337740000000  0.5457260000000  0.4727480000000 1.0
C      1  0.5094350000000  0.5455920000000  0.5702520000000 1.0
C      1  0.5236760000000  0.4809170000000  0.5166920000000 1.0
C      1  0.5025640000000  0.4816240000000  0.4697700000000 1.0
C      1  0.4724960000000  0.4812430000000  0.5115940000000 1.0
C      1  0.5378120000000  0.5546520000000  0.4383400000000 1.0
C      1  0.4275020000000  0.5548440000000  0.4974590000000 1.0
C      1  0.5339540000000  0.5548540000000  0.5634400000000 1.0
C      1  0.4995700000000  0.4794880000000  0.4993800000000 1.0
END
