TITL C-125365-9257-2 70.08293579683 125000 -487.518179417977 0 0 71 (C1) n - 1
REM
REM in /rds/project/t2_vol4/rds-t2-cs072/BORA/CARBON/from-Arr/AIRSS/Generating-Clusters/GAP-ML-2020/Higher-Symm/SD-CG/HFTN-CG
REM
REM
REM
REM
REM
REM ./C.cell (b20cbc046b6831c77cfcea5457e17084)
REM AIRSS Version 0.9.1 bugfix July 2018 build 013d7b7c2542+ Fri, 06 Jul 2018 19:26:36 +0100
REM compiler GCC version 9.3.0
REM options -cpp -mtune=generic -march=x86-64 -g -O0
REM seed -1436544278 1895292762 -1045310543 -1270030211 -1718785257 1417546435 -213019136 1267016991 359286830 -1292976009 1497301361 109980363 -1476218781 1442243811 98680868 -466145904 -1787620315 -527737149 1041278372 -784361845 -1804019931 1096148629 711615671 -1356184749 1250788303 1640149656 -719768618 -1615034277 -383472896 -1042603021 1471329934 172817099 -426744758
REM
CELL 1.54180   50.00000   50.00000   50.00000   90.00000   90.00000   90.00000
LATT -1
SFAC C  
C      1  0.5546740000000  0.4968390000000  0.5533890000000 1.0
C      1  0.5368790000000  0.5400200000000  0.5532510000000 1.0
C      1  0.4914720000000  0.5515620000000  0.5527600000000 1.0
C      1  0.4533110000000  0.5244700000000  0.5515810000000 1.0
C      1  0.4495540000000  0.4780760000000  0.5528420000000 1.0
C      1  0.4853870000000  0.4477880000000  0.5554220000000 1.0
C      1  0.5316990000000  0.4566630000000  0.5549950000000 1.0
C      1  0.4712260000000  0.5148750000000  0.5721750000000 1.0
C      1  0.4685160000000  0.4864010000000  0.5729610000000 1.0
C      1  0.4905730000000  0.4683430000000  0.5745110000000 1.0
C      1  0.5191460000000  0.4742450000000  0.5742180000000 1.0
C      1  0.5341930000000  0.4984830000000  0.5736630000000 1.0
C      1  0.5230790000000  0.5246180000000  0.5732170000000 1.0
C      1  0.4949940000000  0.5310530000000  0.5723890000000 1.0
C      1  0.4779710000000  0.4798820000000  0.4258630000000 1.0
C      1  0.4981190000000  0.4690540000000  0.4105920000000 1.0
C      1  0.5196420000000  0.4804650000000  0.4255090000000 1.0
C      1  0.5187470000000  0.5059970000000  0.4126810000000 1.0
C      1  0.5158960000000  0.5311570000000  0.4244710000000 1.0
C      1  0.4942190000000  0.5202790000000  0.4104890000000 1.0
C      1  0.4726150000000  0.5078240000000  0.4239000000000 1.0
C      1  0.4407940000000  0.5188610000000  0.4662460000000 1.0
C      1  0.4507420000000  0.4625670000000  0.4684390000000 1.0
C      1  0.4998580000000  0.4417870000000  0.4608720000000 1.0
C      1  0.5417880000000  0.4571370000000  0.4682420000000 1.0
C      1  0.5672820000000  0.5084920000000  0.4679070000000 1.0
C      1  0.5323330000000  0.5555820000000  0.4679770000000 1.0
C      1  0.4770200000000  0.5645400000000  0.4687030000000 1.0
C      1  0.4662680000000  0.5472940000000  0.5382340000000 1.0
C      1  0.4398920000000  0.5015890000000  0.5385770000000 1.0
C      1  0.4595590000000  0.4528670000000  0.5404960000000 1.0
C      1  0.5105420000000  0.4418860000000  0.5418430000000 1.0
C      1  0.5544560000000  0.4697910000000  0.5414110000000 1.0
C      1  0.5551300000000  0.5220750000000  0.5383340000000 1.0
C      1  0.5177000000000  0.5586700000000  0.5409960000000 1.0
C      1  0.4696260000000  0.5026060000000  0.5024960000000 1.0
C      1  0.4875640000000  0.4869620000000  0.5172890000000 1.0
C      1  0.5036610000000  0.4688870000000  0.4995820000000 1.0
C      1  0.5273970000000  0.4855070000000  0.5077310000000 1.0
C      1  0.5324280000000  0.5114820000000  0.4948390000000 1.0
C      1  0.5103850000000  0.5272290000000  0.5079960000000 1.0
C      1  0.4833360000000  0.5280210000000  0.4959120000000 1.0
C      1  0.5349380000000  0.5080780000000  0.4646900000000 1.0
C      1  0.5172330000000  0.5328100000000  0.4545770000000 1.0
C      1  0.4867780000000  0.5338840000000  0.4659430000000 1.0
C      1  0.4674270000000  0.5121280000000  0.4531270000000 1.0
C      1  0.4728430000000  0.4797270000000  0.4559680000000 1.0
C      1  0.4986140000000  0.4702330000000  0.4683440000000 1.0
C      1  0.5248340000000  0.4801250000000  0.4552210000000 1.0
C      1  0.5517150000000  0.4694720000000  0.5135050000000 1.0
C      1  0.5569900000000  0.5212770000000  0.5099850000000 1.0
C      1  0.5183940000000  0.5562990000000  0.5132060000000 1.0
C      1  0.4669940000000  0.5499470000000  0.5100340000000 1.0
C      1  0.4417640000000  0.5020070000000  0.5100230000000 1.0
C      1  0.4563900000000  0.4471980000000  0.5144710000000 1.0
C      1  0.5091750000000  0.4412640000000  0.5138940000000 1.0
C      1  0.4956220000000  0.5825380000000  0.4758370000000 1.0
C      1  0.4383760000000  0.5441920000000  0.4737700000000 1.0
C      1  0.4261480000000  0.4741620000000  0.4726180000000 1.0
C      1  0.4841040000000  0.4273960000000  0.4789150000000 1.0
C      1  0.5261300000000  0.4345440000000  0.4714310000000 1.0
C      1  0.5782020000000  0.4848970000000  0.4734460000000 1.0
C      1  0.5580360000000  0.5512780000000  0.4744890000000 1.0
C      1  0.5619110000000  0.4665230000000  0.4864360000000 1.0
C      1  0.5707840000000  0.5312170000000  0.4868180000000 1.0
C      1  0.5167800000000  0.5696850000000  0.4879080000000 1.0
C      1  0.4541200000000  0.5614650000000  0.4869920000000 1.0
C      1  0.4285080000000  0.4987590000000  0.4843840000000 1.0
C      1  0.4613600000000  0.4427800000000  0.4881060000000 1.0
C      1  0.5098870000000  0.4230130000000  0.4929450000000 1.0
C      1  0.5095450000000  0.5029460000000  0.5269220000000 1.0
END
