TITL C-127525-157-7 -64.1319783289769 125000 -186.731562378337 0 0 28 (C1) n - 1
REM
REM in /rds/project/t2_vol4/rds-t2-cs072/BORA/CARBON/from-Arr/AIRSS/Generating-Clusters/GAP-ML-2020/Higher-Symm/SD-CG/HFTN-CG
REM
REM
REM
REM
REM
REM ./C.cell (b20cbc046b6831c77cfcea5457e17084)
REM AIRSS Version 0.9.1 bugfix July 2018 build 013d7b7c2542+ Fri, 06 Jul 2018 19:26:36 +0100
REM compiler GCC version 9.3.0
REM options -cpp -mtune=generic -march=x86-64 -g -O0
REM seed 1511687793 -2116862898 -560734138 880610641 -1773271786 -1103742618 -1312016390 172898926 -290168469 1954982467 1795499198 113046966 -357628750 -1568363296 2067438453 -1396591715 -2062015107 -1743506375 -1401356532 -593865722 -714935792 1570478475 -528275208 427258857 -870126061 681920424 486747424 -1720136228 -134868347 -1931435706 -870921766 1194300644 911753695
REM
CELL 1.54180   50.00000   50.00000   50.00000   90.00000   90.00000   90.00000
LATT -1
SFAC C  
C      1  0.4564460000000  0.5158140000000  0.5130810000000 1.0
C      1  0.4569310000000  0.4864000000000  0.5136540000000 1.0
C      1  0.4584530000000  0.4859650000000  0.4836720000000 1.0
C      1  0.4556070000000  0.5154050000000  0.4834870000000 1.0
C      1  0.5379400000000  0.5132290000000  0.5173800000000 1.0
C      1  0.5388870000000  0.4835450000000  0.5148810000000 1.0
C      1  0.5402480000000  0.4855110000000  0.4857620000000 1.0
C      1  0.5369990000000  0.5151140000000  0.4877500000000 1.0
C      1  0.5029280000000  0.5109440000000  0.4514940000000 1.0
C      1  0.5164120000000  0.5535700000000  0.5249800000000 1.0
C      1  0.5147950000000  0.4753440000000  0.5540200000000 1.0
C      1  0.5172970000000  0.4450220000000  0.4764310000000 1.0
C      1  0.4798060000000  0.5235960000000  0.4442880000000 1.0
C      1  0.4933750000000  0.5488760000000  0.5107910000000 1.0
C      1  0.4917400000000  0.4895040000000  0.5488060000000 1.0
C      1  0.4934840000000  0.4511000000000  0.4889280000000 1.0
C      1  0.4788080000000  0.4712770000000  0.4714850000000 1.0
C      1  0.4717270000000  0.5330420000000  0.4691650000000 1.0
C      1  0.4757770000000  0.5303110000000  0.5271040000000 1.0
C      1  0.4757960000000  0.4732170000000  0.5288410000000 1.0
C      1  0.5252410000000  0.4703110000000  0.4676280000000 1.0
C      1  0.5179460000000  0.5283990000000  0.4719840000000 1.0
C      1  0.5218050000000  0.5279610000000  0.5349280000000 1.0
C      1  0.5217780000000  0.4660400000000  0.5286870000000 1.0
C      1  0.4957840000000  0.5437550000000  0.4833840000000 1.0
C      1  0.5010920000000  0.4834940000000  0.4567040000000 1.0
C      1  0.4946060000000  0.5168860000000  0.5443940000000 1.0
C      1  0.4953880000000  0.4563690000000  0.5162890000000 1.0
END
