TITL C-122790-4641-10 -0.00897708845307208 125000 -32.6567214847796 0 0 6 (C2v) n - 1
REM
REM in /rds/project/t2_vol4/rds-t2-cs072/BORA/CARBON/from-Arr/AIRSS/Generating-Clusters/GAP-ML-2020/Higher-Symm/SD-CG/HFTN-CG
REM
REM
REM
REM
REM
REM ./C.cell (b20cbc046b6831c77cfcea5457e17084)
REM AIRSS Version 0.9.1 bugfix July 2018 build 013d7b7c2542+ Fri, 06 Jul 2018 19:26:36 +0100
REM compiler GCC version 9.3.0
REM options -cpp -mtune=generic -march=x86-64 -g -O0
REM seed -38305916 1307392686 -1409635919 1343461796 1158128894 313605178 1196985952 -962986842 651166829 910050529 -1508994245 -722018987 -1042068110 -2068639887 -1693964058 -449668295 723479750 -2128959154 -1067164875 -783203298 1456721291 -620423155 -1923318706 575232854 -1352483229 -613986188 -448625385 -1227110060 1249845024 1955098349 -1035423723 -241758043 2048103542
REM
CELL 1.54180   50.00000   50.00000   50.00000   90.00000   90.00000   90.00000
LATT -1
SFAC C  
C      1  0.5230080000000  0.5037350000000  0.4800340000000 1.0
C      1  0.5308350000000  0.5153800000000  0.5048660000000 1.0
C      1  0.4811080000000  0.5169460000000  0.5198060000000 1.0
C      1  0.4732810000000  0.5053010000000  0.4949740000000 1.0
C      1  0.5072430000000  0.5117970000000  0.5170260000000 1.0
C      1  0.4979620000000  0.4979880000000  0.4875810000000 1.0
END
