TITL C-122889-6665-2 -70.210100975163 125000 -292.579820324396 0 0 45 (C1) n - 1
REM
REM in /rds/project/t2_vol4/rds-t2-cs072/BORA/CARBON/from-Arr/AIRSS/Generating-Clusters/GAP-ML-2020/Higher-Symm/SD-CG/HFTN-CG
REM
REM
REM
REM
REM
REM ./C.cell (b20cbc046b6831c77cfcea5457e17084)
REM AIRSS Version 0.9.1 bugfix July 2018 build 013d7b7c2542+ Fri, 06 Jul 2018 19:26:36 +0100
REM compiler GCC version 9.3.0
REM options -cpp -mtune=generic -march=x86-64 -g -O0
REM seed -84581101 -1989270567 -725297087 -1392999574 1950741312 2058818317 731697486 -2143364199 -969744750 1127919332 881807155 -20298944 -87881681 -1561778811 686951689 100982916 -1131034987 861949311 -1702313537 567155593 282474352 1367108871 -104738294 1900426032 -624834551 -2107395451 -740561568 -223332603 -1688265683 1509594366 803510125 -1369843977 -1577078812
REM
CELL 1.54180   50.00000   50.00000   50.00000   90.00000   90.00000   90.00000
LATT -1
SFAC C  
C      1  0.5342960000000  0.5030660000000  0.5164350000000 1.0
C      1  0.5038880000000  0.5083710000000  0.4780460000000 1.0
C      1  0.5143200000000  0.4636930000000  0.4963690000000 1.0
C      1  0.4706720000000  0.4771800000000  0.4560290000000 1.0
C      1  0.4907210000000  0.5455220000000  0.4486100000000 1.0
C      1  0.5491250000000  0.5328690000000  0.4910380000000 1.0
C      1  0.4640060000000  0.5632530000000  0.5416500000000 1.0
C      1  0.4795780000000  0.4922970000000  0.4819490000000 1.0
C      1  0.4436720000000  0.4665670000000  0.5172330000000 1.0
C      1  0.4393350000000  0.4665610000000  0.4898660000000 1.0
C      1  0.5130910000000  0.5053020000000  0.5700330000000 1.0
C      1  0.5346650000000  0.4874390000000  0.5621470000000 1.0
C      1  0.5114830000000  0.4556100000000  0.4439550000000 1.0
C      1  0.4950440000000  0.5165520000000  0.5476950000000 1.0
C      1  0.5276960000000  0.4936750000000  0.4887790000000 1.0
C      1  0.5016480000000  0.5304100000000  0.4969720000000 1.0
C      1  0.4687600000000  0.4767090000000  0.5276370000000 1.0
C      1  0.4599450000000  0.5133590000000  0.4857580000000 1.0
C      1  0.4805530000000  0.4896490000000  0.5491640000000 1.0
C      1  0.4737810000000  0.5399380000000  0.4928860000000 1.0
C      1  0.5567160000000  0.5229840000000  0.5166990000000 1.0
C      1  0.5262510000000  0.5044970000000  0.4350040000000 1.0
C      1  0.5101630000000  0.4807540000000  0.4295500000000 1.0
C      1  0.5270900000000  0.4569220000000  0.5231670000000 1.0
C      1  0.5250610000000  0.5487930000000  0.4979490000000 1.0
C      1  0.4361090000000  0.5033100000000  0.4768560000000 1.0
C      1  0.4598530000000  0.4501690000000  0.4971480000000 1.0
C      1  0.4800270000000  0.5578390000000  0.4681630000000 1.0
C      1  0.5188180000000  0.4624040000000  0.5673020000000 1.0
C      1  0.4800490000000  0.5417420000000  0.5452120000000 1.0
C      1  0.4856820000000  0.4935030000000  0.4369660000000 1.0
C      1  0.4834780000000  0.4706140000000  0.5015660000000 1.0
C      1  0.5103120000000  0.4490310000000  0.4710310000000 1.0
C      1  0.4859370000000  0.4511890000000  0.4558590000000 1.0
C      1  0.5378710000000  0.4817730000000  0.5341920000000 1.0
C      1  0.4722500000000  0.5520550000000  0.5187400000000 1.0
C      1  0.4415100000000  0.4786720000000  0.4653350000000 1.0
C      1  0.5484340000000  0.5360110000000  0.5398940000000 1.0
C      1  0.5009080000000  0.5174500000000  0.4489360000000 1.0
C      1  0.5208370000000  0.4432580000000  0.5465590000000 1.0
C      1  0.5509310000000  0.5082350000000  0.4455670000000 1.0
C      1  0.5117490000000  0.5219700000000  0.5242070000000 1.0
C      1  0.5269850000000  0.5481110000000  0.5280330000000 1.0
C      1  0.5500550000000  0.5111090000000  0.4727310000000 1.0
C      1  0.4966450000000  0.4795840000000  0.5710800000000 1.0
END
