TITL C-121835-5062-2 -0.156239391558766 125000 -647.70173295453 0 0 95 (C1) n - 1
REM
REM in /rds/project/t2_vol4/rds-t2-cs072/BORA/CARBON/from-Arr/AIRSS/Generating-Clusters/GAP-ML-2020/Higher-Symm/SD-CG/HFTN-CG
REM
REM
REM
REM
REM
REM ./C.cell (b20cbc046b6831c77cfcea5457e17084)
REM AIRSS Version 0.9.1 bugfix July 2018 build 013d7b7c2542+ Fri, 06 Jul 2018 19:26:36 +0100
REM compiler GCC version 9.3.0
REM options -cpp -mtune=generic -march=x86-64 -g -O0
REM seed 1595879926 1040430482 -1133395793 -1455050916 348264790 -2023724554 -235593632 -2006373476 1697204727 -488074948 -1811016754 -1647366612 1797874216 1272194623 752092843 -1183538358 232938827 1523087852 -166250307 -1491450635 -801265983 -131178470 -2080193024 -1993735157 1047212528 -158914430 -1667998668 1585775056 -1345232583 499189910 -868754690 1782045651 2118854723
REM
CELL 1.54180   50.00000   50.00000   50.00000   90.00000   90.00000   90.00000
LATT -1
SFAC C  
C      1  0.5484640000000  0.4610770000000  0.5197090000000 1.0
C      1  0.5498950000000  0.5021100000000  0.5386900000000 1.0
C      1  0.5551020000000  0.5278870000000  0.5272860000000 1.0
C      1  0.5392340000000  0.5381130000000  0.5043930000000 1.0
C      1  0.5332050000000  0.5199880000000  0.4807450000000 1.0
C      1  0.5444920000000  0.4881450000000  0.4470010000000 1.0
C      1  0.5487600000000  0.4540180000000  0.4921190000000 1.0
C      1  0.5265280000000  0.5629160000000  0.4512230000000 1.0
C      1  0.5276910000000  0.4923460000000  0.4218500000000 1.0
C      1  0.5296570000000  0.4219620000000  0.4521870000000 1.0
C      1  0.5191670000000  0.4173650000000  0.5284220000000 1.0
C      1  0.5165160000000  0.4685850000000  0.5785710000000 1.0
C      1  0.5330320000000  0.5426940000000  0.5823780000000 1.0
C      1  0.5507780000000  0.5854370000000  0.5226680000000 1.0
C      1  0.4947260000000  0.4981450000000  0.4585630000000 1.0
C      1  0.4761730000000  0.4843380000000  0.4741390000000 1.0
C      1  0.5001320000000  0.4584270000000  0.5066080000000 1.0
C      1  0.4863840000000  0.4805630000000  0.5198270000000 1.0
C      1  0.5064500000000  0.5042360000000  0.5190120000000 1.0
C      1  0.4853380000000  0.5205340000000  0.5053280000000 1.0
C      1  0.4876370000000  0.5405190000000  0.4815140000000 1.0
C      1  0.4812180000000  0.5503790000000  0.5466300000000 1.0
C      1  0.4895040000000  0.5597760000000  0.5025980000000 1.0
C      1  0.4798890000000  0.5377630000000  0.4362640000000 1.0
C      1  0.4882090000000  0.4531220000000  0.4292580000000 1.0
C      1  0.4834850000000  0.4314760000000  0.4718940000000 1.0
C      1  0.4957620000000  0.4544330000000  0.5638910000000 1.0
C      1  0.4819640000000  0.5011660000000  0.5649190000000 1.0
C      1  0.4766200000000  0.4399490000000  0.4979880000000 1.0
C      1  0.4760380000000  0.4749680000000  0.5503730000000 1.0
C      1  0.4684980000000  0.5257840000000  0.5589250000000 1.0
C      1  0.4677840000000  0.5602680000000  0.5227920000000 1.0
C      1  0.4676410000000  0.5463590000000  0.4601740000000 1.0
C      1  0.4730000000000  0.5101310000000  0.4380480000000 1.0
C      1  0.4711900000000  0.4429120000000  0.4483010000000 1.0
C      1  0.5170200000000  0.4389110000000  0.5491830000000 1.0
C      1  0.5103740000000  0.4979210000000  0.5726270000000 1.0
C      1  0.5325770000000  0.5585520000000  0.5591870000000 1.0
C      1  0.5342960000000  0.5811210000000  0.5014310000000 1.0
C      1  0.5107680000000  0.5390270000000  0.4389640000000 1.0
C      1  0.5142810000000  0.4622180000000  0.4297860000000 1.0
C      1  0.5125570000000  0.4269230000000  0.4749200000000 1.0
C      1  0.5231420000000  0.5199150000000  0.5883570000000 1.0
C      1  0.5562720000000  0.5652440000000  0.5420530000000 1.0
C      1  0.5416770000000  0.5696110000000  0.4721500000000 1.0
C      1  0.5198470000000  0.5174650000000  0.4204500000000 1.0
C      1  0.5379260000000  0.4438290000000  0.4381770000000 1.0
C      1  0.5163340000000  0.4152360000000  0.5035910000000 1.0
C      1  0.5393380000000  0.4538410000000  0.5653990000000 1.0
C      1  0.4443400000000  0.5030370000000  0.4390820000000 1.0
C      1  0.4439440000000  0.4524830000000  0.4542930000000 1.0
C      1  0.4490390000000  0.4431670000000  0.5038240000000 1.0
C      1  0.4461010000000  0.4713550000000  0.5474460000000 1.0
C      1  0.4408330000000  0.5210210000000  0.5531670000000 1.0
C      1  0.4401830000000  0.5545930000000  0.5169150000000 1.0
C      1  0.4397480000000  0.5457570000000  0.4650110000000 1.0
C      1  0.5924070000000  0.4967820000000  0.5271560000000 1.0
C      1  0.5856090000000  0.5265390000000  0.5178180000000 1.0
C      1  0.5829410000000  0.5340090000000  0.4896060000000 1.0
C      1  0.5824940000000  0.5143680000000  0.4690990000000 1.0
C      1  0.6003200000000  0.4939110000000  0.4656070000000 1.0
C      1  0.5935040000000  0.4728490000000  0.4826720000000 1.0
C      1  0.6007170000000  0.4779580000000  0.5096840000000 1.0
C      1  0.5609260000000  0.4618610000000  0.5489560000000 1.0
C      1  0.5738120000000  0.4872540000000  0.5479860000000 1.0
C      1  0.5757360000000  0.5464680000000  0.5367120000000 1.0
C      1  0.5602840000000  0.5524410000000  0.4875210000000 1.0
C      1  0.5547600000000  0.5110750000000  0.4613200000000 1.0
C      1  0.5574140000000  0.4618630000000  0.4485410000000 1.0
C      1  0.5702720000000  0.4573450000000  0.4740180000000 1.0
C      1  0.4081540000000  0.4945750000000  0.5305320000000 1.0
C      1  0.4052110000000  0.5213490000000  0.5212510000000 1.0
C      1  0.4061440000000  0.5288310000000  0.4935270000000 1.0
C      1  0.4079520000000  0.5121530000000  0.4700260000000 1.0
C      1  0.4106970000000  0.4842250000000  0.4659920000000 1.0
C      1  0.4120310000000  0.4657880000000  0.4869990000000 1.0
C      1  0.4120540000000  0.4709110000000  0.5148360000000 1.0
C      1  0.5209870000000  0.4620000000000  0.5300880000000 1.0
C      1  0.5217290000000  0.4936060000000  0.5435590000000 1.0
C      1  0.5094200000000  0.5578370000000  0.5426430000000 1.0
C      1  0.5165150000000  0.5599370000000  0.5134490000000 1.0
C      1  0.5086100000000  0.5256860000000  0.4661880000000 1.0
C      1  0.5162610000000  0.4762250000000  0.4578790000000 1.0
C      1  0.5196440000000  0.4562170000000  0.4824930000000 1.0
C      1  0.4261930000000  0.5367010000000  0.5345550000000 1.0
C      1  0.4273930000000  0.5488850000000  0.4909600000000 1.0
C      1  0.4275880000000  0.5232150000000  0.4519310000000 1.0
C      1  0.4318940000000  0.4778000000000  0.4464900000000 1.0
C      1  0.4330560000000  0.4470210000000  0.4802640000000 1.0
C      1  0.4351440000000  0.4567160000000  0.5252500000000 1.0
C      1  0.4300050000000  0.4945800000000  0.5499780000000 1.0
C      1  0.5501770000000  0.4889640000000  0.5114650000000 1.0
C      1  0.4433990000000  0.5028990000000  0.5020180000000 1.0
C      1  0.5268780000000  0.4995040000000  0.4992430000000 1.0
C      1  0.4690210000000  0.4970190000000  0.4987710000000 1.0
END
