TITL C-122786-4877-11 38.2034876575064 125000 -190.783776490249 0 0 29 (C1) n - 1
REM
REM in /rds/project/t2_vol4/rds-t2-cs072/BORA/CARBON/from-Arr/AIRSS/Generating-Clusters/GAP-ML-2020/Higher-Symm/SD-CG/HFTN-CG
REM
REM
REM
REM
REM
REM ./C.cell (b20cbc046b6831c77cfcea5457e17084)
REM AIRSS Version 0.9.1 bugfix July 2018 build 013d7b7c2542+ Fri, 06 Jul 2018 19:26:36 +0100
REM compiler GCC version 9.3.0
REM options -cpp -mtune=generic -march=x86-64 -g -O0
REM seed -196473117 694161803 1861131219 -1350079978 539820979 -868096121 1838929836 -1588221854 -806484442 -569567811 -1416306074 1553047901 1847114861 -1488556171 301822750 1535508920 184938625 688318872 -2089239690 768708976 -1253539914 2108050182 -1560078651 -1460542269 1321694045 222153013 1848324555 132220219 -20850383 -1987167204 -2112913948 1654685854 1396173606
REM
CELL 1.54180   50.00000   50.00000   50.00000   90.00000   90.00000   90.00000
LATT -1
SFAC C  
C      1  0.4359100000000  0.5419450000000  0.5105320000000 1.0
C      1  0.4284070000000  0.5309090000000  0.5352490000000 1.0
C      1  0.4259940000000  0.5077990000000  0.5507420000000 1.0
C      1  0.4269860000000  0.4795410000000  0.5485060000000 1.0
C      1  0.4297550000000  0.4582720000000  0.5306330000000 1.0
C      1  0.4310520000000  0.4486100000000  0.5045400000000 1.0
C      1  0.4305200000000  0.4534030000000  0.4770650000000 1.0
C      1  0.4274180000000  0.4712710000000  0.4557240000000 1.0
C      1  0.4260810000000  0.4988230000000  0.4489590000000 1.0
C      1  0.4283640000000  0.5242310000000  0.4603220000000 1.0
C      1  0.4358580000000  0.5394780000000  0.4826990000000 1.0
C      1  0.4638440000000  0.5434610000000  0.5182770000000 1.0
C      1  0.4576420000000  0.5330770000000  0.5435820000000 1.0
C      1  0.4553460000000  0.5082220000000  0.5565670000000 1.0
C      1  0.4563800000000  0.4804480000000  0.5505420000000 1.0
C      1  0.4588600000000  0.4604670000000  0.5306630000000 1.0
C      1  0.4600180000000  0.4515060000000  0.5038990000000 1.0
C      1  0.4595910000000  0.4559240000000  0.4760400000000 1.0
C      1  0.4567870000000  0.4721960000000  0.4531170000000 1.0
C      1  0.4553560000000  0.4986170000000  0.4427850000000 1.0
C      1  0.4575370000000  0.5252420000000  0.4515290000000 1.0
C      1  0.4637640000000  0.5397440000000  0.4747080000000 1.0
C      1  0.6272590000000  0.4847300000000  0.5010020000000 1.0
C      1  0.4817380000000  0.5392850000000  0.4966640000000 1.0
C      1  0.5076500000000  0.5306880000000  0.4973460000000 1.0
C      1  0.5554020000000  0.5118730000000  0.4988380000000 1.0
C      1  0.5789420000000  0.5031680000000  0.4995340000000 1.0
C      1  0.5302960000000  0.5204100000000  0.4981550000000 1.0
C      1  0.6035160000000  0.4938720000000  0.5002740000000 1.0
END
