TITL C-126540-6251-3 53.4014477984883 125000 -545.823220104034 0 0 81 (C1) n - 1
REM
REM in /rds/project/t2_vol4/rds-t2-cs072/BORA/CARBON/from-Arr/AIRSS/Generating-Clusters/GAP-ML-2020/Higher-Symm/SD-CG/HFTN-CG
REM
REM
REM
REM
REM
REM ./C.cell (b20cbc046b6831c77cfcea5457e17084)
REM AIRSS Version 0.9.1 bugfix July 2018 build 013d7b7c2542+ Fri, 06 Jul 2018 19:26:36 +0100
REM compiler GCC version 9.3.0
REM options -cpp -mtune=generic -march=x86-64 -g -O0
REM seed -1785505851 -1050951626 -203415262 1531617611 -1612036105 -1671355077 1986746360 -709163240 770925063 240795858 -1119430419 -1581302442 -2086254498 -1893670881 552518535 347660304 -445120389 -265363033 1474178934 1199299167 1480794276 217874272 -133654927 46873860 1030847633 1099001090 1983430686 37586946 544795552 671347859 69516690 -1370500228 -994786700
REM
CELL 1.54180   50.00000   50.00000   50.00000   90.00000   90.00000   90.00000
LATT -1
SFAC C  
C      1  0.5583760000000  0.5209260000000  0.5278500000000 1.0
C      1  0.5340770000000  0.5357820000000  0.5703970000000 1.0
C      1  0.5311580000000  0.5560150000000  0.5249700000000 1.0
C      1  0.5599670000000  0.4769750000000  0.4662840000000 1.0
C      1  0.4376470000000  0.5295500000000  0.4730730000000 1.0
C      1  0.4436180000000  0.4456790000000  0.5331580000000 1.0
C      1  0.5289410000000  0.4724480000000  0.4313850000000 1.0
C      1  0.4686190000000  0.5267580000000  0.4390030000000 1.0
C      1  0.4672620000000  0.4704730000000  0.5647000000000 1.0
C      1  0.5269060000000  0.4469100000000  0.4733050000000 1.0
C      1  0.4739040000000  0.5606290000000  0.4673240000000 1.0
C      1  0.4718740000000  0.4367470000000  0.5306620000000 1.0
C      1  0.4409470000000  0.5327790000000  0.5242000000000 1.0
C      1  0.4672190000000  0.5261980000000  0.5596500000000 1.0
C      1  0.4690440000000  0.5699070000000  0.5352120000000 1.0
C      1  0.4316110000000  0.4714160000000  0.4711780000000 1.0
C      1  0.5642500000000  0.5300370000000  0.4685450000000 1.0
C      1  0.5650360000000  0.4716630000000  0.5337910000000 1.0
C      1  0.4723890000000  0.4738000000000  0.4401340000000 1.0
C      1  0.5558150000000  0.5338630000000  0.4407560000000 1.0
C      1  0.5285100000000  0.4699250000000  0.5630550000000 1.0
C      1  0.4675030000000  0.4419630000000  0.4764210000000 1.0
C      1  0.5313380000000  0.5650590000000  0.4653710000000 1.0
C      1  0.5281830000000  0.4404000000000  0.5284000000000 1.0
C      1  0.5189940000000  0.5385140000000  0.4642540000000 1.0
C      1  0.5504060000000  0.4953830000000  0.5380440000000 1.0
C      1  0.4764180000000  0.5085990000000  0.5372950000000 1.0
C      1  0.5139780000000  0.4659200000000  0.5195290000000 1.0
C      1  0.4898910000000  0.5397130000000  0.5057210000000 1.0
C      1  0.4737080000000  0.4650460000000  0.4934330000000 1.0
C      1  0.5385090000000  0.5224250000000  0.4817960000000 1.0
C      1  0.4496950000000  0.4811870000000  0.4936280000000 1.0
C      1  0.4663290000000  0.5228590000000  0.5124060000000 1.0
C      1  0.4923600000000  0.4902320000000  0.4570770000000 1.0
C      1  0.5272080000000  0.5227090000000  0.4385050000000 1.0
C      1  0.5227190000000  0.4865870000000  0.5388670000000 1.0
C      1  0.4922300000000  0.5380190000000  0.4755220000000 1.0
C      1  0.4404330000000  0.4745490000000  0.5224370000000 1.0
C      1  0.5065570000000  0.5106570000000  0.5414830000000 1.0
C      1  0.4838580000000  0.4624170000000  0.5212680000000 1.0
C      1  0.5125660000000  0.5311070000000  0.5213960000000 1.0
C      1  0.5206490000000  0.4720560000000  0.4904580000000 1.0
C      1  0.4575720000000  0.5104360000000  0.4865090000000 1.0
C      1  0.5367220000000  0.4931080000000  0.4761590000000 1.0
C      1  0.5385570000000  0.5310920000000  0.5091290000000 1.0
C      1  0.5217850000000  0.4951840000000  0.4496500000000 1.0
C      1  0.4783170000000  0.5138050000000  0.4652160000000 1.0
C      1  0.4663550000000  0.4820570000000  0.5377250000000 1.0
C      1  0.4154470000000  0.5184190000000  0.4841820000000 1.0
C      1  0.5111520000000  0.4837760000000  0.4122390000000 1.0
C      1  0.4860900000000  0.4177100000000  0.5146700000000 1.0
C      1  0.4161300000000  0.4893010000000  0.5152990000000 1.0
C      1  0.5821700000000  0.5124680000000  0.5125880000000 1.0
C      1  0.5812060000000  0.4828700000000  0.4828680000000 1.0
C      1  0.5134510000000  0.5169690000000  0.5731530000000 1.0
C      1  0.4847440000000  0.4856820000000  0.5809260000000 1.0
C      1  0.4817920000000  0.5158660000000  0.4172570000000 1.0
C      1  0.4854110000000  0.5804140000000  0.4832130000000 1.0
C      1  0.5148150000000  0.4240820000000  0.4838610000000 1.0
C      1  0.5167700000000  0.5778010000000  0.5128090000000 1.0
C      1  0.5836320000000  0.5143860000000  0.4837930000000 1.0
C      1  0.4814550000000  0.4843040000000  0.4159860000000 1.0
C      1  0.5158330000000  0.4199500000000  0.5138840000000 1.0
C      1  0.5812620000000  0.4820770000000  0.5130840000000 1.0
C      1  0.4188000000000  0.5186810000000  0.5145300000000 1.0
C      1  0.4122530000000  0.4882830000000  0.4830130000000 1.0
C      1  0.4835170000000  0.5161040000000  0.5801690000000 1.0
C      1  0.5142780000000  0.4848410000000  0.5812950000000 1.0
C      1  0.5111740000000  0.5148550000000  0.4149130000000 1.0
C      1  0.5163690000000  0.5809040000000  0.4835810000000 1.0
C      1  0.4845280000000  0.4211500000000  0.4848480000000 1.0
C      1  0.4859750000000  0.5729700000000  0.5133240000000 1.0
C      1  0.5465770000000  0.4511960000000  0.5464040000000 1.0
C      1  0.4548320000000  0.5479860000000  0.5455620000000 1.0
C      1  0.5575540000000  0.5569570000000  0.4560970000000 1.0
C      1  0.4581240000000  0.4439690000000  0.5565970000000 1.0
C      1  0.4527320000000  0.5458850000000  0.4542470000000 1.0
C      1  0.5427580000000  0.4571040000000  0.4513850000000 1.0
C      1  0.4533870000000  0.4585550000000  0.4554340000000 1.0
C      1  0.5466920000000  0.5453730000000  0.5482280000000 1.0
C      1  0.4950440000000  0.4785590000000  0.4818240000000 1.0
END
