TITL C-122792-5966-6 -0.0162373810413493 125000 -245.385111528332 0 0 38 (C1) n - 1
REM
REM in /rds/project/t2_vol4/rds-t2-cs072/BORA/CARBON/from-Arr/AIRSS/Generating-Clusters/GAP-ML-2020/Higher-Symm/SD-CG/HFTN-CG
REM
REM
REM
REM
REM
REM ./C.cell (b20cbc046b6831c77cfcea5457e17084)
REM AIRSS Version 0.9.1 bugfix July 2018 build 013d7b7c2542+ Fri, 06 Jul 2018 19:26:36 +0100
REM compiler GCC version 9.3.0
REM options -cpp -mtune=generic -march=x86-64 -g -O0
REM seed 1086464275 -1757054473 1929863898 1429662689 1280708477 120327076 1294598052 -1426358571 1004413609 2127594857 1300302979 -1543193837 2020059703 -1416679437 1132633937 1869984271 1694169000 1505051529 -926713508 -1322866691 -1817597482 707784251 2007623013 -1814894616 -1482467379 1081156487 -1006121468 -1207490788 191565159 1218658225 1681257599 -2020069830 182182943
REM
CELL 1.54180   50.00000   50.00000   50.00000   90.00000   90.00000   90.00000
LATT -1
SFAC C  
C      1  0.4712840000000  0.4486240000000  0.5272570000000 1.0
C      1  0.5402400000000  0.4557070000000  0.5041900000000 1.0
C      1  0.4874280000000  0.4564230000000  0.4656320000000 1.0
C      1  0.4750730000000  0.5500580000000  0.5299960000000 1.0
C      1  0.5426380000000  0.5507050000000  0.5110240000000 1.0
C      1  0.4914160000000  0.5505600000000  0.4639930000000 1.0
C      1  0.4704610000000  0.4907250000000  0.4944550000000 1.0
C      1  0.5113040000000  0.4824500000000  0.5243400000000 1.0
C      1  0.5140230000000  0.4941210000000  0.4729770000000 1.0
C      1  0.4701490000000  0.5184930000000  0.5023270000000 1.0
C      1  0.5132380000000  0.5114690000000  0.5280030000000 1.0
C      1  0.5194490000000  0.5216020000000  0.4800590000000 1.0
C      1  0.4489200000000  0.4280820000000  0.4843540000000 1.0
C      1  0.5163290000000  0.4384820000000  0.5497330000000 1.0
C      1  0.5363650000000  0.4361250000000  0.4598440000000 1.0
C      1  0.4541380000000  0.5599180000000  0.4857910000000 1.0
C      1  0.5105540000000  0.5720890000000  0.5488460000000 1.0
C      1  0.5438420000000  0.5624750000000  0.4633320000000 1.0
C      1  0.5331220000000  0.5238790000000  0.5072750000000 1.0
C      1  0.4929460000000  0.5341120000000  0.4888170000000 1.0
C      1  0.4862460000000  0.5223750000000  0.5289040000000 1.0
C      1  0.5209970000000  0.4758200000000  0.4947780000000 1.0
C      1  0.4861190000000  0.4851940000000  0.4698440000000 1.0
C      1  0.4829000000000  0.4717530000000  0.5141570000000 1.0
C      1  0.5140080000000  0.4472920000000  0.4557240000000 1.0
C      1  0.4570160000000  0.4351470000000  0.5081640000000 1.0
C      1  0.5264100000000  0.4564670000000  0.5312340000000 1.0
C      1  0.5204340000000  0.5471200000000  0.4619940000000 1.0
C      1  0.4543730000000  0.5446650000000  0.5076890000000 1.0
C      1  0.5210510000000  0.5624780000000  0.5244040000000 1.0
C      1  0.4899340000000  0.4380530000000  0.5456760000000 1.0
C      1  0.5500680000000  0.4389310000000  0.4848420000000 1.0
C      1  0.4641030000000  0.4409210000000  0.4666740000000 1.0
C      1  0.4839790000000  0.5680740000000  0.5506850000000 1.0
C      1  0.5544750000000  0.5622020000000  0.4882090000000 1.0
C      1  0.4674540000000  0.5649600000000  0.4629900000000 1.0
C      1  0.4972760000000  0.5530820000000  0.5112700000000 1.0
C      1  0.4981140000000  0.4573410000000  0.4928550000000 1.0
END
