TITL C-121820-825-9 35.5578739842173 125000 -594.859392325253 0 0 88 (C1) n - 1
REM
REM in /rds/project/t2_vol4/rds-t2-cs072/BORA/CARBON/from-Arr/AIRSS/Generating-Clusters/GAP-ML-2020/Higher-Symm/SD-CG/HFTN-CG
REM
REM
REM
REM
REM
REM ./C.cell (b20cbc046b6831c77cfcea5457e17084)
REM AIRSS Version 0.9.1 bugfix July 2018 build 013d7b7c2542+ Fri, 06 Jul 2018 19:26:36 +0100
REM compiler GCC version 9.3.0
REM options -cpp -mtune=generic -march=x86-64 -g -O0
REM seed 1483600286 -1525977707 -137767080 -715995147 965952401 2044701895 -523468590 -689652678 236407266 1871203124 60497218 -193998858 -1885946166 709259885 678849628 2108909608 1250425461 987582734 1858911629 -760754071 -528323020 950129447 1615119776 -1877719163 806523307 1700198857 1888641210 -844047737 79024475 -456033112 -240435458 -188442421 -1410627727
REM
CELL 1.54180   50.00000   50.00000   50.00000   90.00000   90.00000   90.00000
LATT -1
SFAC C  
C      1  0.4705320000000  0.4255160000000  0.4652730000000 1.0
C      1  0.4608710000000  0.4238360000000  0.5265730000000 1.0
C      1  0.5169850000000  0.4355620000000  0.5536280000000 1.0
C      1  0.5568090000000  0.4338220000000  0.5119770000000 1.0
C      1  0.5317650000000  0.4321630000000  0.4558380000000 1.0
C      1  0.5114030000000  0.4724160000000  0.4786790000000 1.0
C      1  0.4816000000000  0.4812800000000  0.4793490000000 1.0
C      1  0.4734160000000  0.4812230000000  0.5063200000000 1.0
C      1  0.4969350000000  0.4774530000000  0.5226870000000 1.0
C      1  0.5225100000000  0.4728400000000  0.5075400000000 1.0
C      1  0.5004580000000  0.4937790000000  0.5445390000000 1.0
C      1  0.5441120000000  0.4953870000000  0.5095800000000 1.0
C      1  0.5227090000000  0.4912420000000  0.4597770000000 1.0
C      1  0.4757040000000  0.5046380000000  0.4667470000000 1.0
C      1  0.4531310000000  0.5001350000000  0.5184800000000 1.0
C      1  0.4978450000000  0.4391240000000  0.5738640000000 1.0
C      1  0.5814290000000  0.4372950000000  0.5195220000000 1.0
C      1  0.5432430000000  0.4409380000000  0.4350550000000 1.0
C      1  0.4515930000000  0.4422270000000  0.4554310000000 1.0
C      1  0.4433250000000  0.4435610000000  0.5346390000000 1.0
C      1  0.4577060000000  0.5044550000000  0.5771550000000 1.0
C      1  0.5562970000000  0.4990480000000  0.5572840000000 1.0
C      1  0.5769970000000  0.5049850000000  0.4565090000000 1.0
C      1  0.4811860000000  0.5031850000000  0.4177200000000 1.0
C      1  0.4182180000000  0.4991420000000  0.4863270000000 1.0
C      1  0.4255760000000  0.5316290000000  0.5476250000000 1.0
C      1  0.5241660000000  0.5270130000000  0.5840320000000 1.0
C      1  0.5834380000000  0.5290010000000  0.5001380000000 1.0
C      1  0.5261940000000  0.5289010000000  0.4117550000000 1.0
C      1  0.4393180000000  0.5247790000000  0.4466200000000 1.0
C      1  0.5036710000000  0.5663820000000  0.4611910000000 1.0
C      1  0.4722320000000  0.5648270000000  0.4968880000000 1.0
C      1  0.4785440000000  0.5656510000000  0.5352170000000 1.0
C      1  0.5185350000000  0.5620540000000  0.5261910000000 1.0
C      1  0.5369990000000  0.5635820000000  0.4828290000000 1.0
C      1  0.4783420000000  0.5533540000000  0.4701250000000 1.0
C      1  0.4587540000000  0.5508730000000  0.5187830000000 1.0
C      1  0.5005390000000  0.5493440000000  0.5462980000000 1.0
C      1  0.5392040000000  0.5482170000000  0.5085870000000 1.0
C      1  0.5288860000000  0.5486760000000  0.4569940000000 1.0
C      1  0.4952880000000  0.5206360000000  0.5344340000000 1.0
C      1  0.5298760000000  0.5188410000000  0.4977560000000 1.0
C      1  0.5203640000000  0.5194180000000  0.4688680000000 1.0
C      1  0.4910890000000  0.5247780000000  0.4788080000000 1.0
C      1  0.4682520000000  0.5227110000000  0.5267830000000 1.0
C      1  0.4858340000000  0.4210560000000  0.5142880000000 1.0
C      1  0.5117590000000  0.4265170000000  0.5268050000000 1.0
C      1  0.5294760000000  0.4405610000000  0.5076750000000 1.0
C      1  0.5161660000000  0.4394850000000  0.4789580000000 1.0
C      1  0.4898980000000  0.4243360000000  0.4844680000000 1.0
C      1  0.5229350000000  0.4826630000000  0.4302100000000 1.0
C      1  0.4305590000000  0.4774650000000  0.4471060000000 1.0
C      1  0.4352400000000  0.4854060000000  0.5393770000000 1.0
C      1  0.5150620000000  0.4812200000000  0.5681490000000 1.0
C      1  0.5693120000000  0.4825540000000  0.4986300000000 1.0
C      1  0.5012420000000  0.4639960000000  0.4236920000000 1.0
C      1  0.4284500000000  0.4571220000000  0.4679200000000 1.0
C      1  0.4470530000000  0.4644350000000  0.5561550000000 1.0
C      1  0.5335320000000  0.4596590000000  0.5579430000000 1.0
C      1  0.5652470000000  0.4659080000000  0.4753190000000 1.0
C      1  0.4298750000000  0.5399620000000  0.5215550000000 1.0
C      1  0.4996290000000  0.5376680000000  0.5751860000000 1.0
C      1  0.5652230000000  0.5367100000000  0.5191910000000 1.0
C      1  0.5435070000000  0.5381260000000  0.4332200000000 1.0
C      1  0.4584620000000  0.5435400000000  0.4502320000000 1.0
C      1  0.4640620000000  0.4753730000000  0.5762220000000 1.0
C      1  0.5576870000000  0.4713070000000  0.5488120000000 1.0
C      1  0.5679370000000  0.4778610000000  0.4507950000000 1.0
C      1  0.4759140000000  0.4738650000000  0.4202810000000 1.0
C      1  0.4202960000000  0.4698450000000  0.4930350000000 1.0
C      1  0.4529930000000  0.4640980000000  0.4343330000000 1.0
C      1  0.4252540000000  0.4623590000000  0.5200330000000 1.0
C      1  0.4911950000000  0.4645590000000  0.5802590000000 1.0
C      1  0.5730800000000  0.4639660000000  0.5238010000000 1.0
C      1  0.5491860000000  0.4680290000000  0.4307950000000 1.0
C      1  0.4670850000000  0.5161790000000  0.4393970000000 1.0
C      1  0.4296790000000  0.5152790000000  0.5059020000000 1.0
C      1  0.4763040000000  0.5237660000000  0.5819290000000 1.0
C      1  0.5574920000000  0.5121670000000  0.5326570000000 1.0
C      1  0.5666710000000  0.5247790000000  0.4407970000000 1.0
C      1  0.5102890000000  0.5072260000000  0.4139440000000 1.0
C      1  0.4235690000000  0.5035090000000  0.4581570000000 1.0
C      1  0.4333850000000  0.5091850000000  0.5599600000000 1.0
C      1  0.5348500000000  0.5036240000000  0.5763140000000 1.0
C      1  0.5838080000000  0.5064100000000  0.4854970000000 1.0
C      1  0.5016050000000  0.5181520000000  0.5059160000000 1.0
C      1  0.4966610000000  0.5755240000000  0.5104240000000 1.0
C      1  0.5137970000000  0.5795680000000  0.4843780000000 1.0
END
