TITL C-126815-9219-10 67.5836598175536 125000 -818.730018334575 0 0 117 (C1) n - 1
REM
REM in /rds/project/t2_vol4/rds-t2-cs072/BORA/CARBON/from-Arr/AIRSS/Generating-Clusters/GAP-ML-2020/Higher-Symm/SD-CG/HFTN-CG
REM
REM
REM
REM
REM
REM ./C.cell (b20cbc046b6831c77cfcea5457e17084)
REM AIRSS Version 0.9.1 bugfix July 2018 build 013d7b7c2542+ Fri, 06 Jul 2018 19:26:36 +0100
REM compiler GCC version 9.3.0
REM options -cpp -mtune=generic -march=x86-64 -g -O0
REM seed 1760787873 1894048673 1335650707 73653399 330727078 -1575824789 -449140988 802284169 -929042080 -835781143 702669245 1297618616 -548846480 -826957609 243277799 305502488 -1854038150 393891682 1287154069 -2039158727 967543707 935683869 1687799730 1312281122 763580228 1430340896 1167516907 1618328295 1836210346 -2113778094 -137467254 1304930779 1416523424
REM
CELL 1.54180   50.00000   50.00000   50.00000   90.00000   90.00000   90.00000
LATT -1
SFAC C  
C      1  0.4634700000000  0.5529620000000  0.4832590000000 1.0
C      1  0.4793450000000  0.5583650000000  0.5086200000000 1.0
C      1  0.5017280000000  0.5455920000000  0.5790990000000 1.0
C      1  0.5028230000000  0.5454930000000  0.4227730000000 1.0
C      1  0.5514190000000  0.5624640000000  0.4699690000000 1.0
C      1  0.5492080000000  0.5601980000000  0.5282670000000 1.0
C      1  0.5766520000000  0.4428080000000  0.4860510000000 1.0
C      1  0.5765630000000  0.4428040000000  0.5140720000000 1.0
C      1  0.4120930000000  0.4568700000000  0.4864340000000 1.0
C      1  0.4126460000000  0.4555310000000  0.5158760000000 1.0
C      1  0.5229130000000  0.5029650000000  0.5857660000000 1.0
C      1  0.5236100000000  0.5031090000000  0.4143420000000 1.0
C      1  0.4644430000000  0.5730840000000  0.5462880000000 1.0
C      1  0.4682680000000  0.5679710000000  0.4576700000000 1.0
C      1  0.4567800000000  0.5528060000000  0.5643530000000 1.0
C      1  0.4579610000000  0.5520790000000  0.4364910000000 1.0
C      1  0.5327860000000  0.4201050000000  0.4856960000000 1.0
C      1  0.5326400000000  0.4201770000000  0.5143020000000 1.0
C      1  0.5863180000000  0.4925410000000  0.4859030000000 1.0
C      1  0.5862420000000  0.4924470000000  0.5138480000000 1.0
C      1  0.5748840000000  0.4654910000000  0.4468350000000 1.0
C      1  0.5743350000000  0.4657810000000  0.5530580000000 1.0
C      1  0.5492160000000  0.5446550000000  0.4231290000000 1.0
C      1  0.5478250000000  0.5444750000000  0.5760220000000 1.0
C      1  0.5686970000000  0.5136990000000  0.4713320000000 1.0
C      1  0.5687810000000  0.5135460000000  0.5280380000000 1.0
C      1  0.5104380000000  0.4614810000000  0.4711020000000 1.0
C      1  0.5100090000000  0.4619190000000  0.5284160000000 1.0
C      1  0.5015290000000  0.5787360000000  0.5129680000000 1.0
C      1  0.5073400000000  0.5872940000000  0.4817330000000 1.0
C      1  0.4427450000000  0.4934130000000  0.4237200000000 1.0
C      1  0.4437100000000  0.4942030000000  0.5718530000000 1.0
C      1  0.5006390000000  0.4947660000000  0.5664940000000 1.0
C      1  0.5006350000000  0.4946030000000  0.4324980000000 1.0
C      1  0.5310540000000  0.5744790000000  0.5127010000000 1.0
C      1  0.5346240000000  0.5794530000000  0.4851580000000 1.0
C      1  0.4573680000000  0.4475660000000  0.5541340000000 1.0
C      1  0.4588590000000  0.4460790000000  0.4433470000000 1.0
C      1  0.4924540000000  0.5804460000000  0.5426390000000 1.0
C      1  0.4945240000000  0.5803220000000  0.4576060000000 1.0
C      1  0.5692920000000  0.4878650000000  0.5695810000000 1.0
C      1  0.5699670000000  0.4876150000000  0.4302620000000 1.0
C      1  0.5246330000000  0.5308870000000  0.5873460000000 1.0
C      1  0.5256090000000  0.5309230000000  0.4132670000000 1.0
C      1  0.5547390000000  0.4314000000000  0.4708910000000 1.0
C      1  0.5545200000000  0.4314510000000  0.5291720000000 1.0
C      1  0.4825020000000  0.5320340000000  0.5253910000000 1.0
C      1  0.4761380000000  0.5266150000000  0.4736120000000 1.0
C      1  0.4614560000000  0.4675470000000  0.4836400000000 1.0
C      1  0.4612330000000  0.4692730000000  0.5132150000000 1.0
C      1  0.5065990000000  0.4283050000000  0.5268420000000 1.0
C      1  0.5069330000000  0.4279100000000  0.4726520000000 1.0
C      1  0.4306540000000  0.4341780000000  0.4850540000000 1.0
C      1  0.4310390000000  0.4331310000000  0.5137850000000 1.0
C      1  0.4459040000000  0.4845860000000  0.4665050000000 1.0
C      1  0.4479570000000  0.4912950000000  0.5253470000000 1.0
C      1  0.5646690000000  0.5406690000000  0.4849740000000 1.0
C      1  0.5642730000000  0.5401180000000  0.5137920000000 1.0
C      1  0.5015600000000  0.4232330000000  0.4449540000000 1.0
C      1  0.4998580000000  0.4241600000000  0.5544480000000 1.0
C      1  0.4174310000000  0.4783650000000  0.4683060000000 1.0
C      1  0.4188660000000  0.4756680000000  0.5361290000000 1.0
C      1  0.4854500000000  0.4430800000000  0.4348770000000 1.0
C      1  0.4836300000000  0.4442950000000  0.5636910000000 1.0
C      1  0.5329060000000  0.4596330000000  0.5699890000000 1.0
C      1  0.5335660000000  0.4595860000000  0.4297530000000 1.0
C      1  0.4386960000000  0.5330720000000  0.4460630000000 1.0
C      1  0.4393290000000  0.5338510000000  0.5521130000000 1.0
C      1  0.4533530000000  0.5699880000000  0.5203110000000 1.0
C      1  0.4379960000000  0.5579020000000  0.4999740000000 1.0
C      1  0.5400510000000  0.4988140000000  0.5295460000000 1.0
C      1  0.5399100000000  0.4991840000000  0.4707830000000 1.0
C      1  0.5060600000000  0.4653800000000  0.4396390000000 1.0
C      1  0.5055360000000  0.4655140000000  0.5597170000000 1.0
C      1  0.5338760000000  0.4753560000000  0.4852810000000 1.0
C      1  0.5335330000000  0.4754930000000  0.5144130000000 1.0
C      1  0.4573740000000  0.5118050000000  0.4575470000000 1.0
C      1  0.4604730000000  0.5158850000000  0.5380680000000 1.0
C      1  0.4572480000000  0.4382160000000  0.4729490000000 1.0
C      1  0.4572020000000  0.4393080000000  0.5252360000000 1.0
C      1  0.4894710000000  0.4763970000000  0.4846770000000 1.0
C      1  0.4893640000000  0.4773300000000  0.5147500000000 1.0
C      1  0.4047680000000  0.5191700000000  0.4859880000000 1.0
C      1  0.4045370000000  0.5182860000000  0.5144850000000 1.0
C      1  0.4061880000000  0.5036990000000  0.4608620000000 1.0
C      1  0.4076060000000  0.5027850000000  0.5393640000000 1.0
C      1  0.5402810000000  0.5625830000000  0.4433760000000 1.0
C      1  0.5388570000000  0.5609990000000  0.5549920000000 1.0
C      1  0.4235890000000  0.5128240000000  0.5618930000000 1.0
C      1  0.4226190000000  0.5125500000000  0.4361220000000 1.0
C      1  0.5763120000000  0.5135190000000  0.4410320000000 1.0
C      1  0.5757450000000  0.5138270000000  0.5586700000000 1.0
C      1  0.4803530000000  0.4231630000000  0.4857110000000 1.0
C      1  0.4803370000000  0.4239590000000  0.5133520000000 1.0
C      1  0.4440040000000  0.4702240000000  0.4403080000000 1.0
C      1  0.4398970000000  0.4702290000000  0.5572680000000 1.0
C      1  0.4760780000000  0.5362910000000  0.4212060000000 1.0
C      1  0.4752430000000  0.5361760000000  0.5786610000000 1.0
C      1  0.5858320000000  0.4668300000000  0.5273710000000 1.0
C      1  0.5860800000000  0.4667650000000  0.4726440000000 1.0
C      1  0.5531520000000  0.4466270000000  0.5538500000000 1.0
C      1  0.5535300000000  0.4465110000000  0.4461300000000 1.0
C      1  0.5125040000000  0.5682190000000  0.4385820000000 1.0
C      1  0.5104570000000  0.5654590000000  0.5590370000000 1.0
C      1  0.5146740000000  0.5098110000000  0.4618080000000 1.0
C      1  0.5153940000000  0.5099970000000  0.5394250000000 1.0
C      1  0.5057950000000  0.5374930000000  0.5430320000000 1.0
C      1  0.5023510000000  0.5355360000000  0.4592200000000 1.0
C      1  0.4718730000000  0.5072450000000  0.4283160000000 1.0
C      1  0.4721130000000  0.5076210000000  0.5689280000000 1.0
C      1  0.5739720000000  0.5350560000000  0.5756100000000 1.0
C      1  0.5751100000000  0.5346050000000  0.4238830000000 1.0
C      1  0.5440990000000  0.4837210000000  0.4183760000000 1.0
C      1  0.5434560000000  0.4836440000000  0.5816070000000 1.0
C      1  0.4961720000000  0.5076130000000  0.5150960000000 1.0
C      1  0.4944920000000  0.5059810000000  0.4849910000000 1.0
C      1  0.4155880000000  0.5401690000000  0.5008620000000 1.0
END
