TITL C-125338-9269-12 0.083514343086111 125000 -536.243334191212 0 0 76 (C1) n - 1
REM
REM in /rds/project/t2_vol4/rds-t2-cs072/BORA/CARBON/from-Arr/AIRSS/Generating-Clusters/GAP-ML-2020/Higher-Symm/SD-CG/HFTN-CG
REM
REM
REM
REM
REM
REM ./C.cell (b20cbc046b6831c77cfcea5457e17084)
REM AIRSS Version 0.9.1 bugfix July 2018 build 013d7b7c2542+ Fri, 06 Jul 2018 19:26:36 +0100
REM compiler GCC version 9.3.0
REM options -cpp -mtune=generic -march=x86-64 -g -O0
REM seed 1739213981 184895872 1881613444 -731076997 -1850854265 467086123 50113694 818012329 -1720217168 -1939831529 1345173544 1276942604 -472263267 384087859 1281556110 361031101 145267561 -300454000 991322417 2097029333 -110527438 -1245609252 750367659 999132136 116895839 154378212 349739727 1084358864 53963121 1287240212 -1031500457 668279723 -1299661441
REM
CELL 1.54180   50.00000   50.00000   50.00000   90.00000   90.00000   90.00000
LATT -1
SFAC C  
C      1  0.4650460000000  0.4613420000000  0.5599400000000 1.0
C      1  0.5690340000000  0.4605070000000  0.5022190000000 1.0
C      1  0.4674760000000  0.4601880000000  0.4405080000000 1.0
C      1  0.5009170000000  0.5500270000000  0.4437450000000 1.0
C      1  0.4558430000000  0.5492110000000  0.5268380000000 1.0
C      1  0.5480730000000  0.5483310000000  0.5298970000000 1.0
C      1  0.5276420000000  0.4333910000000  0.5119210000000 1.0
C      1  0.4966460000000  0.4339540000000  0.4728400000000 1.0
C      1  0.4785530000000  0.4343500000000  0.5195520000000 1.0
C      1  0.4484430000000  0.4419210000000  0.4803790000000 1.0
C      1  0.5087930000000  0.4443660000000  0.5574670000000 1.0
C      1  0.5450330000000  0.4430380000000  0.4661030000000 1.0
C      1  0.4681870000000  0.5710510000000  0.5117560000000 1.0
C      1  0.5316500000000  0.5709710000000  0.5295200000000 1.0
C      1  0.5061120000000  0.5728920000000  0.4606110000000 1.0
C      1  0.4823380000000  0.4864540000000  0.4673390000000 1.0
C      1  0.4729270000000  0.4914020000000  0.5284460000000 1.0
C      1  0.5359080000000  0.4867630000000  0.5025760000000 1.0
C      1  0.4868260000000  0.4530890000000  0.5721270000000 1.0
C      1  0.5689930000000  0.4504080000000  0.4776440000000 1.0
C      1  0.4466490000000  0.4498190000000  0.4538550000000 1.0
C      1  0.4920960000000  0.4451050000000  0.4461480000000 1.0
C      1  0.4578330000000  0.4453490000000  0.5367740000000 1.0
C      1  0.5525730000000  0.4450380000000  0.5209670000000 1.0
C      1  0.5532310000000  0.4598630000000  0.5448050000000 1.0
C      1  0.5123010000000  0.4602460000000  0.4339390000000 1.0
C      1  0.4356150000000  0.4586600000000  0.5257180000000 1.0
C      1  0.5314750000000  0.4609760000000  0.5625750000000 1.0
C      1  0.5381650000000  0.4609310000000  0.4446280000000 1.0
C      1  0.4322940000000  0.4584430000000  0.4980340000000 1.0
C      1  0.5062960000000  0.5727910000000  0.5434100000000 1.0
C      1  0.5269600000000  0.5739700000000  0.4806030000000 1.0
C      1  0.4665120000000  0.5739790000000  0.4828170000000 1.0
C      1  0.5642320000000  0.4862840000000  0.5407400000000 1.0
C      1  0.5034300000000  0.4863820000000  0.4253270000000 1.0
C      1  0.4324850000000  0.4856830000000  0.5366180000000 1.0
C      1  0.4743810000000  0.4334300000000  0.4910580000000 1.0
C      1  0.5052790000000  0.4340670000000  0.5299530000000 1.0
C      1  0.5232640000000  0.4333410000000  0.4832250000000 1.0
C      1  0.4929210000000  0.5824190000000  0.5197280000000 1.0
C      1  0.5191740000000  0.5825930000000  0.5058500000000 1.0
C      1  0.4846600000000  0.5884960000000  0.4681100000000 1.0
C      1  0.5578400000000  0.5398800000000  0.5032210000000 1.0
C      1  0.4728350000000  0.5411730000000  0.4452430000000 1.0
C      1  0.4700640000000  0.5391610000000  0.5507460000000 1.0
C      1  0.5234420000000  0.5322710000000  0.4400430000000 1.0
C      1  0.4435740000000  0.5284220000000  0.5093200000000 1.0
C      1  0.5411920000000  0.5307010000000  0.5523200000000 1.0
C      1  0.4710460000000  0.5126930000000  0.5620060000000 1.0
C      1  0.5672380000000  0.5141230000000  0.4948940000000 1.0
C      1  0.4621340000000  0.5151260000000  0.4404750000000 1.0
C      1  0.4691990000000  0.5092730000000  0.5057440000000 1.0
C      1  0.5146650000000  0.4993370000000  0.5161200000000 1.0
C      1  0.5039960000000  0.5027310000000  0.4752720000000 1.0
C      1  0.5468680000000  0.5536260000000  0.4797780000000 1.0
C      1  0.4559950000000  0.5533950000000  0.4665210000000 1.0
C      1  0.4957320000000  0.5511760000000  0.5566270000000 1.0
C      1  0.5463870000000  0.5358330000000  0.4576910000000 1.0
C      1  0.4394910000000  0.5350620000000  0.4793240000000 1.0
C      1  0.5145500000000  0.5313670000000  0.5633040000000 1.0
C      1  0.4553160000000  0.4892660000000  0.5540860000000 1.0
C      1  0.5663010000000  0.4893090000000  0.5114770000000 1.0
C      1  0.4765640000000  0.4892420000000  0.4358080000000 1.0
C      1  0.5492590000000  0.5037590000000  0.5576260000000 1.0
C      1  0.5241280000000  0.5048540000000  0.4313470000000 1.0
C      1  0.4276990000000  0.5033070000000  0.5149890000000 1.0
C      1  0.5278860000000  0.4887620000000  0.5695510000000 1.0
C      1  0.5433370000000  0.4896530000000  0.4471600000000 1.0
C      1  0.4321030000000  0.4861450000000  0.4924790000000 1.0
C      1  0.5318680000000  0.4946780000000  0.4752670000000 1.0
C      1  0.4582070000000  0.4955910000000  0.4815250000000 1.0
C      1  0.4997490000000  0.4894550000000  0.5370040000000 1.0
C      1  0.5561010000000  0.5110370000000  0.4673990000000 1.0
C      1  0.4439670000000  0.5123430000000  0.4631970000000 1.0
C      1  0.5019800000000  0.5052460000000  0.5650550000000 1.0
C      1  0.4982750000000  0.5157970000000  0.4996040000000 1.0
END
