TITL C-125338-9269-4 -0.00719938864954576 125000 -193.434560142771 0 0 30 (Ci) n - 1
REM
REM in /rds/project/t2_vol4/rds-t2-cs072/BORA/CARBON/from-Arr/AIRSS/Generating-Clusters/GAP-ML-2020/Higher-Symm/SD-CG/HFTN-CG
REM
REM
REM
REM
REM
REM ./C.cell (b20cbc046b6831c77cfcea5457e17084)
REM AIRSS Version 0.9.1 bugfix July 2018 build 013d7b7c2542+ Fri, 06 Jul 2018 19:26:36 +0100
REM compiler GCC version 9.3.0
REM options -cpp -mtune=generic -march=x86-64 -g -O0
REM seed 315679142 -1474084344 358344685 -629113899 335690159 -838703775 1417036263 318765508 1891487487 1242116297 1998549286 -304570745 -1582684034 1839413735 -2073556229 702283858 -1399380384 -585239282 1215493706 -1171257267 -1124945496 -57822592 -209839798 -1591503260 1539508597 1778967509 1552204135 -1904890493 -1913423053 1819300497 245724927 517621843 -1949612169
REM
CELL 1.54180   50.00000   50.00000   50.00000   90.00000   90.00000   90.00000
LATT -1
SFAC C  
C      1  0.5475410000000  0.4576170000000  0.4847440000000 1.0
C      1  0.4524590000000  0.5423830000000  0.5152560000000 1.0
C      1  0.5484770000000  0.4914110000000  0.4604460000000 1.0
C      1  0.4515230000000  0.5085890000000  0.5395540000000 1.0
C      1  0.5052840000000  0.4648800000000  0.4674180000000 1.0
C      1  0.4947160000000  0.5351200000000  0.5325820000000 1.0
C      1  0.5038540000000  0.4533430000000  0.4941370000000 1.0
C      1  0.4961460000000  0.5466570000000  0.5058630000000 1.0
C      1  0.4312140000000  0.5025200000000  0.5229190000000 1.0
C      1  0.5687860000000  0.4974800000000  0.4770810000000 1.0
C      1  0.4366810000000  0.5214990000000  0.5039120000000 1.0
C      1  0.5633190000000  0.4785010000000  0.4960880000000 1.0
C      1  0.5440360000000  0.4805330000000  0.5182750000000 1.0
C      1  0.4559640000000  0.5194670000000  0.4817250000000 1.0
C      1  0.5294120000000  0.4567420000000  0.5069120000000 1.0
C      1  0.4705880000000  0.5432580000000  0.4930880000000 1.0
C      1  0.5181360000000  0.5234550000000  0.5433270000000 1.0
C      1  0.4818640000000  0.4765450000000  0.4566730000000 1.0
C      1  0.4792560000000  0.4481480000000  0.5045060000000 1.0
C      1  0.5207440000000  0.5518520000000  0.4954940000000 1.0
C      1  0.4558060000000  0.4581930000000  0.5036170000000 1.0
C      1  0.5441940000000  0.5418070000000  0.4963830000000 1.0
C      1  0.4487790000000  0.4697370000000  0.4788980000000 1.0
C      1  0.5512210000000  0.5302630000000  0.5211020000000 1.0
C      1  0.5367370000000  0.5054790000000  0.5270580000000 1.0
C      1  0.4632630000000  0.4945210000000  0.4729420000000 1.0
C      1  0.4665180000000  0.5312300000000  0.5378680000000 1.0
C      1  0.5334820000000  0.4687700000000  0.4621320000000 1.0
C      1  0.5407240000000  0.5411190000000  0.5452220000000 1.0
C      1  0.4592760000000  0.4588810000000  0.4547780000000 1.0
END
