TITL C-129385-2346-1 -8.53111857363146 125000 -1234.22665763026 0 0 175 (C1) n - 1
REM
REM in /rds/project/t2_vol4/rds-t2-cs072/BORA/CARBON/from-Arr/AIRSS/Generating-Clusters/GAP-ML-2020/Higher-Symm/SD-CG/HFTN-CG/C160-200
REM
REM
REM
REM
REM
REM ./C.cell (6b4489405718ea1b717e0baf1da4c2d9)
REM AIRSS Version 0.9.1 bugfix July 2018 build 013d7b7c2542+ Fri, 06 Jul 2018 19:26:36 +0100
REM compiler GCC version 9.3.0
REM options -cpp -mtune=generic -march=x86-64 -g -O0
REM seed 1869833484 1980337910 1868875791 -1442113630 -660648389 -390792065 -892754448 -2112182686 2105642665 -1272640852 685210473 -1207914105 935305921 2009228507 459138006 986079580 -1648100181 -955729903 1811918289 1965129339 1333678586 -1137603622 383320727 -1723959965 1194876290 -716491564 -1729175897 1858530072 856823513 -1084174379 -107932006 1696612822 -1883849114
REM
CELL 1.54180   50.00000   50.00000   50.00000   90.00000   90.00000   90.00000
LATT -1
SFAC C  
C      1  0.5544710000000  0.4182510000000  0.4841880000000 1.0
C      1  0.5543330000000  0.5542820000000  0.4383900000000 1.0
C      1  0.5565510000000  0.5280330000000  0.5777520000000 1.0
C      1  0.4192580000000  0.4471930000000  0.5485210000000 1.0
C      1  0.4216600000000  0.4837860000000  0.4258910000000 1.0
C      1  0.4202460000000  0.5701150000000  0.5235600000000 1.0
C      1  0.4593920000000  0.4130930000000  0.5411310000000 1.0
C      1  0.4636600000000  0.5063860000000  0.4026460000000 1.0
C      1  0.4615690000000  0.5812400000000  0.5565440000000 1.0
C      1  0.5626320000000  0.5285260000000  0.4270620000000 1.0
C      1  0.5609220000000  0.5561590000000  0.5736970000000 1.0
C      1  0.5589250000000  0.4176230000000  0.5128000000000 1.0
C      1  0.4890500000000  0.4088490000000  0.5422680000000 1.0
C      1  0.4935410000000  0.5083470000000  0.3989170000000 1.0
C      1  0.4911680000000  0.5836220000000  0.5598700000000 1.0
C      1  0.5636260000000  0.4503280000000  0.5198430000000 1.0
C      1  0.5684770000000  0.5077970000000  0.4521350000000 1.0
C      1  0.5681970000000  0.5394570000000  0.5257230000000 1.0
C      1  0.4824020000000  0.4446990000000  0.4160090000000 1.0
C      1  0.4811420000000  0.5983910000000  0.4951850000000 1.0
C      1  0.4806130000000  0.4557330000000  0.5891510000000 1.0
C      1  0.5852800000000  0.5640420000000  0.5596260000000 1.0
C      1  0.5856810000000  0.4105860000000  0.5255500000000 1.0
C      1  0.5893160000000  0.5229670000000  0.4131840000000 1.0
C      1  0.4480840000000  0.5182320000000  0.4974430000000 1.0
C      1  0.4461480000000  0.4964790000000  0.5187280000000 1.0
C      1  0.4467320000000  0.4779070000000  0.4759740000000 1.0
C      1  0.4471940000000  0.4369430000000  0.5549540000000 1.0
C      1  0.4499920000000  0.4821240000000  0.4154390000000 1.0
C      1  0.4481280000000  0.5805400000000  0.5287540000000 1.0
C      1  0.5958590000000  0.4430490000000  0.4656940000000 1.0
C      1  0.5947750000000  0.5673370000000  0.4637730000000 1.0
C      1  0.5940380000000  0.4971260000000  0.5569710000000 1.0
C      1  0.5563030000000  0.4442790000000  0.4447070000000 1.0
C      1  0.5525520000000  0.5778990000000  0.4796250000000 1.0
C      1  0.5562310000000  0.4804430000000  0.5761610000000 1.0
C      1  0.5153870000000  0.4603490000000  0.5176770000000 1.0
C      1  0.5176410000000  0.5060400000000  0.4580080000000 1.0
C      1  0.5158220000000  0.5355230000000  0.5275250000000 1.0
C      1  0.5332890000000  0.4904620000000  0.5588110000000 1.0
C      1  0.5347900000000  0.4557480000000  0.4631420000000 1.0
C      1  0.5332740000000  0.5547010000000  0.4807780000000 1.0
C      1  0.5099520000000  0.5549620000000  0.5017070000000 1.0
C      1  0.5101700000000  0.4719760000000  0.5483190000000 1.0
C      1  0.5131920000000  0.4747860000000  0.4518000000000 1.0
C      1  0.4883650000000  0.4149200000000  0.4508930000000 1.0
C      1  0.4911960000000  0.5844540000000  0.4507090000000 1.0
C      1  0.4931760000000  0.5003010000000  0.6007070000000 1.0
C      1  0.4878620000000  0.4191580000000  0.4240700000000 1.0
C      1  0.4884120000000  0.6041720000000  0.4690510000000 1.0
C      1  0.4881990000000  0.4746750000000  0.6080360000000 1.0
C      1  0.5076950000000  0.4047760000000  0.5188530000000 1.0
C      1  0.5118730000000  0.5308170000000  0.4081880000000 1.0
C      1  0.5099990000000  0.5660650000000  0.5759420000000 1.0
C      1  0.5062480000000  0.4051000000000  0.4704320000000 1.0
C      1  0.5089460000000  0.5728570000000  0.4322880000000 1.0
C      1  0.5096430000000  0.5231970000000  0.5999010000000 1.0
C      1  0.5731030000000  0.5045950000000  0.5757780000000 1.0
C      1  0.5713640000000  0.4284400000000  0.4635010000000 1.0
C      1  0.5677180000000  0.5716550000000  0.4558310000000 1.0
C      1  0.5062150000000  0.4234150000000  0.5603930000000 1.0
C      1  0.5107470000000  0.4854470000000  0.4026210000000 1.0
C      1  0.5081030000000  0.5908960000000  0.5379330000000 1.0
C      1  0.6078770000000  0.4693610000000  0.5016750000000 1.0
C      1  0.6046880000000  0.4939260000000  0.4882180000000 1.0
C      1  0.5994040000000  0.5148260000000  0.5068950000000 1.0
C      1  0.5428260000000  0.5236780000000  0.5209860000000 1.0
C      1  0.5433990000000  0.4710510000000  0.5119620000000 1.0
C      1  0.5456490000000  0.5050970000000  0.4705690000000 1.0
C      1  0.4713270000000  0.5494540000000  0.4159790000000 1.0
C      1  0.4698640000000  0.5485740000000  0.5880520000000 1.0
C      1  0.4677650000000  0.4032820000000  0.4979200000000 1.0
C      1  0.4939600000000  0.4501630000000  0.5626630000000 1.0
C      1  0.4974240000000  0.4703170000000  0.4242370000000 1.0
C      1  0.4948990000000  0.5790070000000  0.5139860000000 1.0
C      1  0.5398180000000  0.5205390000000  0.4078730000000 1.0
C      1  0.5379480000000  0.5728600000000  0.5686170000000 1.0
C      1  0.5354690000000  0.4076170000000  0.5288240000000 1.0
C      1  0.5388340000000  0.4931570000000  0.4026050000000 1.0
C      1  0.5363710000000  0.5883680000000  0.5446570000000 1.0
C      1  0.5342900000000  0.4187390000000  0.5545740000000 1.0
C      1  0.4700100000000  0.5329300000000  0.5377220000000 1.0
C      1  0.4700550000000  0.4561450000000  0.5109300000000 1.0
C      1  0.4719530000000  0.5103130000000  0.4550280000000 1.0
C      1  0.4637630000000  0.5419140000000  0.4995110000000 1.0
C      1  0.4638370000000  0.4836900000000  0.5408990000000 1.0
C      1  0.4678210000000  0.4649940000000  0.4606410000000 1.0
C      1  0.4095890000000  0.5513190000000  0.5419900000000 1.0
C      1  0.4079240000000  0.4430170000000  0.5222230000000 1.0
C      1  0.4110690000000  0.5094040000000  0.4336450000000 1.0
C      1  0.4357810000000  0.4400340000000  0.4315370000000 1.0
C      1  0.4373670000000  0.5839900000000  0.4834500000000 1.0
C      1  0.4376100000000  0.4724820000000  0.5838670000000 1.0
C      1  0.5800890000000  0.5363280000000  0.4985790000000 1.0
C      1  0.5938520000000  0.4578160000000  0.5261660000000 1.0
C      1  0.5930580000000  0.4932010000000  0.4607750000000 1.0
C      1  0.4230760000000  0.4233770000000  0.5047140000000 1.0
C      1  0.4273470000000  0.5331540000000  0.4290530000000 1.0
C      1  0.4265410000000  0.5455150000000  0.5658990000000 1.0
C      1  0.4978440000000  0.5577130000000  0.4096270000000 1.0
C      1  0.4966490000000  0.5499960000000  0.5978380000000 1.0
C      1  0.4940090000000  0.3929890000000  0.4947770000000 1.0
C      1  0.4208520000000  0.4279260000000  0.4755330000000 1.0
C      1  0.4255410000000  0.5528640000000  0.4511240000000 1.0
C      1  0.4296630000000  0.5155430000000  0.5678480000000 1.0
C      1  0.4480790000000  0.4992040000000  0.5832650000000 1.0
C      1  0.4415280000000  0.4252780000000  0.4560090000000 1.0
C      1  0.4464690000000  0.5691470000000  0.4606810000000 1.0
C      1  0.4155370000000  0.4698200000000  0.5662810000000 1.0
C      1  0.4149330000000  0.4579450000000  0.4374260000000 1.0
C      1  0.4156170000000  0.5705440000000  0.4949040000000 1.0
C      1  0.4490270000000  0.5058860000000  0.4722390000000 1.0
C      1  0.4452220000000  0.5162050000000  0.5394670000000 1.0
C      1  0.4467290000000  0.4716010000000  0.5028840000000 1.0
C      1  0.5105510000000  0.5391600000000  0.5587750000000 1.0
C      1  0.5084590000000  0.4320000000000  0.5035020000000 1.0
C      1  0.5104240000000  0.5298820000000  0.4392690000000 1.0
C      1  0.4894060000000  0.4936440000000  0.5477500000000 1.0
C      1  0.4939650000000  0.4676960000000  0.4721320000000 1.0
C      1  0.4880690000000  0.5432650000000  0.4842570000000 1.0
C      1  0.5917130000000  0.5430470000000  0.5417560000000 1.0
C      1  0.6034170000000  0.4305980000000  0.5157370000000 1.0
C      1  0.6102230000000  0.5382600000000  0.4245040000000 1.0
C      1  0.4541390000000  0.5954020000000  0.5031440000000 1.0
C      1  0.4536720000000  0.4495700000000  0.5823680000000 1.0
C      1  0.4549410000000  0.4520510000000  0.4143990000000 1.0
C      1  0.4940990000000  0.4728840000000  0.5012920000000 1.0
C      1  0.4946290000000  0.5141530000000  0.4762360000000 1.0
C      1  0.4933670000000  0.5155820000000  0.5269550000000 1.0
C      1  0.5621580000000  0.5905890000000  0.5294210000000 1.0
C      1  0.5609520000000  0.4297060000000  0.5624130000000 1.0
C      1  0.5654920000000  0.4813880000000  0.4089790000000 1.0
C      1  0.5928630000000  0.4673520000000  0.4494610000000 1.0
C      1  0.5900760000000  0.5644810000000  0.4930310000000 1.0
C      1  0.5922090000000  0.4685130000000  0.5528840000000 1.0
C      1  0.5281530000000  0.5197950000000  0.5750100000000 1.0
C      1  0.5266560000000  0.4268260000000  0.4790230000000 1.0
C      1  0.5268560000000  0.5534730000000  0.4479830000000 1.0
C      1  0.3911660000000  0.4638570000000  0.5091260000000 1.0
C      1  0.3930400000000  0.5088670000000  0.4564170000000 1.0
C      1  0.3930490000000  0.5305880000000  0.5306630000000 1.0
C      1  0.6007960000000  0.5166390000000  0.5363330000000 1.0
C      1  0.6094000000000  0.4428570000000  0.4904570000000 1.0
C      1  0.6092260000000  0.5539730000000  0.4445050000000 1.0
C      1  0.4502710000000  0.5313870000000  0.4104880000000 1.0
C      1  0.4483840000000  0.5624340000000  0.5747640000000 1.0
C      1  0.4458710000000  0.4077460000000  0.5156130000000 1.0
C      1  0.4037330000000  0.4475250000000  0.4631180000000 1.0
C      1  0.4065450000000  0.5520310000000  0.4739680000000 1.0
C      1  0.4065440000000  0.4969090000000  0.5633810000000 1.0
C      1  0.5834100000000  0.5887390000000  0.5474700000000 1.0
C      1  0.5812650000000  0.4135580000000  0.5525190000000 1.0
C      1  0.5875000000000  0.4978380000000  0.4021040000000 1.0
C      1  0.5691850000000  0.5836360000000  0.5018500000000 1.0
C      1  0.5703980000000  0.4569370000000  0.5683100000000 1.0
C      1  0.5724500000000  0.4620630000000  0.4293330000000 1.0
C      1  0.4760110000000  0.5597460000000  0.4604010000000 1.0
C      1  0.4779150000000  0.5042130000000  0.5749200000000 1.0
C      1  0.4688950000000  0.4333270000000  0.4653150000000 1.0
C      1  0.4682310000000  0.4542990000000  0.5415700000000 1.0
C      1  0.4717380000000  0.4843330000000  0.4368140000000 1.0
C      1  0.4688390000000  0.5593090000000  0.5225160000000 1.0
C      1  0.5440680000000  0.4958730000000  0.5302780000000 1.0
C      1  0.5457020000000  0.4767830000000  0.4828480000000 1.0
C      1  0.5488030000000  0.5285030000000  0.4896670000000 1.0
C      1  0.3916350000000  0.5281570000000  0.4778700000000 1.0
C      1  0.3899360000000  0.5046670000000  0.5428020000000 1.0
C      1  0.3882150000000  0.4634280000000  0.4803850000000 1.0
C      1  0.3859470000000  0.4912510000000  0.5172420000000 1.0
C      1  0.3844860000000  0.4853280000000  0.4652980000000 1.0
C      1  0.3876920000000  0.5182560000000  0.5044570000000 1.0
C      1  0.4802420000000  0.5371530000000  0.4420520000000 1.0
C      1  0.4811260000000  0.5321230000000  0.5656840000000 1.0
C      1  0.4776480000000  0.4316180000000  0.4942990000000 1.0
C      1  0.4925770000000  0.5011260000000  0.5018050000000 1.0
END
