TITL C-122888-6487-2 -0.0380854541472767 125000 -404.366476905692 0 0 59 (C3) n - 1
REM
REM in /rds/project/t2_vol4/rds-t2-cs072/BORA/CARBON/from-Arr/AIRSS/Generating-Clusters/GAP-ML-2020/Higher-Symm/SD-CG/HFTN-CG
REM
REM
REM
REM
REM
REM ./C.cell (b20cbc046b6831c77cfcea5457e17084)
REM AIRSS Version 0.9.1 bugfix July 2018 build 013d7b7c2542+ Fri, 06 Jul 2018 19:26:36 +0100
REM compiler GCC version 9.3.0
REM options -cpp -mtune=generic -march=x86-64 -g -O0
REM seed -511591306 -869913017 -567012309 -1097348305 1725771780 342121383 543981251 -1065321583 798200437 595015226 -1854854738 -1176915238 1659213671 1809265734 1746140418 118310579 802170025 696960842 -350119963 845058189 -2099152324 -620461704 95646194 -1374808428 -437878689 -2124057256 -1977788941 -491141935 1047549111 -299144930 555940111 -361210311 1988795470
REM
CELL 1.54180   50.00000   50.00000   50.00000   90.00000   90.00000   90.00000
LATT -1
SFAC C  
C      1  0.5481950000000  0.4707630000000  0.5364880000000 1.0
C      1  0.5482410000000  0.5463100000000  0.5061340000000 1.0
C      1  0.5485570000000  0.4822490000000  0.4558860000000 1.0
C      1  0.5548480000000  0.4755650000000  0.4817170000000 1.0
C      1  0.5546000000000  0.4964610000000  0.5294130000000 1.0
C      1  0.5547560000000  0.5273200000000  0.4874680000000 1.0
C      1  0.5053760000000  0.4764410000000  0.4917270000000 1.0
C      1  0.5051930000000  0.5047980000000  0.5232490000000 1.0
C      1  0.5053640000000  0.5179190000000  0.4829300000000 1.0
C      1  0.4459500000000  0.5275610000000  0.5281740000000 1.0
C      1  0.4462880000000  0.5109290000000  0.4602750000000 1.0
C      1  0.4461260000000  0.4604420000000  0.5086290000000 1.0
C      1  0.5113380000000  0.5095830000000  0.5541630000000 1.0
C      1  0.5117200000000  0.5422860000000  0.4633800000000 1.0
C      1  0.5117600000000  0.4473130000000  0.4804510000000 1.0
C      1  0.4876380000000  0.5291070000000  0.5546460000000 1.0
C      1  0.4881400000000  0.5329930000000  0.4460390000000 1.0
C      1  0.4880240000000  0.4369920000000  0.4969780000000 1.0
C      1  0.4627850000000  0.4480760000000  0.4882270000000 1.0
C      1  0.4624150000000  0.5160400000000  0.5492180000000 1.0
C      1  0.4628070000000  0.5348790000000  0.4598640000000 1.0
C      1  0.4745330000000  0.5657280000000  0.5205650000000 1.0
C      1  0.4750510000000  0.4851950000000  0.4312580000000 1.0
C      1  0.4745650000000  0.4481180000000  0.5456550000000 1.0
C      1  0.5071660000000  0.4819270000000  0.5637360000000 1.0
C      1  0.5074400000000  0.5644130000000  0.4825100000000 1.0
C      1  0.5077260000000  0.4528260000000  0.4516900000000 1.0
C      1  0.5184920000000  0.5594190000000  0.5316250000000 1.0
C      1  0.5190370000000  0.4978340000000  0.4315480000000 1.0
C      1  0.5186260000000  0.4419560000000  0.5349210000000 1.0
C      1  0.4599870000000  0.4874060000000  0.5526430000000 1.0
C      1  0.4602290000000  0.5521670000000  0.4829300000000 1.0
C      1  0.4604460000000  0.4594130000000  0.4617030000000 1.0
C      1  0.4320140000000  0.5055790000000  0.4839710000000 1.0
C      1  0.4319610000000  0.4836690000000  0.5013000000000 1.0
C      1  0.4318800000000  0.5096310000000  0.5116100000000 1.0
C      1  0.5256410000000  0.4635570000000  0.5532460000000 1.0
C      1  0.5257430000000  0.5644740000000  0.5038130000000 1.0
C      1  0.5261530000000  0.4712050000000  0.4411340000000 1.0
C      1  0.5408610000000  0.4492710000000  0.5181260000000 1.0
C      1  0.5406710000000  0.5411690000000  0.5338670000000 1.0
C      1  0.5411200000000  0.5088530000000  0.4464110000000 1.0
C      1  0.4926570000000  0.4939920000000  0.4728140000000 1.0
C      1  0.4924670000000  0.4796710000000  0.5174020000000 1.0
C      1  0.4924550000000  0.5254460000000  0.5075110000000 1.0
C      1  0.4814560000000  0.4712270000000  0.5622300000000 1.0
C      1  0.4816590000000  0.5685130000000  0.4923220000000 1.0
C      1  0.4820270000000  0.4593280000000  0.4430250000000 1.0
C      1  0.5400100000000  0.5311600000000  0.4619880000000 1.0
C      1  0.5399760000000  0.4516100000000  0.4910100000000 1.0
C      1  0.5396400000000  0.5165190000000  0.5453910000000 1.0
C      1  0.4519190000000  0.5504830000000  0.5125140000000 1.0
C      1  0.4523000000000  0.4858940000000  0.4483030000000 1.0
C      1  0.4519200000000  0.4625780000000  0.5363440000000 1.0
C      1  0.4922660000000  0.5544960000000  0.5402560000000 1.0
C      1  0.4928340000000  0.5078260000000  0.4312840000000 1.0
C      1  0.4924810000000  0.4367870000000  0.5261870000000 1.0
C      1  0.5546950000000  0.4997820000000  0.4995320000000 1.0
C      1  0.5238800000000  0.4997430000000  0.4993890000000 1.0
END
