TITL C-123197-8090-6 611.109061837601 125000 -594.249052616872 0 0 86 (C1) n - 1
REM
REM in /rds/project/t2_vol4/rds-t2-cs072/BORA/CARBON/from-Arr/AIRSS/Generating-Clusters/GAP-ML-2020/Higher-Symm/SD-CG/HFTN-CG
REM
REM
REM
REM
REM
REM ./C.cell (b20cbc046b6831c77cfcea5457e17084)
REM AIRSS Version 0.9.1 bugfix July 2018 build 013d7b7c2542+ Fri, 06 Jul 2018 19:26:36 +0100
REM compiler GCC version 9.3.0
REM options -cpp -mtune=generic -march=x86-64 -g -O0
REM seed -862127421 -1149828553 430462079 -2129563122 -909538858 490567638 -920187274 1580887125 1613795789 150253911 182385792 657680235 -1735766242 -932611574 -1637800525 -797554064 2085041738 -964613776 -2059333752 -1336562458 -2123609152 -921192619 2104166555 -465339857 1260657543 -1693072399 1466928340 -1782398048 -752268894 1493930521 -1921065570 620250672 779169555
REM
CELL 1.54180   50.00000   50.00000   50.00000   90.00000   90.00000   90.00000
LATT -1
SFAC C  
C      1  0.5815920000000  0.4840080000000  0.4975990000000 1.0
C      1  0.4181580000000  0.5153050000000  0.5008020000000 1.0
C      1  0.4795770000000  0.5316000000000  0.5048930000000 1.0
C      1  0.5261530000000  0.4655710000000  0.4831070000000 1.0
C      1  0.4636480000000  0.5230280000000  0.5578090000000 1.0
C      1  0.5379490000000  0.4736340000000  0.4392010000000 1.0
C      1  0.5389820000000  0.5390380000000  0.4981020000000 1.0
C      1  0.4612900000000  0.4589860000000  0.4955860000000 1.0
C      1  0.5507840000000  0.5741720000000  0.4583100000000 1.0
C      1  0.4509810000000  0.4257080000000  0.5428070000000 1.0
C      1  0.4998520000000  0.4800720000000  0.5615960000000 1.0
C      1  0.4941390000000  0.5310180000000  0.4396330000000 1.0
C      1  0.4650370000000  0.4309990000000  0.5054130000000 1.0
C      1  0.5359310000000  0.5688550000000  0.4952470000000 1.0
C      1  0.5344510000000  0.4487110000000  0.5560760000000 1.0
C      1  0.4615570000000  0.5576680000000  0.4534870000000 1.0
C      1  0.4768300000000  0.4647860000000  0.4700480000000 1.0
C      1  0.5253850000000  0.5298270000000  0.5225410000000 1.0
C      1  0.4303070000000  0.4790310000000  0.5253470000000 1.0
C      1  0.5696820000000  0.5181160000000  0.4692720000000 1.0
C      1  0.5080460000000  0.5544430000000  0.4452490000000 1.0
C      1  0.4883450000000  0.4525790000000  0.5608190000000 1.0
C      1  0.4175290000000  0.5619900000000  0.4812680000000 1.0
C      1  0.5774000000000  0.4440070000000  0.5258040000000 1.0
C      1  0.5530960000000  0.4371250000000  0.5362090000000 1.0
C      1  0.4441040000000  0.5656260000000  0.4757340000000 1.0
C      1  0.5029000000000  0.5280970000000  0.5720770000000 1.0
C      1  0.4967800000000  0.4770750000000  0.4247080000000 1.0
C      1  0.5746230000000  0.4568270000000  0.5017250000000 1.0
C      1  0.4222340000000  0.5438050000000  0.5015500000000 1.0
C      1  0.5692250000000  0.5367590000000  0.5476290000000 1.0
C      1  0.4314020000000  0.4664650000000  0.4457070000000 1.0
C      1  0.5059760000000  0.4232850000000  0.4781620000000 1.0
C      1  0.5018410000000  0.5721910000000  0.5265830000000 1.0
C      1  0.4748900000000  0.4817300000000  0.5181590000000 1.0
C      1  0.5270410000000  0.5170520000000  0.4743310000000 1.0
C      1  0.5207270000000  0.4993240000000  0.5179260000000 1.0
C      1  0.4844010000000  0.4945550000000  0.4731600000000 1.0
C      1  0.5273260000000  0.4925490000000  0.4918490000000 1.0
C      1  0.4762480000000  0.5055870000000  0.4982860000000 1.0
C      1  0.4538060000000  0.4732110000000  0.5395580000000 1.0
C      1  0.5472310000000  0.5273100000000  0.4543700000000 1.0
C      1  0.5007620000000  0.4836030000000  0.5300760000000 1.0
C      1  0.5046440000000  0.5096620000000  0.4569320000000 1.0
C      1  0.5460280000000  0.4988920000000  0.5642850000000 1.0
C      1  0.4532680000000  0.5073520000000  0.4367090000000 1.0
C      1  0.5130930000000  0.4568150000000  0.4379940000000 1.0
C      1  0.4845010000000  0.5440530000000  0.5542240000000 1.0
C      1  0.5532730000000  0.4499220000000  0.4817310000000 1.0
C      1  0.4371570000000  0.5497030000000  0.5261310000000 1.0
C      1  0.5414570000000  0.5390250000000  0.5473460000000 1.0
C      1  0.4585020000000  0.4633260000000  0.4454660000000 1.0
C      1  0.4614320000000  0.4498010000000  0.5530350000000 1.0
C      1  0.5370490000000  0.5526080000000  0.4470660000000 1.0
C      1  0.5092210000000  0.4358710000000  0.5514410000000 1.0
C      1  0.4872910000000  0.5698370000000  0.4582940000000 1.0
C      1  0.4341090000000  0.4717810000000  0.4976740000000 1.0
C      1  0.5665200000000  0.5267990000000  0.4965400000000 1.0
C      1  0.5762580000000  0.5070590000000  0.5150300000000 1.0
C      1  0.4240340000000  0.4938210000000  0.4814500000000 1.0
C      1  0.5105870000000  0.4214660000000  0.5261220000000 1.0
C      1  0.4870490000000  0.5816160000000  0.4844920000000 1.0
C      1  0.4699330000000  0.4838790000000  0.4279710000000 1.0
C      1  0.5306570000000  0.5235360000000  0.5690480000000 1.0
C      1  0.4243170000000  0.5062080000000  0.5271180000000 1.0
C      1  0.5746660000000  0.4902460000000  0.4701140000000 1.0
C      1  0.4922250000000  0.4223030000000  0.5037390000000 1.0
C      1  0.5100230000000  0.5810930000000  0.5019350000000 1.0
C      1  0.4785520000000  0.5712320000000  0.5421130000000 1.0
C      1  0.5270630000000  0.4059210000000  0.4733830000000 1.0
C      1  0.4849170000000  0.5057010000000  0.5701360000000 1.0
C      1  0.5178680000000  0.4941230000000  0.4340870000000 1.0
C      1  0.4989160000000  0.5416170000000  0.5246410000000 1.0
C      1  0.5040860000000  0.4508210000000  0.4656060000000 1.0
C      1  0.4445580000000  0.4153480000000  0.5199780000000 1.0
C      1  0.5561440000000  0.5844220000000  0.4812950000000 1.0
C      1  0.4313430000000  0.4936340000000  0.4532830000000 1.0
C      1  0.5687070000000  0.5094840000000  0.5436810000000 1.0
C      1  0.4564650000000  0.5705540000000  0.5240120000000 1.0
C      1  0.5424970000000  0.4226030000000  0.4891870000000 1.0
C      1  0.4653100000000  0.5332490000000  0.4382990000000 1.0
C      1  0.5304900000000  0.4755260000000  0.5661140000000 1.0
C      1  0.4400760000000  0.5255540000000  0.5421030000000 1.0
C      1  0.5582460000000  0.4694780000000  0.4585160000000 1.0
C      1  0.5377310000000  0.4216990000000  0.5177290000000 1.0
C      1  0.4615120000000  0.5770310000000  0.4961310000000 1.0
END
