TITL C-127732-1803-1 -9.13957580623981 125000 -299.721523865824 0 0 45 (C1) n - 1
REM
REM in /rds/project/t2_vol4/rds-t2-cs072/BORA/CARBON/from-Arr/AIRSS/Generating-Clusters/GAP-ML-2020/Higher-Symm/SD-CG/HFTN-CG
REM
REM
REM
REM
REM
REM ./C.cell (b20cbc046b6831c77cfcea5457e17084)
REM AIRSS Version 0.9.1 bugfix July 2018 build 013d7b7c2542+ Fri, 06 Jul 2018 19:26:36 +0100
REM compiler GCC version 9.3.0
REM options -cpp -mtune=generic -march=x86-64 -g -O0
REM seed -799770372 -1071811253 925446476 -87745961 337635072 -775989525 1130947085 566790633 -219989418 1386357059 191045315 10300185 552587622 -251670166 454437270 -235782028 -1142618191 -514345136 1001250028 1552283256 -1716936788 1670364778 1987262800 768749269 528982385 -1518312811 -1473291125 1669544124 464223852 -1237317183 -248440539 877706518 403322739
REM
CELL 1.54180   50.00000   50.00000   50.00000   90.00000   90.00000   90.00000
LATT -1
SFAC C  
C      1  0.4983430000000  0.4661810000000  0.4632810000000 1.0
C      1  0.4634320000000  0.4657750000000  0.5017180000000 1.0
C      1  0.5028010000000  0.4663080000000  0.5376540000000 1.0
C      1  0.5376090000000  0.4668120000000  0.4979760000000 1.0
C      1  0.4972820000000  0.5327040000000  0.5384810000000 1.0
C      1  0.4626910000000  0.5316700000000  0.4991150000000 1.0
C      1  0.5020720000000  0.5273440000000  0.4666480000000 1.0
C      1  0.5378700000000  0.5324430000000  0.5030910000000 1.0
C      1  0.4917290000000  0.5113860000000  0.5581630000000 1.0
C      1  0.5578920000000  0.5125190000000  0.5090090000000 1.0
C      1  0.5084210000000  0.5112490000000  0.4420470000000 1.0
C      1  0.4429760000000  0.5111870000000  0.4925410000000 1.0
C      1  0.4932620000000  0.4870700000000  0.4420620000000 1.0
C      1  0.5579350000000  0.4881480000000  0.4932490000000 1.0
C      1  0.5078100000000  0.4871190000000  0.5579890000000 1.0
C      1  0.4431440000000  0.4862950000000  0.5065670000000 1.0
C      1  0.5618060000000  0.5139540000000  0.5376820000000 1.0
C      1  0.5364570000000  0.5143220000000  0.4380730000000 1.0
C      1  0.4386970000000  0.5136760000000  0.4637650000000 1.0
C      1  0.4640430000000  0.5137980000000  0.5647320000000 1.0
C      1  0.5639470000000  0.4866840000000  0.4656400000000 1.0
C      1  0.5352680000000  0.4846450000000  0.5646680000000 1.0
C      1  0.4387300000000  0.4852290000000  0.5351580000000 1.0
C      1  0.4658440000000  0.4852140000000  0.4357680000000 1.0
C      1  0.4515940000000  0.5324400000000  0.5465020000000 1.0
C      1  0.5458970000000  0.5351880000000  0.5484830000000 1.0
C      1  0.5461870000000  0.5365120000000  0.4541310000000 1.0
C      1  0.4542770000000  0.5356950000000  0.4535310000000 1.0
C      1  0.4531040000000  0.4687290000000  0.4556640000000 1.0
C      1  0.5451070000000  0.4691280000000  0.4527840000000 1.0
C      1  0.5480510000000  0.4672920000000  0.5454920000000 1.0
C      1  0.4541890000000  0.4639990000000  0.5466760000000 1.0
C      1  0.4709940000000  0.5383660000000  0.5256440000000 1.0
C      1  0.5248100000000  0.5385250000000  0.5299300000000 1.0
C      1  0.5298140000000  0.5385440000000  0.4758120000000 1.0
C      1  0.4742990000000  0.5387620000000  0.4721480000000 1.0
C      1  0.4719190000000  0.4604640000000  0.4751630000000 1.0
C      1  0.5253300000000  0.4609890000000  0.4715960000000 1.0
C      1  0.5290110000000  0.4611550000000  0.5248040000000 1.0
C      1  0.4756480000000  0.4603880000000  0.5286130000000 1.0
C      1  0.4395630000000  0.5083090000000  0.5508950000000 1.0
C      1  0.5606560000000  0.4904460000000  0.5531610000000 1.0
C      1  0.5538460000000  0.4915330000000  0.4394170000000 1.0
C      1  0.4398720000000  0.4908530000000  0.4471880000000 1.0
C      1  0.4994860000000  0.5045570000000  0.4879690000000 1.0
END
