TITL C-121833-5031-3 129.546565270547 125000 -487.363512279349 0 0 69 (C1) n - 1
REM
REM in /rds/project/t2_vol4/rds-t2-cs072/BORA/CARBON/from-Arr/AIRSS/Generating-Clusters/GAP-ML-2020/Higher-Symm/SD-CG/HFTN-CG
REM
REM
REM
REM
REM
REM ./C.cell (b20cbc046b6831c77cfcea5457e17084)
REM AIRSS Version 0.9.1 bugfix July 2018 build 013d7b7c2542+ Fri, 06 Jul 2018 19:26:36 +0100
REM compiler GCC version 9.3.0
REM options -cpp -mtune=generic -march=x86-64 -g -O0
REM seed -1569760082 2117222562 913081678 369876777 -251984656 267401309 1868407373 -1495391463 2005124082 678097344 1296694552 1397247041 2056446273 -2129911498 638551165 494272813 1684066839 256789185 847373622 1439019351 1672601200 2052231342 -454222991 1878091903 -837898952 -428815047 -1195381735 1027655945 256934611 947612901 -848795921 -34575963 -551728192
REM
CELL 1.54180   50.00000   50.00000   50.00000   90.00000   90.00000   90.00000
LATT -1
SFAC C  
C      1  0.5168970000000  0.4760360000000  0.5732160000000 1.0
C      1  0.5660070000000  0.4807200000000  0.5237220000000 1.0
C      1  0.5450090000000  0.4704020000000  0.4550910000000 1.0
C      1  0.5121660000000  0.4767030000000  0.4329850000000 1.0
C      1  0.4438250000000  0.4784260000000  0.4493450000000 1.0
C      1  0.4248970000000  0.4823450000000  0.5144340000000 1.0
C      1  0.4763590000000  0.4727990000000  0.5666320000000 1.0
C      1  0.5082460000000  0.4411060000000  0.4730510000000 1.0
C      1  0.4785740000000  0.4522110000000  0.4739210000000 1.0
C      1  0.4620120000000  0.4529750000000  0.4972330000000 1.0
C      1  0.4723170000000  0.4526110000000  0.5241580000000 1.0
C      1  0.4999200000000  0.4476120000000  0.5339190000000 1.0
C      1  0.5265440000000  0.4496680000000  0.5219890000000 1.0
C      1  0.5306220000000  0.4498590000000  0.4941440000000 1.0
C      1  0.4941350000000  0.5207280000000  0.5808240000000 1.0
C      1  0.5499540000000  0.5091860000000  0.5553680000000 1.0
C      1  0.5789540000000  0.5068100000000  0.4889780000000 1.0
C      1  0.5372910000000  0.5208510000000  0.4380930000000 1.0
C      1  0.4733840000000  0.5101230000000  0.4330270000000 1.0
C      1  0.4182800000000  0.5051540000000  0.4756840000000 1.0
C      1  0.4372800000000  0.5167890000000  0.5418960000000 1.0
C      1  0.4483730000000  0.5465050000000  0.5020640000000 1.0
C      1  0.5164100000000  0.5772010000000  0.5082630000000 1.0
C      1  0.5325350000000  0.5586590000000  0.5189240000000 1.0
C      1  0.5513490000000  0.5450630000000  0.5010500000000 1.0
C      1  0.5476040000000  0.5533910000000  0.4723270000000 1.0
C      1  0.4733360000000  0.5525500000000  0.4585530000000 1.0
C      1  0.4489440000000  0.5449800000000  0.4724170000000 1.0
C      1  0.5363830000000  0.4927450000000  0.4373900000000 1.0
C      1  0.4857390000000  0.4839100000000  0.4352370000000 1.0
C      1  0.4266100000000  0.4772890000000  0.4705740000000 1.0
C      1  0.4377550000000  0.4871610000000  0.5382350000000 1.0
C      1  0.4934370000000  0.4924940000000  0.5801590000000 1.0
C      1  0.5398270000000  0.4824340000000  0.5594050000000 1.0
C      1  0.5708840000000  0.4795780000000  0.4965710000000 1.0
C      1  0.4337680000000  0.5235440000000  0.4601830000000 1.0
C      1  0.4304210000000  0.5290090000000  0.5162410000000 1.0
C      1  0.4760830000000  0.5353750000000  0.5624560000000 1.0
C      1  0.5320680000000  0.5310710000000  0.5617710000000 1.0
C      1  0.5715730000000  0.5256410000000  0.5104820000000 1.0
C      1  0.5570030000000  0.5320160000000  0.4557810000000 1.0
C      1  0.4858520000000  0.5349510000000  0.4383210000000 1.0
C      1  0.4884030000000  0.5466340000000  0.5393410000000 1.0
C      1  0.5178880000000  0.5407860000000  0.5370920000000 1.0
C      1  0.5181280000000  0.5101790000000  0.5190320000000 1.0
C      1  0.5333170000000  0.5185700000000  0.4952960000000 1.0
C      1  0.5126260000000  0.5287490000000  0.4788660000000 1.0
C      1  0.4880220000000  0.5227040000000  0.4921800000000 1.0
C      1  0.4756300000000  0.5517680000000  0.5133060000000 1.0
C      1  0.4351320000000  0.4645710000000  0.4945770000000 1.0
C      1  0.4588540000000  0.4691270000000  0.5448060000000 1.0
C      1  0.4998680000000  0.4569090000000  0.5603450000000 1.0
C      1  0.5464150000000  0.4654120000000  0.5371640000000 1.0
C      1  0.5518750000000  0.4641250000000  0.4820380000000 1.0
C      1  0.5212450000000  0.4557550000000  0.4493770000000 1.0
C      1  0.4694310000000  0.4661550000000  0.4509180000000 1.0
C      1  0.5660660000000  0.5083880000000  0.5325290000000 1.0
C      1  0.5767160000000  0.5159620000000  0.4640070000000 1.0
C      1  0.5141600000000  0.5374210000000  0.4411310000000 1.0
C      1  0.4467300000000  0.5063730000000  0.4412670000000 1.0
C      1  0.4167110000000  0.5078900000000  0.5029650000000 1.0
C      1  0.4493830000000  0.5292320000000  0.5622580000000 1.0
C      1  0.5192280000000  0.5316820000000  0.5858800000000 1.0
C      1  0.4915240000000  0.5719050000000  0.4988670000000 1.0
C      1  0.5192970000000  0.5548380000000  0.4640270000000 1.0
C      1  0.4936560000000  0.5676030000000  0.4709960000000 1.0
C      1  0.5050310000000  0.3877110000000  0.4682250000000 1.0
C      1  0.4945750000000  0.5003110000000  0.5073280000000 1.0
C      1  0.5062700000000  0.4125050000000  0.4713400000000 1.0
END
