TITL C-121829-4984-7 -0.0329760799409353 125000 -262.994283537485 0 0 41 (Cs) n - 1
REM
REM in /rds/project/t2_vol4/rds-t2-cs072/BORA/CARBON/from-Arr/AIRSS/Generating-Clusters/GAP-ML-2020/Higher-Symm/SD-CG/HFTN-CG
REM
REM
REM
REM
REM
REM ./C.cell (b20cbc046b6831c77cfcea5457e17084)
REM AIRSS Version 0.9.1 bugfix July 2018 build 013d7b7c2542+ Fri, 06 Jul 2018 19:26:36 +0100
REM compiler GCC version 9.3.0
REM options -cpp -mtune=generic -march=x86-64 -g -O0
REM seed 420799855 -640084968 1747895480 -1000818609 -1770460068 -1456071425 2064851214 1514584661 1699908020 -930668764 -312783926 -992409543 144971218 1166012088 952314560 -745366792 -1611823232 992766263 -1257671173 -749493970 1285806412 -195622410 349685123 -1711236116 1153373006 -559913739 846830838 -1004627912 1026518590 151759982 -1088260177 1754268671 -1823922714
REM
CELL 1.54180   50.00000   50.00000   50.00000   90.00000   90.00000   90.00000
LATT -1
SFAC C  
C      1  0.4760140000000  0.5219500000000  0.4675430000000 1.0
C      1  0.5241410000000  0.5219510000000  0.4675440000000 1.0
C      1  0.5136970000000  0.4413760000000  0.4777390000000 1.0
C      1  0.4864590000000  0.4413760000000  0.4777390000000 1.0
C      1  0.4489640000000  0.5331890000000  0.4693210000000 1.0
C      1  0.5511910000000  0.5331900000000  0.4693210000000 1.0
C      1  0.4718390000000  0.5474110000000  0.5373680000000 1.0
C      1  0.5283150000000  0.5474110000000  0.5373680000000 1.0
C      1  0.5141290000000  0.5068310000000  0.5637030000000 1.0
C      1  0.4860250000000  0.5068310000000  0.5637020000000 1.0
C      1  0.5271190000000  0.4755440000000  0.5308160000000 1.0
C      1  0.4730360000000  0.4755430000000  0.5308160000000 1.0
C      1  0.4723500000000  0.4610710000000  0.4621660000000 1.0
C      1  0.5278060000000  0.4610710000000  0.4621660000000 1.0
C      1  0.5151620000000  0.5035660000000  0.5189060000000 1.0
C      1  0.4849920000000  0.5035660000000  0.5189050000000 1.0
C      1  0.5141620000000  0.4784810000000  0.5561690000000 1.0
C      1  0.4859930000000  0.4784810000000  0.5561690000000 1.0
C      1  0.5704680000000  0.5294420000000  0.4859020000000 1.0
C      1  0.4296870000000  0.5294410000000  0.4859010000000 1.0
C      1  0.5138790000000  0.5673370000000  0.5298440000000 1.0
C      1  0.4862750000000  0.5673370000000  0.5298440000000 1.0
C      1  0.5610770000000  0.4806720000000  0.5012600000000 1.0
C      1  0.4390790000000  0.4806710000000  0.5012590000000 1.0
C      1  0.5554880000000  0.4773820000000  0.5274630000000 1.0
C      1  0.4446670000000  0.4773810000000  0.5274630000000 1.0
C      1  0.4851900000000  0.4581810000000  0.5044870000000 1.0
C      1  0.5149660000000  0.4581810000000  0.5044870000000 1.0
C      1  0.5339450000000  0.4759290000000  0.4861860000000 1.0
C      1  0.4662110000000  0.4759290000000  0.4861860000000 1.0
C      1  0.4719050000000  0.5045350000000  0.4930110000000 1.0
C      1  0.5282500000000  0.5045350000000  0.4930120000000 1.0
C      1  0.4414090000000  0.5090550000000  0.4998550000000 1.0
C      1  0.5587460000000  0.5090550000000  0.4998560000000 1.0
C      1  0.5149540000000  0.4747830000000  0.4414740000000 1.0
C      1  0.4852020000000  0.4747830000000  0.4414740000000 1.0
C      1  0.5141560000000  0.5040560000000  0.4438920000000 1.0
C      1  0.4860000000000  0.5040550000000  0.4438920000000 1.0
C      1  0.4748100000000  0.5209840000000  0.5411700000000 1.0
C      1  0.5253440000000  0.5209850000000  0.5411710000000 1.0
C      1  0.5000780000000  0.5370190000000  0.4654630000000 1.0
END
