TITL C-127522-232-9 16.6234325863176 125000 -445.180347474568 0 0 67 (C1) n - 1
REM
REM in /rds/project/t2_vol4/rds-t2-cs072/BORA/CARBON/from-Arr/AIRSS/Generating-Clusters/GAP-ML-2020/Higher-Symm/SD-CG/HFTN-CG
REM
REM
REM
REM
REM
REM ./C.cell (b20cbc046b6831c77cfcea5457e17084)
REM AIRSS Version 0.9.1 bugfix July 2018 build 013d7b7c2542+ Fri, 06 Jul 2018 19:26:36 +0100
REM compiler GCC version 9.3.0
REM options -cpp -mtune=generic -march=x86-64 -g -O0
REM seed -1970012468 -395162922 -1670700439 -289094404 1844943101 143713991 2086921623 799533779 -1642089809 1110788185 -1897874243 1269425105 -108924839 -2064102228 -927397366 835062095 603142359 2103565310 -1882409097 1867364288 2041266867 917329614 -1080304270 -1218040699 1436986222 2071978335 -1018087125 -1646712516 1444057703 -1858726825 1974370342 -1055782019 1275658493
REM
CELL 1.54180   50.00000   50.00000   50.00000   90.00000   90.00000   90.00000
LATT -1
SFAC C  
C      1  0.5174800000000  0.4772870000000  0.4389320000000 1.0
C      1  0.5022860000000  0.5278470000000  0.4769680000000 1.0
C      1  0.5052380000000  0.5369890000000  0.5255690000000 1.0
C      1  0.5055160000000  0.4818830000000  0.5417260000000 1.0
C      1  0.5040870000000  0.4560990000000  0.4987860000000 1.0
C      1  0.4860470000000  0.5085340000000  0.4598010000000 1.0
C      1  0.4846860000000  0.4609760000000  0.4732000000000 1.0
C      1  0.4881020000000  0.4637040000000  0.5229830000000 1.0
C      1  0.4951250000000  0.5275820000000  0.5513340000000 1.0
C      1  0.4851620000000  0.5368010000000  0.5015700000000 1.0
C      1  0.4603740000000  0.5059340000000  0.5488720000000 1.0
C      1  0.4616310000000  0.4743980000000  0.5132420000000 1.0
C      1  0.4601360000000  0.4758500000000  0.4834400000000 1.0
C      1  0.4611360000000  0.5044110000000  0.4748280000000 1.0
C      1  0.4595030000000  0.5208710000000  0.5001960000000 1.0
C      1  0.5288160000000  0.4929650000000  0.5252300000000 1.0
C      1  0.5283000000000  0.5213600000000  0.5152910000000 1.0
C      1  0.5288120000000  0.5189980000000  0.4853850000000 1.0
C      1  0.5351700000000  0.4703510000000  0.4588100000000 1.0
C      1  0.5284670000000  0.4733320000000  0.5017480000000 1.0
C      1  0.4599560000000  0.5454320000000  0.5773610000000 1.0
C      1  0.4525050000000  0.4357770000000  0.5392500000000 1.0
C      1  0.4832090000000  0.4324640000000  0.4641560000000 1.0
C      1  0.4542360000000  0.5148460000000  0.4285690000000 1.0
C      1  0.4538430000000  0.5672140000000  0.4851560000000 1.0
C      1  0.5455050000000  0.4551670000000  0.5504220000000 1.0
C      1  0.5455330000000  0.5592060000000  0.5391780000000 1.0
C      1  0.5300180000000  0.5644980000000  0.4671500000000 1.0
C      1  0.5554900000000  0.5032940000000  0.4397630000000 1.0
C      1  0.5437990000000  0.4285100000000  0.4964560000000 1.0
C      1  0.5580010000000  0.4905190000000  0.5335120000000 1.0
C      1  0.5563600000000  0.4541290000000  0.5001060000000 1.0
C      1  0.5626680000000  0.4769300000000  0.4544190000000 1.0
C      1  0.5498400000000  0.5412680000000  0.4733080000000 1.0
C      1  0.5558770000000  0.5363760000000  0.5240890000000 1.0
C      1  0.4270710000000  0.5382880000000  0.5414500000000 1.0
C      1  0.4366140000000  0.5436580000000  0.4925170000000 1.0
C      1  0.4380420000000  0.5102430000000  0.4539160000000 1.0
C      1  0.4293050000000  0.4694500000000  0.4794800000000 1.0
C      1  0.4402970000000  0.4513760000000  0.5206590000000 1.0
C      1  0.5062610000000  0.5135200000000  0.4168630000000 1.0
C      1  0.4798620000000  0.5640010000000  0.4870140000000 1.0
C      1  0.4846340000000  0.5500310000000  0.5662150000000 1.0
C      1  0.4994830000000  0.4402630000000  0.5620160000000 1.0
C      1  0.4997430000000  0.4158910000000  0.4737240000000 1.0
C      1  0.5280230000000  0.4992960000000  0.4254380000000 1.0
C      1  0.5172530000000  0.4277270000000  0.4920560000000 1.0
C      1  0.5194820000000  0.4590470000000  0.5580230000000 1.0
C      1  0.5011070000000  0.5719890000000  0.5603490000000 1.0
C      1  0.5045270000000  0.5592760000000  0.4701480000000 1.0
C      1  0.4217630000000  0.4858420000000  0.4595810000000 1.0
C      1  0.4278060000000  0.5328180000000  0.4678710000000 1.0
C      1  0.4205480000000  0.5440440000000  0.5180800000000 1.0
C      1  0.4461740000000  0.5286400000000  0.5594560000000 1.0
C      1  0.4213530000000  0.4534960000000  0.5009160000000 1.0
C      1  0.5614690000000  0.5268160000000  0.4501790000000 1.0
C      1  0.5707570000000  0.4675830000000  0.4783320000000 1.0
C      1  0.5624480000000  0.4621180000000  0.5303440000000 1.0
C      1  0.5699830000000  0.5139240000000  0.5365180000000 1.0
C      1  0.5640860000000  0.5443950000000  0.4977570000000 1.0
C      1  0.4876860000000  0.5014300000000  0.5546550000000 1.0
C      1  0.4787350000000  0.4416100000000  0.5443770000000 1.0
C      1  0.4946910000000  0.4804320000000  0.4544790000000 1.0
C      1  0.4811130000000  0.5162330000000  0.4288230000000 1.0
C      1  0.5191800000000  0.5631990000000  0.5410700000000 1.0
C      1  0.4543110000000  0.5009680000000  0.5220390000000 1.0
C      1  0.5322330000000  0.4904050000000  0.4804890000000 1.0
END
