TITL C-129405-7730-2 -0.128120678232148 125000 -1286.22160913172 0 0 185 (C1) n - 1
REM
REM in /rds/project/t2_vol4/rds-t2-cs072/BORA/CARBON/from-Arr/AIRSS/Generating-Clusters/GAP-ML-2020/Higher-Symm/SD-CG/HFTN-CG/C160-200
REM
REM
REM
REM
REM
REM ./C.cell (6b4489405718ea1b717e0baf1da4c2d9)
REM AIRSS Version 0.9.1 bugfix July 2018 build 013d7b7c2542+ Fri, 06 Jul 2018 19:26:36 +0100
REM compiler GCC version 9.3.0
REM options -cpp -mtune=generic -march=x86-64 -g -O0
REM seed -587521255 1412250364 43475462 -360109841 1423377532 -527596910 -701247144 2141007469 1538898158 -1559015346 681206812 -1995213919 1850150592 2052210962 -2024652640 1712016570 1423187929 -970384395 -1304715865 558075186 -101911474 -1067481972 182524071 -1050884749 -693916969 -2084605887 2145872598 1148483498 -742716486 -1282767401 -1821950034 -499023108 -505665558
REM
CELL 1.54180   50.00000   50.00000   50.00000   90.00000   90.00000   90.00000
LATT -1
SFAC C  
C      1  0.4875630000000  0.4054990000000  0.4315570000000 1.0
C      1  0.5598070000000  0.4366280000000  0.5593860000000 1.0
C      1  0.5854110000000  0.4908400000000  0.4417740000000 1.0
C      1  0.5715870000000  0.5610230000000  0.5711940000000 1.0
C      1  0.5047930000000  0.5843850000000  0.4449540000000 1.0
C      1  0.4437940000000  0.5616580000000  0.5542430000000 1.0
C      1  0.4063090000000  0.5085310000000  0.4302040000000 1.0
C      1  0.4391530000000  0.4432520000000  0.5568770000000 1.0
C      1  0.5082720000000  0.3897860000000  0.4452730000000 1.0
C      1  0.5869580000000  0.4379450000000  0.5445440000000 1.0
C      1  0.5962360000000  0.5160840000000  0.4560670000000 1.0
C      1  0.5667980000000  0.5875640000000  0.5601820000000 1.0
C      1  0.4836350000000  0.6028070000000  0.4569480000000 1.0
C      1  0.4147110000000  0.5609490000000  0.5420170000000 1.0
C      1  0.3910580000000  0.4874990000000  0.4435720000000 1.0
C      1  0.4398930000000  0.4151600000000  0.5444040000000 1.0
C      1  0.5688910000000  0.4998760000000  0.4181500000000 1.0
C      1  0.5461250000000  0.5529070000000  0.5836030000000 1.0
C      1  0.4948510000000  0.5681000000000  0.4202680000000 1.0
C      1  0.4469930000000  0.5438270000000  0.5785460000000 1.0
C      1  0.4296300000000  0.4952070000000  0.4176180000000 1.0
C      1  0.4570420000000  0.4470820000000  0.5813170000000 1.0
C      1  0.5017710000000  0.4281310000000  0.4184100000000 1.0
C      1  0.5560940000000  0.4563060000000  0.5818660000000 1.0
C      1  0.4981750000000  0.4623770000000  0.4543470000000 1.0
C      1  0.5271380000000  0.4749600000000  0.5480920000000 1.0
C      1  0.5370140000000  0.4989250000000  0.4526030000000 1.0
C      1  0.5300970000000  0.5272240000000  0.5446260000000 1.0
C      1  0.5019390000000  0.5335860000000  0.4521020000000 1.0
C      1  0.4811470000000  0.5267320000000  0.5478170000000 1.0
C      1  0.4637700000000  0.4992350000000  0.4546630000000 1.0
C      1  0.4802490000000  0.4740680000000  0.5491470000000 1.0
C      1  0.5734290000000  0.5947540000000  0.5330660000000 1.0
C      1  0.4881270000000  0.6111820000000  0.4856010000000 1.0
C      1  0.4119670000000  0.5705450000000  0.5139340000000 1.0
C      1  0.3827120000000  0.4884340000000  0.4712390000000 1.0
C      1  0.4302150000000  0.4134930000000  0.5161070000000 1.0
C      1  0.5075230000000  0.3856460000000  0.4738320000000 1.0
C      1  0.5873630000000  0.4275890000000  0.5161160000000 1.0
C      1  0.6082200000000  0.5136460000000  0.4830640000000 1.0
C      1  0.4646310000000  0.4501750000000  0.5396840000000 1.0
C      1  0.5082300000000  0.4363070000000  0.4629420000000 1.0
C      1  0.5519380000000  0.4620020000000  0.5390910000000 1.0
C      1  0.5635060000000  0.4978780000000  0.4628620000000 1.0
C      1  0.5415560000000  0.5517960000000  0.5324620000000 1.0
C      1  0.4934050000000  0.5609910000000  0.4612650000000 1.0
C      1  0.4556470000000  0.5374840000000  0.5367090000000 1.0
C      1  0.4368560000000  0.4918540000000  0.4646550000000 1.0
C      1  0.5762110000000  0.4693030000000  0.5018680000000 1.0
C      1  0.5756090000000  0.5440690000000  0.4957850000000 1.0
C      1  0.5533470000000  0.6076300000000  0.5164330000000 1.0
C      1  0.4681270000000  0.5704850000000  0.4990020000000 1.0
C      1  0.4256490000000  0.5303310000000  0.5000680000000 1.0
C      1  0.3885710000000  0.4656030000000  0.4879680000000 1.0
C      1  0.4745370000000  0.4231230000000  0.5013620000000 1.0
C      1  0.5249400000000  0.4038150000000  0.4908520000000 1.0
C      1  0.5367930000000  0.4963250000000  0.4200440000000 1.0
C      1  0.5287970000000  0.5282120000000  0.5772890000000 1.0
C      1  0.4988400000000  0.5361380000000  0.4207570000000 1.0
C      1  0.4732720000000  0.5262180000000  0.5788470000000 1.0
C      1  0.4608350000000  0.4988090000000  0.4223030000000 1.0
C      1  0.4757140000000  0.4720370000000  0.5800000000000 1.0
C      1  0.4985660000000  0.4594170000000  0.4221720000000 1.0
C      1  0.5299670000000  0.4741890000000  0.5798360000000 1.0
C      1  0.4610520000000  0.3958370000000  0.4728690000000 1.0
C      1  0.5483110000000  0.4009870000000  0.5309720000000 1.0
C      1  0.6048850000000  0.4620660000000  0.4735150000000 1.0
C      1  0.5984790000000  0.5515940000000  0.5303840000000 1.0
C      1  0.5347010000000  0.6128840000000  0.4734000000000 1.0
C      1  0.4527060000000  0.5994930000000  0.5264090000000 1.0
C      1  0.3941270000000  0.5364430000000  0.4697970000000 1.0
C      1  0.3986080000000  0.4486300000000  0.5298310000000 1.0
C      1  0.5286110000000  0.5276530000000  0.4924010000000 1.0
C      1  0.5020390000000  0.5367840000000  0.5030240000000 1.0
C      1  0.4767260000000  0.5228980000000  0.4953490000000 1.0
C      1  0.4435130000000  0.4927840000000  0.5127660000000 1.0
C      1  0.4787260000000  0.4704630000000  0.4972520000000 1.0
C      1  0.5050920000000  0.4591250000000  0.5061060000000 1.0
C      1  0.5283000000000  0.4738900000000  0.4958820000000 1.0
C      1  0.5380790000000  0.5011060000000  0.5039820000000 1.0
C      1  0.4333590000000  0.5026820000000  0.5669110000000 1.0
C      1  0.4479630000000  0.4539120000000  0.4287970000000 1.0
C      1  0.4987670000000  0.4309550000000  0.5758440000000 1.0
C      1  0.5443210000000  0.4463740000000  0.4288240000000 1.0
C      1  0.5703580000000  0.4981700000000  0.5720010000000 1.0
C      1  0.5476230000000  0.5404890000000  0.4171090000000 1.0
C      1  0.5034620000000  0.5683780000000  0.5727310000000 1.0
C      1  0.4541990000000  0.5493390000000  0.4276290000000 1.0
C      1  0.4235340000000  0.5290390000000  0.5756980000000 1.0
C      1  0.4246540000000  0.4676640000000  0.4191830000000 1.0
C      1  0.4712810000000  0.4229650000000  0.5814530000000 1.0
C      1  0.5295000000000  0.4226200000000  0.4202960000000 1.0
C      1  0.5796020000000  0.4713940000000  0.5792080000000 1.0
C      1  0.5728510000000  0.5272120000000  0.4162590000000 1.0
C      1  0.5291420000000  0.5756420000000  0.5833450000000 1.0
C      1  0.4673850000000  0.5747950000000  0.4207770000000 1.0
C      1  0.4076030000000  0.4294320000000  0.5109060000000 1.0
C      1  0.4832400000000  0.3843550000000  0.4875050000000 1.0
C      1  0.5678720000000  0.4080090000000  0.5114940000000 1.0
C      1  0.6132710000000  0.4864820000000  0.4885600000000 1.0
C      1  0.5914230000000  0.5770190000000  0.5192980000000 1.0
C      1  0.5144050000000  0.6186800000000  0.4922080000000 1.0
C      1  0.4307130000000  0.5907430000000  0.5093510000000 1.0
C      1  0.3838810000000  0.5138640000000  0.4845740000000 1.0
C      1  0.4916440000000  0.4342100000000  0.5459570000000 1.0
C      1  0.5368220000000  0.4460190000000  0.4586340000000 1.0
C      1  0.5650070000000  0.4909330000000  0.5421670000000 1.0
C      1  0.5532340000000  0.5478120000000  0.4469680000000 1.0
C      1  0.5150500000000  0.5664140000000  0.5393580000000 1.0
C      1  0.4639120000000  0.5506350000000  0.4571900000000 1.0
C      1  0.4448600000000  0.5090460000000  0.5394900000000 1.0
C      1  0.4450280000000  0.4625130000000  0.4613050000000 1.0
C      1  0.3953800000000  0.5162300000000  0.5115020000000 1.0
C      1  0.4057600000000  0.4413660000000  0.4848140000000 1.0
C      1  0.4822110000000  0.3974070000000  0.5146140000000 1.0
C      1  0.5544240000000  0.4095220000000  0.4861100000000 1.0
C      1  0.6012930000000  0.4817430000000  0.5145530000000 1.0
C      1  0.5867620000000  0.5706770000000  0.4916690000000 1.0
C      1  0.5240800000000  0.6111880000000  0.5187180000000 1.0
C      1  0.4445120000000  0.5835600000000  0.4846950000000 1.0
C      1  0.4707160000000  0.4702300000000  0.4170980000000 1.0
C      1  0.5030940000000  0.4604740000000  0.5867340000000 1.0
C      1  0.5270580000000  0.4685120000000  0.4158640000000 1.0
C      1  0.5417610000000  0.5016080000000  0.5844310000000 1.0
C      1  0.5252050000000  0.5240330000000  0.4115500000000 1.0
C      1  0.4998490000000  0.5397450000000  0.5821170000000 1.0
C      1  0.4708690000000  0.5264160000000  0.4153900000000 1.0
C      1  0.4613060000000  0.4988650000000  0.5833170000000 1.0
C      1  0.5023970000000  0.5942420000000  0.5319870000000 1.0
C      1  0.4338740000000  0.5638430000000  0.4667790000000 1.0
C      1  0.3944160000000  0.4948500000000  0.5299610000000 1.0
C      1  0.4319760000000  0.4355750000000  0.4700250000000 1.0
C      1  0.5013630000000  0.4042210000000  0.5362050000000 1.0
C      1  0.5650910000000  0.4317000000000  0.4698720000000 1.0
C      1  0.5922620000000  0.5043550000000  0.5305070000000 1.0
C      1  0.5723700000000  0.5868830000000  0.4743170000000 1.0
C      1  0.4143520000000  0.4577890000000  0.5514310000000 1.0
C      1  0.4621450000000  0.4061520000000  0.4458030000000 1.0
C      1  0.5437160000000  0.4129460000000  0.5562800000000 1.0
C      1  0.5931820000000  0.4626880000000  0.4472620000000 1.0
C      1  0.5907710000000  0.5441920000000  0.5567790000000 1.0
C      1  0.5315860000000  0.5930970000000  0.4527980000000 1.0
C      1  0.4590900000000  0.5872150000000  0.5513630000000 1.0
C      1  0.4054450000000  0.5342290000000  0.4433420000000 1.0
C      1  0.4029710000000  0.4640720000000  0.4356480000000 1.0
C      1  0.4587870000000  0.4059180000000  0.5617740000000 1.0
C      1  0.5319400000000  0.4011390000000  0.4370940000000 1.0
C      1  0.5962890000000  0.4593830000000  0.5590390000000 1.0
C      1  0.5824400000000  0.5368360000000  0.4417770000000 1.0
C      1  0.5418130000000  0.5956130000000  0.5689550000000 1.0
C      1  0.4635090000000  0.5956090000000  0.4399090000000 1.0
C      1  0.4051170000000  0.5412990000000  0.5580770000000 1.0
C      1  0.5585290000000  0.6075700000000  0.4880890000000 1.0
C      1  0.4782620000000  0.5971830000000  0.5116860000000 1.0
C      1  0.4132310000000  0.5527210000000  0.4860850000000 1.0
C      1  0.3873500000000  0.4706870000000  0.5162570000000 1.0
C      1  0.4469200000000  0.4155680000000  0.4894160000000 1.0
C      1  0.5234440000000  0.3975440000000  0.5191160000000 1.0
C      1  0.5865950000000  0.4444310000000  0.4891310000000 1.0
C      1  0.5959190000000  0.5273030000000  0.5100750000000 1.0
C      1  0.4114740000000  0.4860680000000  0.5531740000000 1.0
C      1  0.4435200000000  0.4271230000000  0.4427520000000 1.0
C      1  0.5164230000000  0.4097340000000  0.5630410000000 1.0
C      1  0.5725250000000  0.4427440000000  0.4431580000000 1.0
C      1  0.5912440000000  0.5161720000000  0.5582380000000 1.0
C      1  0.5545120000000  0.5763600000000  0.4539340000000 1.0
C      1  0.4867340000000  0.5889600000000  0.5577020000000 1.0
C      1  0.4266890000000  0.5526970000000  0.4404430000000 1.0
C      1  0.5038100000000  0.4309840000000  0.4906180000000 1.0
C      1  0.5500010000000  0.4584690000000  0.5111590000000 1.0
C      1  0.5640660000000  0.4943510000000  0.4904950000000 1.0
C      1  0.5474140000000  0.5464630000000  0.5052020000000 1.0
C      1  0.4950170000000  0.5623140000000  0.4895230000000 1.0
C      1  0.4556290000000  0.5414330000000  0.5080430000000 1.0
C      1  0.4316120000000  0.5026940000000  0.4898330000000 1.0
C      1  0.4638990000000  0.4491540000000  0.5114390000000 1.0
C      1  0.4757880000000  0.5231170000000  0.4656860000000 1.0
C      1  0.4761510000000  0.4996580000000  0.5373700000000 1.0
C      1  0.4739180000000  0.4720420000000  0.4676850000000 1.0
C      1  0.5048320000000  0.4604400000000  0.5362080000000 1.0
C      1  0.5252910000000  0.4740280000000  0.4658180000000 1.0
C      1  0.5376420000000  0.5013470000000  0.5336340000000 1.0
C      1  0.5297390000000  0.5265020000000  0.4619870000000 1.0
C      1  0.5038090000000  0.5388110000000  0.5327920000000 1.0
C      1  0.4727190000000  0.4964900000000  0.5086720000000 1.0
END
