TITL C-122780-4689-4 -0.148346928232157 125000 -379.567195110988 0 0 57 (C1) n - 1
REM
REM in /rds/project/t2_vol4/rds-t2-cs072/BORA/CARBON/from-Arr/AIRSS/Generating-Clusters/GAP-ML-2020/Higher-Symm/SD-CG/HFTN-CG
REM
REM
REM
REM
REM
REM ./C.cell (b20cbc046b6831c77cfcea5457e17084)
REM AIRSS Version 0.9.1 bugfix July 2018 build 013d7b7c2542+ Fri, 06 Jul 2018 19:26:36 +0100
REM compiler GCC version 9.3.0
REM options -cpp -mtune=generic -march=x86-64 -g -O0
REM seed -178771894 1328832155 -1255347 714349214 -1332310091 -2085520523 484166698 1347026111 -1210584902 -1639541585 -1419234361 927462443 -1232107249 -1100687971 -1583020274 -390412601 -1276278010 -50683168 -401498302 1446134453 -1635127824 -56790994 -1343827216 1814496581 -1929210199 -1526201316 111058364 -1013017921 -1152862345 -1084357036 -273798506 2138615527 -627363952
REM
CELL 1.54180   50.00000   50.00000   50.00000   90.00000   90.00000   90.00000
LATT -1
SFAC C  
C      1  0.5286460000000  0.4413750000000  0.4737980000000 1.0
C      1  0.5263280000000  0.5033270000000  0.4358220000000 1.0
C      1  0.5273360000000  0.5603700000000  0.4806590000000 1.0
C      1  0.5271360000000  0.5367270000000  0.5506160000000 1.0
C      1  0.5255110000000  0.4642090000000  0.5481280000000 1.0
C      1  0.4999060000000  0.5630130000000  0.5183030000000 1.0
C      1  0.4981710000000  0.5027600000000  0.5653360000000 1.0
C      1  0.4984060000000  0.4426650000000  0.5242420000000 1.0
C      1  0.5000470000000  0.4654300000000  0.4430230000000 1.0
C      1  0.4987240000000  0.5383330000000  0.4487810000000 1.0
C      1  0.4544510000000  0.4658720000000  0.4690050000000 1.0
C      1  0.4529950000000  0.5114940000000  0.4542520000000 1.0
C      1  0.4546810000000  0.5442250000000  0.4929430000000 1.0
C      1  0.4542750000000  0.5185670000000  0.5434890000000 1.0
C      1  0.4534850000000  0.4656160000000  0.5297640000000 1.0
C      1  0.5624730000000  0.4934810000000  0.5225440000000 1.0
C      1  0.5610470000000  0.4755360000000  0.4991550000000 1.0
C      1  0.5619250000000  0.4917890000000  0.4748810000000 1.0
C      1  0.5625330000000  0.5195570000000  0.4825740000000 1.0
C      1  0.5630120000000  0.5209900000000  0.5121800000000 1.0
C      1  0.5214210000000  0.4921890000000  0.5204800000000 1.0
C      1  0.5223300000000  0.4745610000000  0.4985460000000 1.0
C      1  0.5185990000000  0.4925410000000  0.4764710000000 1.0
C      1  0.5225880000000  0.5196880000000  0.4844750000000 1.0
C      1  0.5242520000000  0.5198110000000  0.5122230000000 1.0
C      1  0.4463450000000  0.5268360000000  0.5154250000000 1.0
C      1  0.4452570000000  0.4918200000000  0.5381630000000 1.0
C      1  0.4513950000000  0.4747790000000  0.5004940000000 1.0
C      1  0.4433480000000  0.4847310000000  0.4531500000000 1.0
C      1  0.4457000000000  0.5333490000000  0.4690610000000 1.0
C      1  0.4796830000000  0.5255710000000  0.5574980000000 1.0
C      1  0.4779900000000  0.4551560000000  0.5418310000000 1.0
C      1  0.4808080000000  0.4533220000000  0.4598470000000 1.0
C      1  0.4828110000000  0.5120360000000  0.4500410000000 1.0
C      1  0.4830090000000  0.5557770000000  0.4931450000000 1.0
C      1  0.5417380000000  0.5403020000000  0.5245690000000 1.0
C      1  0.5395740000000  0.4889900000000  0.5438840000000 1.0
C      1  0.5417210000000  0.4522340000000  0.4999270000000 1.0
C      1  0.5404050000000  0.4850400000000  0.4539670000000 1.0
C      1  0.5412080000000  0.5373570000000  0.4684690000000 1.0
C      1  0.4926300000000  0.4924060000000  0.5256360000000 1.0
C      1  0.4961880000000  0.4559700000000  0.4990800000000 1.0
C      1  0.4891270000000  0.5009370000000  0.4789790000000 1.0
C      1  0.4908240000000  0.5262480000000  0.4939630000000 1.0
C      1  0.4954940000000  0.5212940000000  0.5214940000000 1.0
C      1  0.5265850000000  0.4443750000000  0.5280460000000 1.0
C      1  0.5279810000000  0.4583750000000  0.4516960000000 1.0
C      1  0.5261430000000  0.5303270000000  0.4432890000000 1.0
C      1  0.5265730000000  0.5614200000000  0.5090740000000 1.0
C      1  0.5254110000000  0.5102420000000  0.5602370000000 1.0
C      1  0.4958540000000  0.4752200000000  0.5533440000000 1.0
C      1  0.4997580000000  0.4391450000000  0.4766380000000 1.0
C      1  0.4992050000000  0.4927260000000  0.4344240000000 1.0
C      1  0.4996930000000  0.5592510000000  0.4695060000000 1.0
C      1  0.4982120000000  0.5437610000000  0.5424670000000 1.0
C      1  0.4374340000000  0.4996440000000  0.5101780000000 1.0
C      1  0.4796540000000  0.4814340000000  0.4999570000000 1.0
END
