TITL C-122892-6725-2 -8.12453990080608 125000 -897.349904038935 0 0 127 (C1) n - 1
REM
REM in /rds/project/t2_vol4/rds-t2-cs072/BORA/CARBON/from-Arr/AIRSS/Generating-Clusters/GAP-ML-2020/Higher-Symm/SD-CG/HFTN-CG
REM
REM
REM
REM
REM
REM ./C.cell (b20cbc046b6831c77cfcea5457e17084)
REM AIRSS Version 0.9.1 bugfix July 2018 build 013d7b7c2542+ Fri, 06 Jul 2018 19:26:36 +0100
REM compiler GCC version 9.3.0
REM options -cpp -mtune=generic -march=x86-64 -g -O0
REM seed 1101302717 -1756038922 2007336097 -1491494767 -652215768 1109583421 -635547744 -1926299322 -2132275756 -413311871 352330518 -1550466023 -1140688850 331772286 1058617396 -1756643395 37800651 2038905366 -1576416205 -983443243 -834397329 466761972 -1083050116 1814263459 -1688533651 441401680 407043812 -1674345850 -2114227327 1924860186 -2003635352 881085942 1527064577
REM
CELL 1.54180   50.00000   50.00000   50.00000   90.00000   90.00000   90.00000
LATT -1
SFAC C  
C      1  0.4247110000000  0.5505840000000  0.5285560000000 1.0
C      1  0.5749370000000  0.4475660000000  0.4738020000000 1.0
C      1  0.4257040000000  0.5623440000000  0.4840740000000 1.0
C      1  0.5722990000000  0.4338060000000  0.5180980000000 1.0
C      1  0.5410510000000  0.4763950000000  0.4676280000000 1.0
C      1  0.4609080000000  0.5235270000000  0.5342070000000 1.0
C      1  0.5333420000000  0.5499690000000  0.5160300000000 1.0
C      1  0.4681710000000  0.4520280000000  0.4840930000000 1.0
C      1  0.5290990000000  0.5004400000000  0.4508960000000 1.0
C      1  0.4718980000000  0.4995380000000  0.5485270000000 1.0
C      1  0.4463000000000  0.5027740000000  0.5181370000000 1.0
C      1  0.5541850000000  0.4960750000000  0.4867880000000 1.0
C      1  0.5163570000000  0.4783110000000  0.4165070000000 1.0
C      1  0.4849700000000  0.5220060000000  0.5859560000000 1.0
C      1  0.5930200000000  0.4753760000000  0.5164820000000 1.0
C      1  0.4081690000000  0.5176110000000  0.4871000000000 1.0
C      1  0.4594270000000  0.4325730000000  0.4616640000000 1.0
C      1  0.5399710000000  0.5704150000000  0.5373580000000 1.0
C      1  0.5844320000000  0.4529170000000  0.5012740000000 1.0
C      1  0.4157210000000  0.5422930000000  0.5011410000000 1.0
C      1  0.5678550000000  0.5513280000000  0.4767430000000 1.0
C      1  0.4303570000000  0.4524930000000  0.5203250000000 1.0
C      1  0.4733600000000  0.5296680000000  0.4891680000000 1.0
C      1  0.5250770000000  0.4691480000000  0.5116620000000 1.0
C      1  0.4414540000000  0.5813820000000  0.4982490000000 1.0
C      1  0.5555950000000  0.4165220000000  0.5030280000000 1.0
C      1  0.5118660000000  0.6021040000000  0.4791850000000 1.0
C      1  0.4839230000000  0.3987820000000  0.5198480000000 1.0
C      1  0.5268010000000  0.5604110000000  0.4428570000000 1.0
C      1  0.4708670000000  0.4397840000000  0.5568580000000 1.0
C      1  0.5303900000000  0.5240940000000  0.4178020000000 1.0
C      1  0.4694370000000  0.4756930000000  0.5849210000000 1.0
C      1  0.5675030000000  0.5384350000000  0.4490620000000 1.0
C      1  0.4339440000000  0.4662600000000  0.5499460000000 1.0
C      1  0.5266870000000  0.5686210000000  0.5638820000000 1.0
C      1  0.4733770000000  0.4327400000000  0.4351020000000 1.0
C      1  0.5624640000000  0.4636920000000  0.4500730000000 1.0
C      1  0.4390520000000  0.5368480000000  0.5529020000000 1.0
C      1  0.4970230000000  0.4940480000000  0.5359250000000 1.0
C      1  0.5003810000000  0.5049890000000  0.4506330000000 1.0
C      1  0.4199890000000  0.4914550000000  0.5547090000000 1.0
C      1  0.5782760000000  0.5118870000000  0.4499740000000 1.0
C      1  0.4702880000000  0.4090740000000  0.4771540000000 1.0
C      1  0.5274780000000  0.5924510000000  0.5214680000000 1.0
C      1  0.4560500000000  0.4783630000000  0.5343200000000 1.0
C      1  0.5357380000000  0.5165720000000  0.4753360000000 1.0
C      1  0.5611910000000  0.4386120000000  0.5441280000000 1.0
C      1  0.4361290000000  0.5583370000000  0.4577370000000 1.0
C      1  0.4637510000000  0.5887480000000  0.4817330000000 1.0
C      1  0.5325270000000  0.4103340000000  0.5190060000000 1.0
C      1  0.5336340000000  0.5903090000000  0.4943320000000 1.0
C      1  0.4627210000000  0.4107360000000  0.5040330000000 1.0
C      1  0.5674250000000  0.4901880000000  0.4351610000000 1.0
C      1  0.4343140000000  0.5115100000000  0.5685660000000 1.0
C      1  0.4863860000000  0.3968750000000  0.5467630000000 1.0
C      1  0.5093350000000  0.6036040000000  0.4521640000000 1.0
C      1  0.5172670000000  0.4315490000000  0.5651350000000 1.0
C      1  0.4793940000000  0.5673210000000  0.4360500000000 1.0
C      1  0.5761270000000  0.5113090000000  0.5428740000000 1.0
C      1  0.4230770000000  0.4846330000000  0.4534840000000 1.0
C      1  0.4984750000000  0.4760800000000  0.5875150000000 1.0
C      1  0.5009730000000  0.5237770000000  0.4165450000000 1.0
C      1  0.5472590000000  0.5518730000000  0.5606840000000 1.0
C      1  0.4516030000000  0.4486630000000  0.4360910000000 1.0
C      1  0.4143040000000  0.4670450000000  0.5003310000000 1.0
C      1  0.5829890000000  0.5345600000000  0.4931840000000 1.0
C      1  0.5352890000000  0.5208190000000  0.5261380000000 1.0
C      1  0.4713870000000  0.4814730000000  0.4831060000000 1.0
C      1  0.5433650000000  0.4928840000000  0.5134820000000 1.0
C      1  0.4587060000000  0.5044450000000  0.4916750000000 1.0
C      1  0.5014240000000  0.4687290000000  0.5269140000000 1.0
C      1  0.4955360000000  0.5297700000000  0.4708440000000 1.0
C      1  0.4615980000000  0.4966000000000  0.4238420000000 1.0
C      1  0.5355120000000  0.5025100000000  0.5742100000000 1.0
C      1  0.4562460000000  0.4394350000000  0.5097130000000 1.0
C      1  0.5411890000000  0.5618530000000  0.4884940000000 1.0
C      1  0.4973830000000  0.4438350000000  0.4803540000000 1.0
C      1  0.5030330000000  0.5563310000000  0.5185090000000 1.0
C      1  0.5458970000000  0.5444040000000  0.4307190000000 1.0
C      1  0.4534240000000  0.4559880000000  0.5708550000000 1.0
C      1  0.5065340000000  0.5152690000000  0.5199780000000 1.0
C      1  0.4980560000000  0.4872210000000  0.4768200000000 1.0
C      1  0.4749450000000  0.4536510000000  0.5303440000000 1.0
C      1  0.5222890000000  0.5478910000000  0.4688620000000 1.0
C      1  0.5424700000000  0.4744200000000  0.5724480000000 1.0
C      1  0.4551580000000  0.5244380000000  0.4279470000000 1.0
C      1  0.4841300000000  0.5866090000000  0.5480640000000 1.0
C      1  0.5147890000000  0.4138370000000  0.4520030000000 1.0
C      1  0.5001410000000  0.4125730000000  0.4778990000000 1.0
C      1  0.4978850000000  0.5881790000000  0.5217500000000 1.0
C      1  0.4906130000000  0.4199530000000  0.5612580000000 1.0
C      1  0.5060260000000  0.5793400000000  0.4390940000000 1.0
C      1  0.5368380000000  0.4235990000000  0.5456200000000 1.0
C      1  0.4596860000000  0.5748410000000  0.4554780000000 1.0
C      1  0.4546830000000  0.5569720000000  0.5665640000000 1.0
C      1  0.5456440000000  0.4440460000000  0.4357170000000 1.0
C      1  0.5173130000000  0.4651270000000  0.4833690000000 1.0
C      1  0.4831320000000  0.5356560000000  0.5167700000000 1.0
C      1  0.4805070000000  0.5497030000000  0.5782770000000 1.0
C      1  0.5202640000000  0.4510500000000  0.4232290000000 1.0
C      1  0.4439250000000  0.4762590000000  0.4343900000000 1.0
C      1  0.5490730000000  0.5221350000000  0.5545450000000 1.0
C      1  0.4984370000000  0.5704780000000  0.5679830000000 1.0
C      1  0.5014300000000  0.4303590000000  0.4320950000000 1.0
C      1  0.5642770000000  0.4641020000000  0.5568290000000 1.0
C      1  0.4333760000000  0.5327360000000  0.4453270000000 1.0
C      1  0.5595700000000  0.4235500000000  0.4751060000000 1.0
C      1  0.4388200000000  0.5753350000000  0.5262760000000 1.0
C      1  0.4921190000000  0.4965060000000  0.4220850000000 1.0
C      1  0.5082640000000  0.5033130000000  0.5861740000000 1.0
C      1  0.4176260000000  0.5129270000000  0.4597940000000 1.0
C      1  0.5809340000000  0.4826640000000  0.5425260000000 1.0
C      1  0.4043220000000  0.4943090000000  0.5045210000000 1.0
C      1  0.5992070000000  0.4989800000000  0.5028720000000 1.0
C      1  0.4170110000000  0.4668390000000  0.4734040000000 1.0
C      1  0.5891400000000  0.5212900000000  0.5186460000000 1.0
C      1  0.4156880000000  0.5011960000000  0.5283780000000 1.0
C      1  0.5832570000000  0.5073130000000  0.4794070000000 1.0
C      1  0.5422560000000  0.4213270000000  0.4522850000000 1.0
C      1  0.4568100000000  0.5789170000000  0.5486760000000 1.0
C      1  0.5395440000000  0.4970140000000  0.4228010000000 1.0
C      1  0.4620480000000  0.5034640000000  0.5784240000000 1.0
C      1  0.5083990000000  0.4027940000000  0.5052320000000 1.0
C      1  0.4880490000000  0.5974410000000  0.4948060000000 1.0
C      1  0.5195840000000  0.4577430000000  0.5783700000000 1.0
C      1  0.4779740000000  0.5414620000000  0.4228720000000 1.0
C      1  0.5099450000000  0.5111830000000  0.4903200000000 1.0
END
