TITL C-123309-6639-2 0.0345472439288798 125000 -648.211647081529 0 0 90 (C1) n - 1
REM
REM in /rds/project/t2_vol4/rds-t2-cs072/BORA/CARBON/from-Arr/AIRSS/Generating-Clusters/GAP-ML-2020/Higher-Symm/SD-CG/HFTN-CG
REM
REM
REM
REM
REM
REM ./C.cell (b20cbc046b6831c77cfcea5457e17084)
REM AIRSS Version 0.9.1 bugfix July 2018 build 013d7b7c2542+ Fri, 06 Jul 2018 19:26:36 +0100
REM compiler GCC version 9.3.0
REM options -cpp -mtune=generic -march=x86-64 -g -O0
REM seed 1340521719 258824235 -44734161 345434624 744321694 150263755 -287524976 -1060199175 827604482 472457057 -2101123822 -1532899933 -1155873977 -1888745822 1076572729 -665387399 926852457 2090840470 -1829018576 1093944908 -1777393293 2141765046 -138317652 303970952 1696737971 1259570237 -459472520 401993978 -464643939 29386014 1760940889 -1551780031 977309402
REM
CELL 1.54180   50.00000   50.00000   50.00000   90.00000   90.00000   90.00000
LATT -1
SFAC C  
C      1  0.5402390000000  0.5040150000000  0.5098240000000 1.0
C      1  0.5231290000000  0.5025030000000  0.4890700000000 1.0
C      1  0.4948150000000  0.5149220000000  0.4561430000000 1.0
C      1  0.4799760000000  0.5257210000000  0.4941180000000 1.0
C      1  0.4841430000000  0.5111320000000  0.5202370000000 1.0
C      1  0.5037200000000  0.5141760000000  0.5379940000000 1.0
C      1  0.5288790000000  0.5111880000000  0.5319510000000 1.0
C      1  0.4662050000000  0.5332740000000  0.5750450000000 1.0
C      1  0.5360720000000  0.5405290000000  0.5817150000000 1.0
C      1  0.5792900000000  0.5440200000000  0.5254230000000 1.0
C      1  0.5570010000000  0.5331710000000  0.4581080000000 1.0
C      1  0.4993000000000  0.5274260000000  0.4134290000000 1.0
C      1  0.4337630000000  0.5329060000000  0.4419170000000 1.0
C      1  0.4266560000000  0.5345060000000  0.5136990000000 1.0
C      1  0.4805510000000  0.4849570000000  0.5082860000000 1.0
C      1  0.4794270000000  0.4577440000000  0.5237870000000 1.0
C      1  0.5100120000000  0.4500030000000  0.5290050000000 1.0
C      1  0.5273730000000  0.4473740000000  0.5059460000000 1.0
C      1  0.5177950000000  0.4777710000000  0.4695730000000 1.0
C      1  0.4895510000000  0.4881540000000  0.4618050000000 1.0
C      1  0.4720090000000  0.4949000000000  0.4826230000000 1.0
C      1  0.4366080000000  0.5081340000000  0.5517470000000 1.0
C      1  0.5031460000000  0.5101510000000  0.5936120000000 1.0
C      1  0.5755390000000  0.5209450000000  0.5651270000000 1.0
C      1  0.5879520000000  0.5146990000000  0.4876870000000 1.0
C      1  0.5341250000000  0.5014680000000  0.4288350000000 1.0
C      1  0.4560470000000  0.5054820000000  0.4130490000000 1.0
C      1  0.4103940000000  0.5099020000000  0.4775930000000 1.0
C      1  0.4652930000000  0.4788400000000  0.4152260000000 1.0
C      1  0.4156820000000  0.4838040000000  0.4673440000000 1.0
C      1  0.4366770000000  0.4824550000000  0.5381180000000 1.0
C      1  0.4965790000000  0.4838850000000  0.5826690000000 1.0
C      1  0.5672690000000  0.4940100000000  0.5709980000000 1.0
C      1  0.5879140000000  0.4905390000000  0.5030600000000 1.0
C      1  0.5401260000000  0.4812290000000  0.4490200000000 1.0
C      1  0.5574730000000  0.5506170000000  0.4827250000000 1.0
C      1  0.5143930000000  0.5440430000000  0.4316320000000 1.0
C      1  0.4587180000000  0.5458940000000  0.4350480000000 1.0
C      1  0.4353860000000  0.5474300000000  0.4885710000000 1.0
C      1  0.4596460000000  0.5503750000000  0.5524380000000 1.0
C      1  0.5116940000000  0.5525460000000  0.5729350000000 1.0
C      1  0.5573920000000  0.5571410000000  0.5398660000000 1.0
C      1  0.5584400000000  0.5438010000000  0.5659750000000 1.0
C      1  0.5795050000000  0.5402180000000  0.4979330000000 1.0
C      1  0.5383110000000  0.5292220000000  0.4375240000000 1.0
C      1  0.4714960000000  0.5294670000000  0.4147600000000 1.0
C      1  0.4213520000000  0.5340990000000  0.4671270000000 1.0
C      1  0.4373810000000  0.5348720000000  0.5395630000000 1.0
C      1  0.4916150000000  0.5350350000000  0.5850130000000 1.0
C      1  0.5222710000000  0.4712040000000  0.5750150000000 1.0
C      1  0.5744920000000  0.4772110000000  0.5488230000000 1.0
C      1  0.5706220000000  0.4705610000000  0.4908090000000 1.0
C      1  0.4976830000000  0.4549630000000  0.4299050000000 1.0
C      1  0.4472270000000  0.4651040000000  0.4342850000000 1.0
C      1  0.4254370000000  0.4666070000000  0.4885890000000 1.0
C      1  0.4608030000000  0.4678800000000  0.5471540000000 1.0
C      1  0.5307970000000  0.5143670000000  0.5928710000000 1.0
C      1  0.5885690000000  0.5211260000000  0.5402610000000 1.0
C      1  0.5741440000000  0.5098000000000  0.4639590000000 1.0
C      1  0.5107190000000  0.5002670000000  0.4131720000000 1.0
C      1  0.4328140000000  0.5079920000000  0.4289640000000 1.0
C      1  0.4147470000000  0.5094010000000  0.5056600000000 1.0
C      1  0.4553850000000  0.5068480000000  0.5724570000000 1.0
C      1  0.5429750000000  0.4900820000000  0.5841910000000 1.0
C      1  0.5893590000000  0.4939710000000  0.5304620000000 1.0
C      1  0.5646110000000  0.4825150000000  0.4642570000000 1.0
C      1  0.4939630000000  0.4764320000000  0.4138060000000 1.0
C      1  0.4267580000000  0.4834360000000  0.4416660000000 1.0
C      1  0.4230240000000  0.4826160000000  0.5133360000000 1.0
C      1  0.4702970000000  0.4819180000000  0.5710240000000 1.0
C      1  0.5352300000000  0.5641360000000  0.4968990000000 1.0
C      1  0.5022180000000  0.5605660000000  0.4530360000000 1.0
C      1  0.4737870000000  0.5575900000000  0.4561340000000 1.0
C      1  0.4637920000000  0.5502310000000  0.4831280000000 1.0
C      1  0.4804900000000  0.5677950000000  0.5446080000000 1.0
C      1  0.5083700000000  0.5663750000000  0.5465940000000 1.0
C      1  0.5332090000000  0.5666050000000  0.5271300000000 1.0
C      1  0.4555700000000  0.4459850000000  0.4534700000000 1.0
C      1  0.4465890000000  0.4479690000000  0.4822590000000 1.0
C      1  0.4656970000000  0.4394310000000  0.5026530000000 1.0
C      1  0.5283110000000  0.4560970000000  0.5508210000000 1.0
C      1  0.5555430000000  0.4586190000000  0.5389000000000 1.0
C      1  0.5544770000000  0.4550780000000  0.5103180000000 1.0
C      1  0.4835290000000  0.4399030000000  0.4479640000000 1.0
C      1  0.5177740000000  0.4496510000000  0.4797890000000 1.0
C      1  0.4843390000000  0.3925920000000  0.4987600000000 1.0
C      1  0.5067460000000  0.5264710000000  0.4809650000000 1.0
C      1  0.5143890000000  0.5561850000000  0.4789590000000 1.0
C      1  0.4981400000000  0.4322900000000  0.4708540000000 1.0
C      1  0.4829270000000  0.4178640000000  0.4921470000000 1.0
END
