TITL C-125350-7125-5 -0.126378528581475 125000 -194.128673341474 0 0 30 (C1) n - 1
REM
REM in /rds/project/t2_vol4/rds-t2-cs072/BORA/CARBON/from-Arr/AIRSS/Generating-Clusters/GAP-ML-2020/Higher-Symm/SD-CG/HFTN-CG
REM
REM
REM
REM
REM
REM ./C.cell (b20cbc046b6831c77cfcea5457e17084)
REM AIRSS Version 0.9.1 bugfix July 2018 build 013d7b7c2542+ Fri, 06 Jul 2018 19:26:36 +0100
REM compiler GCC version 9.3.0
REM options -cpp -mtune=generic -march=x86-64 -g -O0
REM seed -57355137 102500807 1595719893 -558691302 -1407622274 -2076798334 1447326335 659873986 -551623971 -1690395897 -1550333988 1752406193 -106083709 2019303395 700754497 1539867449 -812791434 -1787075489 1955293277 -1547302336 1569011898 1665734654 -139278375 -1053245737 104326511 358590651 -2103444752 599337709 -407755340 400790645 -42860009 -1017014647 -396086765
REM
CELL 1.54180   50.00000   50.00000   50.00000   90.00000   90.00000   90.00000
LATT -1
SFAC C  
C      1  0.5033710000000  0.5128340000000  0.5277770000000 1.0
C      1  0.5296190000000  0.5269850000000  0.5209000000000 1.0
C      1  0.5332230000000  0.4658590000000  0.4970690000000 1.0
C      1  0.4530750000000  0.5101300000000  0.4956670000000 1.0
C      1  0.4890290000000  0.5457630000000  0.4950160000000 1.0
C      1  0.4627900000000  0.4829840000000  0.5295490000000 1.0
C      1  0.5090050000000  0.4995860000000  0.4550910000000 1.0
C      1  0.4525530000000  0.4840610000000  0.4832160000000 1.0
C      1  0.4961170000000  0.4730420000000  0.4624290000000 1.0
C      1  0.5005750000000  0.4727410000000  0.5625090000000 1.0
C      1  0.4790180000000  0.5193420000000  0.4858270000000 1.0
C      1  0.5561690000000  0.4722160000000  0.4832130000000 1.0
C      1  0.5086500000000  0.4598780000000  0.4840080000000 1.0
C      1  0.4781710000000  0.5286680000000  0.5326840000000 1.0
C      1  0.4981070000000  0.5011340000000  0.5002500000000 1.0
C      1  0.5472620000000  0.4955940000000  0.4721490000000 1.0
C      1  0.4774910000000  0.4740860000000  0.5506210000000 1.0
C      1  0.4783780000000  0.5525100000000  0.5194750000000 1.0
C      1  0.5351990000000  0.4990860000000  0.4464130000000 1.0
C      1  0.4820630000000  0.5094120000000  0.4580590000000 1.0
C      1  0.5209780000000  0.5090070000000  0.4832910000000 1.0
C      1  0.5248950000000  0.5365580000000  0.4935440000000 1.0
C      1  0.5116560000000  0.5592950000000  0.4876320000000 1.0
C      1  0.4578610000000  0.5096630000000  0.5236930000000 1.0
C      1  0.5122770000000  0.4877240000000  0.5416350000000 1.0
C      1  0.4695500000000  0.4838970000000  0.4595750000000 1.0
C      1  0.5461320000000  0.5058160000000  0.5225440000000 1.0
C      1  0.4902960000000  0.4724580000000  0.4995410000000 1.0
C      1  0.4627240000000  0.4685450000000  0.5039280000000 1.0
C      1  0.5337660000000  0.4811240000000  0.5226940000000 1.0
END
