TITL C-127519-208-8 -171.422929802429 125000 -629.338969869097 0 0 87 (C1) n - 1
REM
REM in /rds/project/t2_vol4/rds-t2-cs072/BORA/CARBON/from-Arr/AIRSS/Generating-Clusters/GAP-ML-2020/Higher-Symm/SD-CG/HFTN-CG
REM
REM
REM
REM
REM
REM ./C.cell (b20cbc046b6831c77cfcea5457e17084)
REM AIRSS Version 0.9.1 bugfix July 2018 build 013d7b7c2542+ Fri, 06 Jul 2018 19:26:36 +0100
REM compiler GCC version 9.3.0
REM options -cpp -mtune=generic -march=x86-64 -g -O0
REM seed -2038220437 -2002731444 -980205676 562988523 421365984 1504892345 2029832109 436531143 -1244651139 1827589779 1980386400 -299871181 982794378 -1164566414 2102059249 697487800 1063785437 1772660005 252455065 1954070790 -540287469 1940516802 2062653166 -1466932892 1946416153 -1942538091 1320538316 -201087796 -625039455 -87541599 599067471 -1070452947 1081261318
REM
CELL 1.54180   50.00000   50.00000   50.00000   90.00000   90.00000   90.00000
LATT -1
SFAC C  
C      1  0.4522900000000  0.4803080000000  0.4429260000000 1.0
C      1  0.4485950000000  0.5100870000000  0.4429950000000 1.0
C      1  0.4669480000000  0.5309790000000  0.4441820000000 1.0
C      1  0.4954610000000  0.5221250000000  0.4447400000000 1.0
C      1  0.5173140000000  0.5426280000000  0.4470080000000 1.0
C      1  0.5420040000000  0.5283320000000  0.4468540000000 1.0
C      1  0.5366230000000  0.5027360000000  0.4358350000000 1.0
C      1  0.5467730000000  0.4786180000000  0.4452190000000 1.0
C      1  0.5247960000000  0.4591880000000  0.4465510000000 1.0
C      1  0.5008600000000  0.4710640000000  0.4367400000000 1.0
C      1  0.4745880000000  0.4626980000000  0.4449620000000 1.0
C      1  0.4178650000000  0.5150970000000  0.4853470000000 1.0
C      1  0.4428070000000  0.5583250000000  0.4813710000000 1.0
C      1  0.4796910000000  0.5850370000000  0.4900210000000 1.0
C      1  0.5248990000000  0.5759500000000  0.4846500000000 1.0
C      1  0.5642990000000  0.5444360000000  0.4925110000000 1.0
C      1  0.5907160000000  0.5059840000000  0.4946400000000 1.0
C      1  0.5755580000000  0.4635210000000  0.4848630000000 1.0
C      1  0.5378610000000  0.4302910000000  0.4889060000000 1.0
C      1  0.4965600000000  0.4101120000000  0.4895910000000 1.0
C      1  0.4569410000000  0.4335560000000  0.4876310000000 1.0
C      1  0.4228180000000  0.4687890000000  0.4832030000000 1.0
C      1  0.4732110000000  0.4158750000000  0.5041140000000 1.0
C      1  0.4358990000000  0.4486570000000  0.4985320000000 1.0
C      1  0.4146660000000  0.4904760000000  0.4997940000000 1.0
C      1  0.4265120000000  0.5398480000000  0.4963310000000 1.0
C      1  0.4549520000000  0.5766360000000  0.5003170000000 1.0
C      1  0.5050120000000  0.5876460000000  0.5019500000000 1.0
C      1  0.5463550000000  0.5650050000000  0.5008680000000 1.0
C      1  0.5814120000000  0.5275800000000  0.5101080000000 1.0
C      1  0.5898150000000  0.4796380000000  0.5039560000000 1.0
C      1  0.5597820000000  0.4444460000000  0.4993780000000 1.0
C      1  0.5199420000000  0.4138830000000  0.5048920000000 1.0
C      1  0.4260710000000  0.4997570000000  0.5473280000000 1.0
C      1  0.4308740000000  0.5282230000000  0.5463260000000 1.0
C      1  0.4668530000000  0.5683490000000  0.5477650000000 1.0
C      1  0.4947990000000  0.5756040000000  0.5489470000000 1.0
C      1  0.5458850000000  0.5586210000000  0.5522940000000 1.0
C      1  0.5639060000000  0.5370290000000  0.5555080000000 1.0
C      1  0.5742590000000  0.4942840000000  0.5474020000000 1.0
C      1  0.5480490000000  0.4465060000000  0.5498450000000 1.0
C      1  0.5235310000000  0.4314790000000  0.5519240000000 1.0
C      1  0.4696930000000  0.4333210000000  0.5511180000000 1.0
C      1  0.4464430000000  0.4501850000000  0.5489470000000 1.0
C      1  0.5110620000000  0.5657830000000  0.4610820000000 1.0
C      1  0.5632920000000  0.5302770000000  0.4660820000000 1.0
C      1  0.5789960000000  0.5066740000000  0.4684540000000 1.0
C      1  0.5694530000000  0.4802510000000  0.4622000000000 1.0
C      1  0.5232780000000  0.4367630000000  0.4635900000000 1.0
C      1  0.4973390000000  0.4253940000000  0.4657750000000 1.0
C      1  0.4731150000000  0.4395860000000  0.4626760000000 1.0
C      1  0.4275890000000  0.4778990000000  0.4574150000000 1.0
C      1  0.4245460000000  0.5074490000000  0.4585980000000 1.0
C      1  0.4613380000000  0.5548120000000  0.4588230000000 1.0
C      1  0.4833180000000  0.5719790000000  0.4645680000000 1.0
C      1  0.5127830000000  0.5842760000000  0.5292500000000 1.0
C      1  0.5392290000000  0.5723540000000  0.5289130000000 1.0
C      1  0.5785810000000  0.5214180000000  0.5380080000000 1.0
C      1  0.5810680000000  0.4734110000000  0.5301220000000 1.0
C      1  0.5649340000000  0.4498040000000  0.5282040000000 1.0
C      1  0.5109100000000  0.4167770000000  0.5323410000000 1.0
C      1  0.4816680000000  0.4178500000000  0.5317600000000 1.0
C      1  0.4309920000000  0.4560820000000  0.5266740000000 1.0
C      1  0.4186510000000  0.4823410000000  0.5269850000000 1.0
C      1  0.4302400000000  0.5461200000000  0.5247610000000 1.0
C      1  0.4481690000000  0.5687750000000  0.5270560000000 1.0
C      1  0.4585530000000  0.4701340000000  0.5678740000000 1.0
C      1  0.4478970000000  0.4956840000000  0.5670400000000 1.0
C      1  0.4526600000000  0.5256610000000  0.5667540000000 1.0
C      1  0.4711440000000  0.5461440000000  0.5674220000000 1.0
C      1  0.5001020000000  0.5536660000000  0.5687040000000 1.0
C      1  0.5262680000000  0.5447950000000  0.5707610000000 1.0
C      1  0.5453820000000  0.5214870000000  0.5723410000000 1.0
C      1  0.5508780000000  0.4933600000000  0.5663850000000 1.0
C      1  0.5378300000000  0.4679940000000  0.5676600000000 1.0
C      1  0.5115260000000  0.4521020000000  0.5697100000000 1.0
C      1  0.4834780000000  0.4526100000000  0.5694110000000 1.0
C      1  0.4988270000000  0.5088720000000  0.4708990000000 1.0
C      1  0.4981210000000  0.5037560000000  0.3724240000000 1.0
C      1  0.4923580000000  0.5124380000000  0.4947180000000 1.0
C      1  0.5029420000000  0.5028210000000  0.3971500000000 1.0
C      1  0.4913320000000  0.5070680000000  0.5203530000000 1.0
C      1  0.4991350000000  0.5017400000000  0.5433050000000 1.0
C      1  0.5074280000000  0.4994730000000  0.4253910000000 1.0
C      1  0.4986570000000  0.5014720000000  0.5940140000000 1.0
C      1  0.4988700000000  0.5012380000000  0.5691590000000 1.0
C      1  0.4984270000000  0.5013230000000  0.6190950000000 1.0
END
