TITL C-129412-2043-2 -991.178632818435 125000 -1297.37324733153 0 0 184 (C1) n - 1
REM
REM in /rds/project/t2_vol4/rds-t2-cs072/BORA/CARBON/from-Arr/AIRSS/Generating-Clusters/GAP-ML-2020/Higher-Symm/SD-CG/HFTN-CG/C160-200
REM
REM
REM
REM
REM
REM ./C.cell (6b4489405718ea1b717e0baf1da4c2d9)
REM AIRSS Version 0.9.1 bugfix July 2018 build 013d7b7c2542+ Fri, 06 Jul 2018 19:26:36 +0100
REM compiler GCC version 9.3.0
REM options -cpp -mtune=generic -march=x86-64 -g -O0
REM seed -1023861541 -430965302 2108210192 895652208 1858527556 1475795769 -1311989473 -973672115 -1503441408 1196420536 1725893105 680523298 -91696698 1299788444 -143332401 442105132 1673118861 -1628840301 738863179 -262759430 103170972 1399822149 -1048254752 595840741 -938167941 -2030058528 1152127424 1393188365 1056768002 -1168168919 842472502 900912303 -293288637
REM
CELL 1.54180   50.00000   50.00000   50.00000   90.00000   90.00000   90.00000
LATT -1
SFAC C  
C      1  0.4951050000000  0.3938080000000  0.4978540000000 1.0
C      1  0.4908120000000  0.3996640000000  0.5256230000000 1.0
C      1  0.5052770000000  0.5255260000000  0.4270780000000 1.0
C      1  0.5109750000000  0.4477730000000  0.4537220000000 1.0
C      1  0.5063310000000  0.4920550000000  0.3939880000000 1.0
C      1  0.3881830000000  0.5246480000000  0.4609250000000 1.0
C      1  0.5058250000000  0.4010230000000  0.4403350000000 1.0
C      1  0.5623510000000  0.4796310000000  0.4313420000000 1.0
C      1  0.5443430000000  0.4616520000000  0.3847720000000 1.0
C      1  0.5146180000000  0.4182640000000  0.4179420000000 1.0
C      1  0.5505090000000  0.4945410000000  0.5263360000000 1.0
C      1  0.4717070000000  0.4402000000000  0.5966460000000 1.0
C      1  0.5595790000000  0.4282830000000  0.4435450000000 1.0
C      1  0.4495920000000  0.4112060000000  0.4872910000000 1.0
C      1  0.4249740000000  0.5184470000000  0.4939580000000 1.0
C      1  0.4285180000000  0.5700770000000  0.4967490000000 1.0
C      1  0.4611790000000  0.5622140000000  0.5749200000000 1.0
C      1  0.5582220000000  0.5460850000000  0.5617700000000 1.0
C      1  0.4861040000000  0.5206050000000  0.4699070000000 1.0
C      1  0.4668840000000  0.5374240000000  0.5147780000000 1.0
C      1  0.5918780000000  0.5396720000000  0.4860610000000 1.0
C      1  0.4112900000000  0.4731690000000  0.4817450000000 1.0
C      1  0.5756150000000  0.4437990000000  0.5621030000000 1.0
C      1  0.4201960000000  0.4914530000000  0.5083320000000 1.0
C      1  0.5075840000000  0.6157980000000  0.4923330000000 1.0
C      1  0.4586200000000  0.4833460000000  0.4936100000000 1.0
C      1  0.5980540000000  0.5021920000000  0.4433440000000 1.0
C      1  0.4791160000000  0.4010900000000  0.4499300000000 1.0
C      1  0.5412570000000  0.5290910000000  0.5427410000000 1.0
C      1  0.4840950000000  0.5198050000000  0.4984990000000 1.0
C      1  0.5851260000000  0.4717890000000  0.5656510000000 1.0
C      1  0.4476740000000  0.4569490000000  0.5812800000000 1.0
C      1  0.4457430000000  0.5885950000000  0.5384220000000 1.0
C      1  0.4470400000000  0.5678040000000  0.4321230000000 1.0
C      1  0.4217340000000  0.4790760000000  0.5788240000000 1.0
C      1  0.5689510000000  0.4968470000000  0.5727090000000 1.0
C      1  0.5516640000000  0.4677860000000  0.5217550000000 1.0
C      1  0.4958400000000  0.5173120000000  0.5505050000000 1.0
C      1  0.5326920000000  0.4778430000000  0.6095040000000 1.0
C      1  0.4329320000000  0.4287870000000  0.4716820000000 1.0
C      1  0.5702630000000  0.4516450000000  0.4270640000000 1.0
C      1  0.4380780000000  0.5930570000000  0.5107640000000 1.0
C      1  0.4729460000000  0.4301730000000  0.4133880000000 1.0
C      1  0.5219550000000  0.5912400000000  0.4518370000000 1.0
C      1  0.4099540000000  0.5206850000000  0.5446080000000 1.0
C      1  0.5171610000000  0.5581670000000  0.5900570000000 1.0
C      1  0.4738060000000  0.4699770000000  0.4719390000000 1.0
C      1  0.4512130000000  0.5859350000000  0.4548090000000 1.0
C      1  0.5012870000000  0.5457370000000  0.4638050000000 1.0
C      1  0.5644960000000  0.5713810000000  0.5190580000000 1.0
C      1  0.4658530000000  0.5271560000000  0.4061240000000 1.0
C      1  0.4211710000000  0.5593570000000  0.4441140000000 1.0
C      1  0.4617720000000  0.4185490000000  0.4349420000000 1.0
C      1  0.4669300000000  0.4782560000000  0.5683940000000 1.0
C      1  0.4849540000000  0.6218280000000  0.5085500000000 1.0
C      1  0.5477120000000  0.4366320000000  0.5627310000000 1.0
C      1  0.5410350000000  0.5003410000000  0.5531730000000 1.0
C      1  0.5515010000000  0.5533510000000  0.4232060000000 1.0
C      1  0.4936840000000  0.5193200000000  0.3927850000000 1.0
C      1  0.5554380000000  0.5589840000000  0.4539290000000 1.0
C      1  0.5254100000000  0.5634210000000  0.5012730000000 1.0
C      1  0.3825230000000  0.5025230000000  0.5049540000000 1.0
C      1  0.5025230000000  0.4724960000000  0.5118500000000 1.0
C      1  0.4542300000000  0.5163870000000  0.5983680000000 1.0
C      1  0.5261670000000  0.5822890000000  0.5484510000000 1.0
C      1  0.5211260000000  0.4507940000000  0.6038050000000 1.0
C      1  0.5429510000000  0.5457920000000  0.5874570000000 1.0
C      1  0.4684310000000  0.5535790000000  0.4201200000000 1.0
C      1  0.4955600000000  0.4719020000000  0.4145380000000 1.0
C      1  0.4993220000000  0.5668190000000  0.4854530000000 1.0
C      1  0.4793560000000  0.4203070000000  0.5785700000000 1.0
C      1  0.5724130000000  0.4143060000000  0.4934150000000 1.0
C      1  0.4086430000000  0.4732640000000  0.5533020000000 1.0
C      1  0.5802140000000  0.5439580000000  0.4604240000000 1.0
C      1  0.5352160000000  0.4311880000000  0.4611590000000 1.0
C      1  0.3769460000000  0.4990740000000  0.4595570000000 1.0
C      1  0.4697170000000  0.6003740000000  0.4701240000000 1.0
C      1  0.5412360000000  0.5228160000000  0.6033140000000 1.0
C      1  0.5140800000000  0.5755680000000  0.4287990000000 1.0
C      1  0.4953760000000  0.4728840000000  0.5604800000000 1.0
C      1  0.4969080000000  0.4905530000000  0.4667580000000 1.0
C      1  0.5328190000000  0.5174520000000  0.4418190000000 1.0
C      1  0.5527560000000  0.4970980000000  0.5988530000000 1.0
C      1  0.4591710000000  0.4185160000000  0.5586880000000 1.0
C      1  0.4923020000000  0.4533830000000  0.6096790000000 1.0
C      1  0.5167830000000  0.4910070000000  0.4914120000000 1.0
C      1  0.4320390000000  0.5123090000000  0.5595150000000 1.0
C      1  0.4406790000000  0.4869230000000  0.4100690000000 1.0
C      1  0.5112760000000  0.4957060000000  0.5596680000000 1.0
C      1  0.4473830000000  0.4200440000000  0.5136700000000 1.0
C      1  0.5106980000000  0.4936930000000  0.6192670000000 1.0
C      1  0.4005890000000  0.4968070000000  0.5303030000000 1.0
C      1  0.5203880000000  0.6076710000000  0.5348780000000 1.0
C      1  0.4616230000000  0.5194820000000  0.4560650000000 1.0
C      1  0.6011550000000  0.4669880000000  0.5419860000000 1.0
C      1  0.4665550000000  0.4809040000000  0.4241920000000 1.0
C      1  0.4861380000000  0.4805700000000  0.6149920000000 1.0
C      1  0.5118970000000  0.4753470000000  0.4439570000000 1.0
C      1  0.5460890000000  0.5855730000000  0.4978360000000 1.0
C      1  0.6020090000000  0.4704370000000  0.4691920000000 1.0
C      1  0.6101460000000  0.4981130000000  0.4690740000000 1.0
C      1  0.5244640000000  0.4027040000000  0.4617260000000 1.0
C      1  0.4965800000000  0.4404800000000  0.4081080000000 1.0
C      1  0.5788930000000  0.5451150000000  0.5126320000000 1.0
C      1  0.5426930000000  0.4221790000000  0.4174500000000 1.0
C      1  0.5881810000000  0.4340750000000  0.5089740000000 1.0
C      1  0.5425650000000  0.4132180000000  0.5042880000000 1.0
C      1  0.5144100000000  0.5211930000000  0.6136390000000 1.0
C      1  0.5302950000000  0.6089070000000  0.5080830000000 1.0
C      1  0.5546340000000  0.4441250000000  0.4029380000000 1.0
C      1  0.4745090000000  0.5106060000000  0.4304180000000 1.0
C      1  0.5547850000000  0.5244900000000  0.5144900000000 1.0
C      1  0.4309440000000  0.4450830000000  0.5167730000000 1.0
C      1  0.6081480000000  0.5169980000000  0.4896310000000 1.0
C      1  0.5910090000000  0.4613920000000  0.4950430000000 1.0
C      1  0.5350910000000  0.4488290000000  0.5385470000000 1.0
C      1  0.4717940000000  0.5115740000000  0.5352090000000 1.0
C      1  0.5068160000000  0.4156480000000  0.5712520000000 1.0
C      1  0.4198210000000  0.4899010000000  0.4296390000000 1.0
C      1  0.4918770000000  0.4470790000000  0.4745500000000 1.0
C      1  0.4193540000000  0.4465790000000  0.4891720000000 1.0
C      1  0.4930720000000  0.6171280000000  0.5360670000000 1.0
C      1  0.4536790000000  0.4662650000000  0.4490820000000 1.0
C      1  0.5373110000000  0.4400330000000  0.4892980000000 1.0
C      1  0.5820870000000  0.5246210000000  0.4400580000000 1.0
C      1  0.5215650000000  0.3961400000000  0.4886010000000 1.0
C      1  0.5898460000000  0.4736460000000  0.4418520000000 1.0
C      1  0.5124830000000  0.5381140000000  0.4005070000000 1.0
C      1  0.4839850000000  0.5615040000000  0.5121620000000 1.0
C      1  0.4996000000000  0.5966540000000  0.4713790000000 1.0
C      1  0.5564330000000  0.4990170000000  0.4082830000000 1.0
C      1  0.4653050000000  0.4100400000000  0.5327290000000 1.0
C      1  0.5283940000000  0.5610660000000  0.4095830000000 1.0
C      1  0.5544340000000  0.5713920000000  0.5455460000000 1.0
C      1  0.5125760000000  0.5194290000000  0.5054040000000 1.0
C      1  0.5136920000000  0.5326420000000  0.5346970000000 1.0
C      1  0.4521610000000  0.4927010000000  0.5456560000000 1.0
C      1  0.4812960000000  0.5819440000000  0.5689710000000 1.0
C      1  0.6041350000000  0.4788280000000  0.5170280000000 1.0
C      1  0.5562110000000  0.4635600000000  0.4932130000000 1.0
C      1  0.4282600000000  0.5740970000000  0.4684570000000 1.0
C      1  0.4380880000000  0.4372250000000  0.5629220000000 1.0
C      1  0.4299350000000  0.5055780000000  0.5863210000000 1.0
C      1  0.5903740000000  0.4398850000000  0.5368630000000 1.0
C      1  0.5339250000000  0.5354560000000  0.4937930000000 1.0
C      1  0.5075380000000  0.4618780000000  0.5384350000000 1.0
C      1  0.4432960000000  0.4759000000000  0.5181370000000 1.0
C      1  0.5384480000000  0.4885710000000  0.4494330000000 1.0
C      1  0.5920990000000  0.5261920000000  0.5332770000000 1.0
C      1  0.4193620000000  0.4481960000000  0.5440330000000 1.0
C      1  0.4683090000000  0.4925700000000  0.5970050000000 1.0
C      1  0.4390030000000  0.5149650000000  0.4029020000000 1.0
C      1  0.4445790000000  0.4371690000000  0.4476350000000 1.0
C      1  0.5322970000000  0.5378200000000  0.4637400000000 1.0
C      1  0.4685570000000  0.5418730000000  0.5946680000000 1.0
C      1  0.5278100000000  0.4315690000000  0.5831680000000 1.0
C      1  0.5739120000000  0.4135520000000  0.4660310000000 1.0
C      1  0.5352450000000  0.4188580000000  0.5327360000000 1.0
C      1  0.4785990000000  0.4929160000000  0.5114560000000 1.0
C      1  0.3829030000000  0.4838120000000  0.4822780000000 1.0
C      1  0.5355770000000  0.4874540000000  0.3911700000000 1.0
C      1  0.4725200000000  0.5871520000000  0.5200870000000 1.0
C      1  0.4429220000000  0.5047100000000  0.4732930000000 1.0
C      1  0.5580750000000  0.5244270000000  0.4233670000000 1.0
C      1  0.5093480000000  0.5780380000000  0.5726570000000 1.0
C      1  0.5460740000000  0.5841690000000  0.4661050000000 1.0
C      1  0.4399840000000  0.5647370000000  0.5533520000000 1.0
C      1  0.4620750000000  0.6070550000000  0.4976740000000 1.0
C      1  0.6063090000000  0.5070480000000  0.5162230000000 1.0
C      1  0.5100230000000  0.5603320000000  0.5268880000000 1.0
C      1  0.4244090000000  0.5442940000000  0.5380880000000 1.0
C      1  0.4735600000000  0.3983210000000  0.4780900000000 1.0
C      1  0.5075790000000  0.4477540000000  0.4972860000000 1.0
C      1  0.4056470000000  0.5362230000000  0.4400990000000 1.0
C      1  0.4167530000000  0.5179450000000  0.4215240000000 1.0
C      1  0.4290140000000  0.4832580000000  0.4573700000000 1.0
C      1  0.4946020000000  0.5534690000000  0.4350860000000 1.0
C      1  0.5119540000000  0.4069460000000  0.5440780000000 1.0
C      1  0.5433660000000  0.4862360000000  0.4791260000000 1.0
C      1  0.3954600000000  0.5238590000000  0.4889050000000 1.0
C      1  0.4732810000000  0.5995800000000  0.5484000000000 1.0
C      1  0.5805870000000  0.5245280000000  0.5592870000000 1.0
C      1  0.4972700000000  0.5415610000000  0.6028640000000 1.0
C      1  0.4357030000000  0.5425050000000  0.5098200000000 1.0
END
