TITL C-122874-6481-8 -218.505087152635 125000 -922.943247943782 0 0 134 (C1) n - 1
REM
REM in /rds/project/t2_vol4/rds-t2-cs072/BORA/CARBON/from-Arr/AIRSS/Generating-Clusters/GAP-ML-2020/Higher-Symm/SD-CG/HFTN-CG
REM
REM
REM
REM
REM
REM ./C.cell (b20cbc046b6831c77cfcea5457e17084)
REM AIRSS Version 0.9.1 bugfix July 2018 build 013d7b7c2542+ Fri, 06 Jul 2018 19:26:36 +0100
REM compiler GCC version 9.3.0
REM options -cpp -mtune=generic -march=x86-64 -g -O0
REM seed 1270171226 -168781156 -513546896 2034746062 -1766429229 831037150 76665019 1441386577 -535348782 932162650 -1125037850 1780184989 954252477 -1836125233 1292886671 864100032 1550886018 -1451314842 -1719583582 -626616865 -1548420967 -845145151 -1044842272 109922896 897843259 588284886 992930936 -89291525 1281778798 1598832403 -33030580 1044132775 763990479
REM
CELL 1.54180   50.00000   50.00000   50.00000   90.00000   90.00000   90.00000
LATT -1
SFAC C  
C      1  0.4336360000000  0.4984530000000  0.5835400000000 1.0
C      1  0.6039290000000  0.4968510000000  0.5084680000000 1.0
C      1  0.4667870000000  0.4975380000000  0.4064810000000 1.0
C      1  0.4414990000000  0.5057140000000  0.4176890000000 1.0
C      1  0.6037070000000  0.5031850000000  0.4808260000000 1.0
C      1  0.4591890000000  0.5053170000000  0.5949470000000 1.0
C      1  0.4749210000000  0.5503890000000  0.5080840000000 1.0
C      1  0.5211610000000  0.5439500000000  0.5294750000000 1.0
C      1  0.5124640000000  0.5467770000000  0.4813500000000 1.0
C      1  0.4758280000000  0.4520970000000  0.4946620000000 1.0
C      1  0.5227460000000  0.4458900000000  0.4764060000000 1.0
C      1  0.5131950000000  0.4572480000000  0.5275160000000 1.0
C      1  0.4939660000000  0.4215450000000  0.5557340000000 1.0
C      1  0.5446630000000  0.4248610000000  0.4786590000000 1.0
C      1  0.4651820000000  0.4313250000000  0.4751000000000 1.0
C      1  0.4932570000000  0.5799260000000  0.4496590000000 1.0
C      1  0.5418410000000  0.5693350000000  0.5229230000000 1.0
C      1  0.4555920000000  0.5810660000000  0.5364710000000 1.0
C      1  0.5328480000000  0.5112910000000  0.4067740000000 1.0
C      1  0.4074740000000  0.5134610000000  0.5142030000000 1.0
C      1  0.5588260000000  0.5110900000000  0.5638970000000 1.0
C      1  0.5284650000000  0.4912530000000  0.5829580000000 1.0
C      1  0.4087680000000  0.4885390000000  0.4801640000000 1.0
C      1  0.5643360000000  0.4873320000000  0.4227390000000 1.0
C      1  0.4460470000000  0.4324560000000  0.5495390000000 1.0
C      1  0.5687870000000  0.4334670000000  0.5202780000000 1.0
C      1  0.4890330000000  0.4300680000000  0.4304620000000 1.0
C      1  0.4471630000000  0.5675470000000  0.4560440000000 1.0
C      1  0.5658690000000  0.5661970000000  0.4776370000000 1.0
C      1  0.4847630000000  0.5698500000000  0.5726630000000 1.0
C      1  0.5588230000000  0.5257700000000  0.5014780000000 1.0
C      1  0.4774440000000  0.5310140000000  0.4472290000000 1.0
C      1  0.4610260000000  0.5309550000000  0.5509340000000 1.0
C      1  0.5619500000000  0.4706340000000  0.4878600000000 1.0
C      1  0.4709860000000  0.4698420000000  0.5576690000000 1.0
C      1  0.4694920000000  0.4705240000000  0.4401560000000 1.0
C      1  0.4923530000000  0.4998640000000  0.5296880000000 1.0
C      1  0.5142740000000  0.4848400000000  0.4902340000000 1.0
C      1  0.4690250000000  0.4996780000000  0.4851910000000 1.0
C      1  0.4955570000000  0.4988830000000  0.4726250000000 1.0
C      1  0.5203410000000  0.4984370000000  0.5164350000000 1.0
C      1  0.4717060000000  0.5095960000000  0.5113170000000 1.0
C      1  0.5037590000000  0.4024710000000  0.4730930000000 1.0
C      1  0.4752360000000  0.4062250000000  0.5148360000000 1.0
C      1  0.5245520000000  0.4054610000000  0.5185820000000 1.0
C      1  0.5016360000000  0.5947260000000  0.5320070000000 1.0
C      1  0.4731830000000  0.5951040000000  0.4912330000000 1.0
C      1  0.5226760000000  0.5950580000000  0.4861770000000 1.0
C      1  0.5773790000000  0.5082880000000  0.5189660000000 1.0
C      1  0.4868480000000  0.5118370000000  0.4241220000000 1.0
C      1  0.4365630000000  0.5099710000000  0.5555200000000 1.0
C      1  0.5779920000000  0.4899310000000  0.4703850000000 1.0
C      1  0.4800250000000  0.4917510000000  0.5775620000000 1.0
C      1  0.4453530000000  0.4896470000000  0.4445710000000 1.0
C      1  0.4547360000000  0.5138630000000  0.4625660000000 1.0
C      1  0.4873850000000  0.5154490000000  0.5560000000000 1.0
C      1  0.5605760000000  0.5166150000000  0.4713550000000 1.0
C      1  0.4437880000000  0.4798160000000  0.5452090000000 1.0
C      1  0.4951910000000  0.4882790000000  0.4445320000000 1.0
C      1  0.5632850000000  0.4797660000000  0.5173230000000 1.0
C      1  0.4291930000000  0.5295560000000  0.4677290000000 1.0
C      1  0.5127630000000  0.5318270000000  0.5576700000000 1.0
C      1  0.5369950000000  0.5145190000000  0.4517380000000 1.0
C      1  0.4377810000000  0.4746680000000  0.5168380000000 1.0
C      1  0.5252280000000  0.4843230000000  0.4442640000000 1.0
C      1  0.5366850000000  0.4777800000000  0.5319720000000 1.0
C      1  0.4755610000000  0.5954640000000  0.5208850000000 1.0
C      1  0.5238520000000  0.5914410000000  0.5139380000000 1.0
C      1  0.4957820000000  0.5949830000000  0.4742470000000 1.0
C      1  0.4793870000000  0.4069810000000  0.4859310000000 1.0
C      1  0.5267430000000  0.4040010000000  0.4904860000000 1.0
C      1  0.4980460000000  0.4066640000000  0.5314240000000 1.0
C      1  0.4291510000000  0.4563870000000  0.5590290000000 1.0
C      1  0.5830810000000  0.4581360000000  0.5268380000000 1.0
C      1  0.4853720000000  0.4461860000000  0.4067470000000 1.0
C      1  0.4286390000000  0.5472380000000  0.4456490000000 1.0
C      1  0.5790100000000  0.5417710000000  0.4662090000000 1.0
C      1  0.4781290000000  0.5536440000000  0.5951350000000 1.0
C      1  0.5086040000000  0.4116520000000  0.4441970000000 1.0
C      1  0.4482250000000  0.4159730000000  0.5248200000000 1.0
C      1  0.5476370000000  0.4172000000000  0.5340400000000 1.0
C      1  0.5074000000000  0.5851070000000  0.5595420000000 1.0
C      1  0.4473400000000  0.5840570000000  0.4803810000000 1.0
C      1  0.5454420000000  0.5853940000000  0.4691950000000 1.0
C      1  0.6053580000000  0.4706780000000  0.5183610000000 1.0
C      1  0.4718100000000  0.4689050000000  0.4093570000000 1.0
C      1  0.4257080000000  0.4713890000000  0.5807930000000 1.0
C      1  0.6026550000000  0.5300100000000  0.4724300000000 1.0
C      1  0.4661970000000  0.5316410000000  0.5998940000000 1.0
C      1  0.4343330000000  0.5317990000000  0.4229540000000 1.0
C      1  0.4128640000000  0.4855530000000  0.5086280000000 1.0
C      1  0.5461200000000  0.4852790000000  0.5609080000000 1.0
C      1  0.5366460000000  0.4834220000000  0.4159860000000 1.0
C      1  0.4092290000000  0.5174780000000  0.4846760000000 1.0
C      1  0.5548080000000  0.5150800000000  0.4245500000000 1.0
C      1  0.5333420000000  0.5190740000000  0.5752410000000 1.0
C      1  0.4592490000000  0.4745620000000  0.4979410000000 1.0
C      1  0.4903300000000  0.4719470000000  0.5370300000000 1.0
C      1  0.5346770000000  0.4718820000000  0.4718810000000 1.0
C      1  0.4598230000000  0.5323690000000  0.5209630000000 1.0
C      1  0.5074790000000  0.5261530000000  0.4634050000000 1.0
C      1  0.5343180000000  0.5222710000000  0.5161900000000 1.0
C      1  0.5544720000000  0.5715660000000  0.5502900000000 1.0
C      1  0.5157370000000  0.5749040000000  0.4321220000000 1.0
C      1  0.4297170000000  0.5752870000000  0.5259150000000 1.0
C      1  0.5542280000000  0.4244950000000  0.4501570000000 1.0
C      1  0.5169600000000  0.4291510000000  0.5715180000000 1.0
C      1  0.4345320000000  0.4293900000000  0.4800200000000 1.0
C      1  0.5348560000000  0.4110030000000  0.4358780000000 1.0
C      1  0.4298930000000  0.4167730000000  0.5041430000000 1.0
C      1  0.5414610000000  0.4195280000000  0.5608690000000 1.0
C      1  0.5348530000000  0.5849310000000  0.5659800000000 1.0
C      1  0.4278940000000  0.5835420000000  0.4993980000000 1.0
C      1  0.5394660000000  0.5838700000000  0.4429470000000 1.0
C      1  0.5100440000000  0.4511520000000  0.5866780000000 1.0
C      1  0.5700680000000  0.4465240000000  0.4456610000000 1.0
C      1  0.4217470000000  0.4483590000000  0.4655180000000 1.0
C      1  0.5119950000000  0.5534330000000  0.4152770000000 1.0
C      1  0.5722200000000  0.5502900000000  0.5518070000000 1.0
C      1  0.4186800000000  0.5533630000000  0.5387130000000 1.0
C      1  0.5097140000000  0.5274230000000  0.4089090000000 1.0
C      1  0.4150440000000  0.5263660000000  0.5387890000000 1.0
C      1  0.5763330000000  0.5239260000000  0.5463980000000 1.0
C      1  0.5047700000000  0.4775020000000  0.5894360000000 1.0
C      1  0.4216210000000  0.4745830000000  0.4589960000000 1.0
C      1  0.5770190000000  0.4724780000000  0.4434600000000 1.0
C      1  0.4710370000000  0.4384850000000  0.5598580000000 1.0
C      1  0.5637160000000  0.4400110000000  0.4934820000000 1.0
C      1  0.4716010000000  0.4421350000000  0.4485970000000 1.0
C      1  0.4724460000000  0.5609680000000  0.4464570000000 1.0
C      1  0.5592780000000  0.5564900000000  0.5025820000000 1.0
C      1  0.4634790000000  0.5617260000000  0.5557840000000 1.0
C      1  0.5017590000000  0.5473940000000  0.5064720000000 1.0
C      1  0.5050340000000  0.4557800000000  0.4984850000000 1.0
END
