TITL C-126798-9259-2 -0.00973762936097822 125000 -29.7959809984824 0 0 5 (D(inf)h) n - 1
REM
REM in /rds/project/t2_vol4/rds-t2-cs072/BORA/CARBON/from-Arr/AIRSS/Generating-Clusters/GAP-ML-2020/Higher-Symm/SD-CG/HFTN-CG
REM
REM
REM
REM
REM
REM ./C.cell (b20cbc046b6831c77cfcea5457e17084)
REM AIRSS Version 0.9.1 bugfix July 2018 build 013d7b7c2542+ Fri, 06 Jul 2018 19:26:36 +0100
REM compiler GCC version 9.3.0
REM options -cpp -mtune=generic -march=x86-64 -g -O0
REM seed 463973864 979691234 131298965 -732860657 -145779555 -233131261 -598333391 -505776235 2045493590 -1290475580 -260895676 1723779044 2072032580 226234832 1413952940 1951157236 1342468489 -1062695092 -973319689 1659494 1131765819 1086275774 -2004612093 2035062873 -912829169 -1332030711 1070129150 1266558528 475432707 -512712218 2034075754 -1836863415 -1493217440
REM
CELL 1.54180   50.00000   50.00000   50.00000   90.00000   90.00000   90.00000
LATT -1
SFAC C  
C      1  0.4986220000000  0.5517070000000  0.5000550000000 1.0
C      1  0.4986220000000  0.4741540000000  0.5000550000000 1.0
C      1  0.4986220000000  0.5000000000000  0.5000550000000 1.0
C      1  0.4986220000000  0.4482930000000  0.5000550000000 1.0
C      1  0.4986220000000  0.5258460000000  0.5000550000000 1.0
END
