TITL C-126799-9263-7 18.6611630196494 125000 -351.567479337765 0 0 54 (C1) n - 1
REM
REM in /rds/project/t2_vol4/rds-t2-cs072/BORA/CARBON/from-Arr/AIRSS/Generating-Clusters/GAP-ML-2020/Higher-Symm/SD-CG/HFTN-CG
REM
REM
REM
REM
REM
REM ./C.cell (b20cbc046b6831c77cfcea5457e17084)
REM AIRSS Version 0.9.1 bugfix July 2018 build 013d7b7c2542+ Fri, 06 Jul 2018 19:26:36 +0100
REM compiler GCC version 9.3.0
REM options -cpp -mtune=generic -march=x86-64 -g -O0
REM seed -510551766 -842925493 307929086 1735524205 1423161118 431215960 -445238227 188904944 134608655 -1010363004 -187400560 -1175341767 1988242444 -1120740809 -503420110 -1484358167 1852362771 -2103675543 -1239407828 -1034662634 -682274042 2018276348 1954655323 462890371 578069518 511686573 1468770252 354954637 197908135 546690814 -1452594616 923128654 269822821
REM
CELL 1.54180   50.00000   50.00000   50.00000   90.00000   90.00000   90.00000
LATT -1
SFAC C  
C      1  0.5405910000000  0.5125880000000  0.5592400000000 1.0
C      1  0.5222680000000  0.4682220000000  0.5630700000000 1.0
C      1  0.4792610000000  0.4680000000000  0.5650970000000 1.0
C      1  0.4569550000000  0.5101670000000  0.5608810000000 1.0
C      1  0.4987620000000  0.5291230000000  0.5618640000000 1.0
C      1  0.5485880000000  0.4343400000000  0.4950400000000 1.0
C      1  0.4524400000000  0.4266230000000  0.4913560000000 1.0
C      1  0.4187700000000  0.5176490000000  0.4887510000000 1.0
C      1  0.4943520000000  0.5795800000000  0.4940500000000 1.0
C      1  0.5733940000000  0.5280110000000  0.4902070000000 1.0
C      1  0.5650070000000  0.5513800000000  0.4960340000000 1.0
C      1  0.5584490000000  0.4566360000000  0.5017070000000 1.0
C      1  0.4769970000000  0.4308780000000  0.4968570000000 1.0
C      1  0.4285350000000  0.4950220000000  0.4948890000000 1.0
C      1  0.4756760000000  0.5625710000000  0.4968420000000 1.0
C      1  0.4712300000000  0.4865180000000  0.5199370000000 1.0
C      1  0.4781690000000  0.5174930000000  0.5185980000000 1.0
C      1  0.5246530000000  0.5388970000000  0.5232530000000 1.0
C      1  0.5245230000000  0.4884260000000  0.5181310000000 1.0
C      1  0.4991410000000  0.4691920000000  0.5201460000000 1.0
C      1  0.4644910000000  0.4823830000000  0.4445500000000 1.0
C      1  0.4744820000000  0.5344110000000  0.4400490000000 1.0
C      1  0.5245040000000  0.5389570000000  0.4386470000000 1.0
C      1  0.5346900000000  0.4865670000000  0.4407740000000 1.0
C      1  0.4982080000000  0.4466480000000  0.4401810000000 1.0
C      1  0.5362150000000  0.4882700000000  0.5482430000000 1.0
C      1  0.5002550000000  0.4573530000000  0.5482680000000 1.0
C      1  0.4617680000000  0.4852450000000  0.5516780000000 1.0
C      1  0.4736860000000  0.5283100000000  0.5489700000000 1.0
C      1  0.5247220000000  0.5339350000000  0.5515620000000 1.0
C      1  0.5209170000000  0.4629310000000  0.4413040000000 1.0
C      1  0.4719750000000  0.4557120000000  0.4399060000000 1.0
C      1  0.4631450000000  0.5088830000000  0.4391830000000 1.0
C      1  0.4986340000000  0.5478930000000  0.4403360000000 1.0
C      1  0.5365540000000  0.5142320000000  0.4390740000000 1.0
C      1  0.5617630000000  0.5028360000000  0.4842720000000 1.0
C      1  0.5216170000000  0.4361360000000  0.4859320000000 1.0
C      1  0.4480910000000  0.4541500000000  0.4844790000000 1.0
C      1  0.4426840000000  0.5316780000000  0.4815310000000 1.0
C      1  0.5185870000000  0.5674530000000  0.4846600000000 1.0
C      1  0.4483040000000  0.4773030000000  0.5017980000000 1.0
C      1  0.4645090000000  0.5377150000000  0.4995180000000 1.0
C      1  0.5378040000000  0.5559220000000  0.5035010000000 1.0
C      1  0.5499620000000  0.4830810000000  0.5023370000000 1.0
C      1  0.4995560000000  0.4454950000000  0.5015350000000 1.0
C      1  0.4526780000000  0.4611450000000  0.4581070000000 1.0
C      1  0.4523040000000  0.5297990000000  0.4550910000000 1.0
C      1  0.5173500000000  0.5581600000000  0.4581150000000 1.0
C      1  0.5508330000000  0.5007500000000  0.4587110000000 1.0
C      1  0.5169840000000  0.4415220000000  0.4589850000000 1.0
C      1  0.5093500000000  0.5161440000000  0.5108450000000 1.0
C      1  0.5009220000000  0.5017400000000  0.5524550000000 1.0
C      1  0.5011280000000  0.4829450000000  0.5767850000000 1.0
C      1  0.5083780000000  0.5184950000000  0.4822180000000 1.0
END
