TITL C-125336-9877-7 -0.00717968704608025 125000 -41.8553018845472 0 0 7 (D7h) n - 1
REM
REM in /rds/project/t2_vol4/rds-t2-cs072/BORA/CARBON/from-Arr/AIRSS/Generating-Clusters/GAP-ML-2020/Higher-Symm/SD-CG/HFTN-CG
REM
REM
REM
REM
REM
REM ./C.cell (b20cbc046b6831c77cfcea5457e17084)
REM AIRSS Version 0.9.1 bugfix July 2018 build 013d7b7c2542+ Fri, 06 Jul 2018 19:26:36 +0100
REM compiler GCC version 9.3.0
REM options -cpp -mtune=generic -march=x86-64 -g -O0
REM seed -154794016 1623101803 1790119663 -1832872671 1265929630 -305309118 341268526 922941108 -1714349817 742530699 1125423726 -523656852 1374663553 1459851652 1265546546 -1208230483 -791552629 -1370862206 -469847085 -648355662 -1583390859 159545563 -1740698513 2097935873 -1782782825 -1869781589 -878676728 1481083179 -1029621367 -10044993 418000364 2007166592 1164900268
REM
CELL 1.54180   50.00000   50.00000   50.00000   90.00000   90.00000   90.00000
LATT -1
SFAC C  
C      1  0.4848720000000  0.5181230000000  0.5106510000000 1.0
C      1  0.4848750000000  0.4745870000000  0.4914840000000 1.0
C      1  0.5106120000000  0.4692170000000  0.4891070000000 1.0
C      1  0.5106080000000  0.5235050000000  0.5130090000000 1.0
C      1  0.5312480000000  0.5084460000000  0.5063690000000 1.0
C      1  0.5312500000000  0.4842850000000  0.4957320000000 1.0
C      1  0.4734200000000  0.4963530000000  0.5010710000000 1.0
END
