TITL C-123189-8040-6 3.23319474069832 125000 -586.945097680753 0 0 86 (C1) n - 1
REM
REM in /rds/project/t2_vol4/rds-t2-cs072/BORA/CARBON/from-Arr/AIRSS/Generating-Clusters/GAP-ML-2020/Higher-Symm/SD-CG/HFTN-CG
REM
REM
REM
REM
REM
REM ./C.cell (b20cbc046b6831c77cfcea5457e17084)
REM AIRSS Version 0.9.1 bugfix July 2018 build 013d7b7c2542+ Fri, 06 Jul 2018 19:26:36 +0100
REM compiler GCC version 9.3.0
REM options -cpp -mtune=generic -march=x86-64 -g -O0
REM seed 575737750 -1053416655 -117451634 1621164473 -2047894014 81589617 195193691 -480396478 334137171 -1817604329 -468492230 -1290100680 -2144369608 996821 133165426 -1779787413 -1278308619 247977998 -606468570 2105844742 1508157225 -595168983 1466906483 -1620418584 1600567157 1294632947 -2019968752 759974428 1327527659 -1821576172 1010719289 1346911733 446350972
REM
CELL 1.54180   50.00000   50.00000   50.00000   90.00000   90.00000   90.00000
LATT -1
SFAC C  
C      1  0.5415100000000  0.5019600000000  0.4505140000000 1.0
C      1  0.5387410000000  0.5492470000000  0.5270990000000 1.0
C      1  0.5390390000000  0.4518000000000  0.5256330000000 1.0
C      1  0.5175350000000  0.4945630000000  0.4109280000000 1.0
C      1  0.5006480000000  0.5754960000000  0.5435870000000 1.0
C      1  0.5007070000000  0.4253800000000  0.5419850000000 1.0
C      1  0.5229370000000  0.4259620000000  0.5227080000000 1.0
C      1  0.5294620000000  0.5158960000000  0.4257910000000 1.0
C      1  0.5235420000000  0.5581850000000  0.5512560000000 1.0
C      1  0.5275040000000  0.4531200000000  0.4529980000000 1.0
C      1  0.5265470000000  0.5654430000000  0.4810470000000 1.0
C      1  0.5288680000000  0.4845980000000  0.5630150000000 1.0
C      1  0.5435520000000  0.5547270000000  0.4434890000000 1.0
C      1  0.5452820000000  0.5231270000000  0.5701400000000 1.0
C      1  0.5440120000000  0.4247790000000  0.4850800000000 1.0
C      1  0.4511010000000  0.5029130000000  0.5674390000000 1.0
C      1  0.4509160000000  0.4411960000000  0.4665460000000 1.0
C      1  0.4493760000000  0.5579790000000  0.4641600000000 1.0
C      1  0.4578380000000  0.5452660000000  0.5484170000000 1.0
C      1  0.4576290000000  0.4367440000000  0.5133810000000 1.0
C      1  0.4558050000000  0.5199610000000  0.4395920000000 1.0
C      1  0.5468580000000  0.4498320000000  0.4735200000000 1.0
C      1  0.5462000000000  0.5464030000000  0.4709720000000 1.0
C      1  0.5480400000000  0.5034640000000  0.5497090000000 1.0
C      1  0.4594530000000  0.4575340000000  0.4431320000000 1.0
C      1  0.4575190000000  0.5713460000000  0.4889380000000 1.0
C      1  0.4594500000000  0.4748960000000  0.5656800000000 1.0
C      1  0.5303140000000  0.5182500000000  0.4742820000000 1.0
C      1  0.5310080000000  0.5158980000000  0.5263330000000 1.0
C      1  0.5298340000000  0.4701980000000  0.4988620000000 1.0
C      1  0.4783180000000  0.4390690000000  0.5319210000000 1.0
C      1  0.4753760000000  0.5019120000000  0.4360250000000 1.0
C      1  0.4786490000000  0.5596450000000  0.5368350000000 1.0
C      1  0.5219640000000  0.4621680000000  0.5471920000000 1.0
C      1  0.5206510000000  0.4803880000000  0.4467780000000 1.0
C      1  0.5196250000000  0.5608940000000  0.5081070000000 1.0
C      1  0.5672630000000  0.4612200000000  0.5260970000000 1.0
C      1  0.5682410000000  0.4944050000000  0.4643520000000 1.0
C      1  0.5653070000000  0.5465550000000  0.5162930000000 1.0
C      1  0.4382830000000  0.4703060000000  0.5448900000000 1.0
C      1  0.4375000000000  0.4767530000000  0.4501750000000 1.0
C      1  0.4370740000000  0.5557900000000  0.5040090000000 1.0
C      1  0.5024780000000  0.4402230000000  0.4535680000000 1.0
C      1  0.5013240000000  0.5706470000000  0.4692540000000 1.0
C      1  0.5036920000000  0.4918650000000  0.5740890000000 1.0
C      1  0.4935790000000  0.5395650000000  0.5160120000000 1.0
C      1  0.4934970000000  0.4667200000000  0.5251640000000 1.0
C      1  0.4938900000000  0.4955750000000  0.4579700000000 1.0
C      1  0.4865210000000  0.4540740000000  0.4341530000000 1.0
C      1  0.4843290000000  0.5804500000000  0.4905780000000 1.0
C      1  0.4864280000000  0.4685690000000  0.5726890000000 1.0
C      1  0.5013330000000  0.5830370000000  0.5150610000000 1.0
C      1  0.5033950000000  0.4460520000000  0.5628170000000 1.0
C      1  0.5065590000000  0.4720040000000  0.4194110000000 1.0
C      1  0.4667420000000  0.4308860000000  0.4868520000000 1.0
C      1  0.4657840000000  0.5460150000000  0.4454400000000 1.0
C      1  0.4675500000000  0.5250950000000  0.5661370000000 1.0
C      1  0.4336750000000  0.5050270000000  0.4511770000000 1.0
C      1  0.4356200000000  0.5419430000000  0.5292770000000 1.0
C      1  0.4358450000000  0.4554790000000  0.5201730000000 1.0
C      1  0.5783350000000  0.5121500000000  0.4859860000000 1.0
C      1  0.5841670000000  0.4955920000000  0.5096110000000 1.0
C      1  0.5799300000000  0.4683590000000  0.5009390000000 1.0
C      1  0.5212100000000  0.5436170000000  0.4322650000000 1.0
C      1  0.5215770000000  0.5370710000000  0.5704240000000 1.0
C      1  0.5190630000000  0.4189900000000  0.4953000000000 1.0
C      1  0.4294090000000  0.4603520000000  0.4733220000000 1.0
C      1  0.4286260000000  0.5425020000000  0.4791220000000 1.0
C      1  0.4300070000000  0.4984910000000  0.5469740000000 1.0
C      1  0.4972040000000  0.5193140000000  0.5654650000000 1.0
C      1  0.4960840000000  0.4337310000000  0.4819350000000 1.0
C      1  0.4957640000000  0.5481610000000  0.4505530000000 1.0
C      1  0.5710570000000  0.4890300000000  0.5357650000000 1.0
C      1  0.5698500000000  0.4679120000000  0.4746210000000 1.0
C      1  0.5690000000000  0.5393720000000  0.4901220000000 1.0
C      1  0.4199560000000  0.5181080000000  0.4718900000000 1.0
C      1  0.4211560000000  0.5179970000000  0.5307560000000 1.0
C      1  0.4212300000000  0.4657970000000  0.4983340000000 1.0
C      1  0.5019970000000  0.5167250000000  0.5333170000000 1.0
C      1  0.5012210000000  0.4634600000000  0.4964560000000 1.0
C      1  0.5013370000000  0.5227020000000  0.4689210000000 1.0
C      1  0.4832430000000  0.4816800000000  0.4816300000000 1.0
C      1  0.4825130000000  0.5265040000000  0.4924370000000 1.0
C      1  0.4831860000000  0.4942090000000  0.5258220000000 1.0
C      1  0.5347050000000  0.5013060000000  0.5003550000000 1.0
C      1  0.4714300000000  0.5007250000000  0.4999100000000 1.0
END
