TITL C-127522-232-10 52.2714669616275 125000 -490.97203163599 0 0 72 (Td) n - 1
REM
REM in /rds/project/t2_vol4/rds-t2-cs072/BORA/CARBON/from-Arr/AIRSS/Generating-Clusters/GAP-ML-2020/Higher-Symm/SD-CG/HFTN-CG
REM
REM
REM
REM
REM
REM ./C.cell (b20cbc046b6831c77cfcea5457e17084)
REM AIRSS Version 0.9.1 bugfix July 2018 build 013d7b7c2542+ Fri, 06 Jul 2018 19:26:36 +0100
REM compiler GCC version 9.3.0
REM options -cpp -mtune=generic -march=x86-64 -g -O0
REM seed -1654673131 2112104982 -1164614889 1146867876 517371812 -410609558 2136354506 529412823 -2087408544 1909988499 -1258371976 -852235407 1139420495 131174658 672729048 -1466252483 -929451341 1267362032 -1394130238 -1012519733 626152161 1211702057 702230257 -664392776 -2010114099 587711981 2135508009 -1370464244 -62250470 -1476391007 15956074 211185830 -341216593
REM
CELL 1.54180   50.00000   50.00000   50.00000   90.00000   90.00000   90.00000
LATT -1
SFAC C  
C      1  0.4911490000000  0.4706350000000  0.5681000000000 1.0
C      1  0.4706340000000  0.5680990000000  0.4911490000000 1.0
C      1  0.5681000000000  0.4911490000000  0.4706340000000 1.0
C      1  0.5088510000000  0.4706340000000  0.4319010000000 1.0
C      1  0.5088510000000  0.5293660000000  0.5680990000000 1.0
C      1  0.4911490000000  0.5293650000000  0.4319000000000 1.0
C      1  0.5293650000000  0.5681000000000  0.5088500000000 1.0
C      1  0.5293660000000  0.4319010000000  0.4911500000000 1.0
C      1  0.4706350000000  0.4319000000000  0.5088510000000 1.0
C      1  0.4319010000000  0.4911490000000  0.5293660000000 1.0
C      1  0.4319000000000  0.5088500000000  0.4706340000000 1.0
C      1  0.5680990000000  0.5088510000000  0.5293650000000 1.0
C      1  0.5681000000000  0.4706350000000  0.4911490000000 1.0
C      1  0.4911490000000  0.5680990000000  0.4706340000000 1.0
C      1  0.4706340000000  0.4911490000000  0.5681000000000 1.0
C      1  0.4319010000000  0.4706340000000  0.5088510000000 1.0
C      1  0.5680990000000  0.5293660000000  0.5088510000000 1.0
C      1  0.4319000000000  0.5293650000000  0.4911490000000 1.0
C      1  0.5088500000000  0.5681000000000  0.5293650000000 1.0
C      1  0.4911500000000  0.4319010000000  0.5293660000000 1.0
C      1  0.5088510000000  0.4319000000000  0.4706350000000 1.0
C      1  0.5293660000000  0.4911490000000  0.4319010000000 1.0
C      1  0.4706340000000  0.5088500000000  0.4319000000000 1.0
C      1  0.5293660000000  0.5088510000000  0.5680990000000 1.0
C      1  0.5935990000000  0.4994440000000  0.5211450000000 1.0
C      1  0.4994430000000  0.5211460000000  0.5935990000000 1.0
C      1  0.5211450000000  0.5935990000000  0.4994430000000 1.0
C      1  0.4064010000000  0.4994430000000  0.4788550000000 1.0
C      1  0.4064010000000  0.5005560000000  0.5211450000000 1.0
C      1  0.5935990000000  0.5005570000000  0.4788550000000 1.0
C      1  0.5005570000000  0.5211450000000  0.4064010000000 1.0
C      1  0.5005570000000  0.4788550000000  0.5935990000000 1.0
C      1  0.4994430000000  0.4788540000000  0.4064010000000 1.0
C      1  0.4788540000000  0.5935990000000  0.5005560000000 1.0
C      1  0.4788550000000  0.4064010000000  0.4994440000000 1.0
C      1  0.5211460000000  0.4064010000000  0.5005570000000 1.0
C      1  0.5211450000000  0.4994440000000  0.5935990000000 1.0
C      1  0.5935990000000  0.5211460000000  0.4994430000000 1.0
C      1  0.4994430000000  0.5935990000000  0.5211450000000 1.0
C      1  0.4788550000000  0.4994420000000  0.4064010000000 1.0
C      1  0.5211450000000  0.5005560000000  0.4064010000000 1.0
C      1  0.4788550000000  0.5005570000000  0.5935990000000 1.0
C      1  0.4064010000000  0.5211450000000  0.5005570000000 1.0
C      1  0.5935990000000  0.4788550000000  0.5005570000000 1.0
C      1  0.4064010000000  0.4788540000000  0.4994430000000 1.0
C      1  0.5005560000000  0.5935990000000  0.4788540000000 1.0
C      1  0.4994440000000  0.4064010000000  0.4788550000000 1.0
C      1  0.5005570000000  0.4064010000000  0.5211460000000 1.0
C      1  0.5210460000000  0.5413230000000  0.4994130000000 1.0
C      1  0.5413230000000  0.4994140000000  0.5210460000000 1.0
C      1  0.4994130000000  0.5210460000000  0.5413220000000 1.0
C      1  0.4789540000000  0.5413220000000  0.5005860000000 1.0
C      1  0.4789540000000  0.4586770000000  0.4994140000000 1.0
C      1  0.5210460000000  0.4586780000000  0.5005870000000 1.0
C      1  0.4586770000000  0.4994130000000  0.4789540000000 1.0
C      1  0.4586770000000  0.5005860000000  0.5210460000000 1.0
C      1  0.5413230000000  0.5005870000000  0.4789540000000 1.0
C      1  0.5005860000000  0.5210460000000  0.4586770000000 1.0
C      1  0.5005870000000  0.4789540000000  0.5413230000000 1.0
C      1  0.4994140000000  0.4789540000000  0.4586780000000 1.0
C      1  0.4994130000000  0.5413230000000  0.5210460000000 1.0
C      1  0.5210460000000  0.4994140000000  0.5413230000000 1.0
C      1  0.5413220000000  0.5210460000000  0.4994130000000 1.0
C      1  0.5005860000000  0.5413220000000  0.4789540000000 1.0
C      1  0.4994140000000  0.4586770000000  0.4789540000000 1.0
C      1  0.5005870000000  0.4586780000000  0.5210460000000 1.0
C      1  0.4789540000000  0.4994130000000  0.4586770000000 1.0
C      1  0.5210460000000  0.5005860000000  0.4586770000000 1.0
C      1  0.4789540000000  0.5005870000000  0.5413230000000 1.0
C      1  0.4586770000000  0.5210460000000  0.5005860000000 1.0
C      1  0.5413230000000  0.4789540000000  0.5005870000000 1.0
C      1  0.4586780000000  0.4789540000000  0.4994140000000 1.0
END
