TITL C-122893-6511-9 110.306216127238 125000 -394.333716451234 0 0 58 (C1) n - 1
REM
REM in /rds/project/t2_vol4/rds-t2-cs072/BORA/CARBON/from-Arr/AIRSS/Generating-Clusters/GAP-ML-2020/Higher-Symm/SD-CG/HFTN-CG
REM
REM
REM
REM
REM
REM ./C.cell (b20cbc046b6831c77cfcea5457e17084)
REM AIRSS Version 0.9.1 bugfix July 2018 build 013d7b7c2542+ Fri, 06 Jul 2018 19:26:36 +0100
REM compiler GCC version 9.3.0
REM options -cpp -mtune=generic -march=x86-64 -g -O0
REM seed 900158654 -1056535391 -1031986737 -1758921476 -316666400 1273612306 -799341490 -1254482531 -1449780954 1774388668 1486793692 1989654730 -1271744957 1907085478 -1776952759 1003171730 -1580084545 1290185375 -248853506 1475501389 -792395008 -222812362 633836474 -1091663881 1373744280 -1002617589 1420712018 -2045516936 349534000 1559072070 -2024483636 469190790 1177104628
REM
CELL 1.54180   50.00000   50.00000   50.00000   90.00000   90.00000   90.00000
LATT -1
SFAC C  
C      1  0.4525170000000  0.4760130000000  0.4571990000000 1.0
C      1  0.4518120000000  0.5212480000000  0.4556650000000 1.0
C      1  0.5525640000000  0.5381700000000  0.4941170000000 1.0
C      1  0.5605980000000  0.4608910000000  0.4891870000000 1.0
C      1  0.5179690000000  0.5164200000000  0.4309060000000 1.0
C      1  0.5297260000000  0.4903040000000  0.4288060000000 1.0
C      1  0.5573770000000  0.5238740000000  0.4688510000000 1.0
C      1  0.5634180000000  0.4770050000000  0.4656150000000 1.0
C      1  0.5246600000000  0.5404000000000  0.5021710000000 1.0
C      1  0.5372740000000  0.4446480000000  0.4879050000000 1.0
C      1  0.4830800000000  0.4391190000000  0.5338950000000 1.0
C      1  0.4851620000000  0.5525750000000  0.5273870000000 1.0
C      1  0.4578170000000  0.4490310000000  0.5266310000000 1.0
C      1  0.4574670000000  0.5474060000000  0.5244450000000 1.0
C      1  0.5000510000000  0.5546170000000  0.5017260000000 1.0
C      1  0.4966770000000  0.4303240000000  0.5097820000000 1.0
C      1  0.5672450000000  0.4678980000000  0.5157780000000 1.0
C      1  0.5668180000000  0.5336590000000  0.5184370000000 1.0
C      1  0.5223400000000  0.4506670000000  0.4648280000000 1.0
C      1  0.4851950000000  0.5474260000000  0.4783620000000 1.0
C      1  0.5277740000000  0.4485090000000  0.5380470000000 1.0
C      1  0.5255340000000  0.5316970000000  0.5412580000000 1.0
C      1  0.4456740000000  0.5262030000000  0.5398190000000 1.0
C      1  0.4454180000000  0.4696890000000  0.5415900000000 1.0
C      1  0.5716600000000  0.5150120000000  0.5390370000000 1.0
C      1  0.5662500000000  0.4874060000000  0.5363110000000 1.0
C      1  0.5517110000000  0.4635310000000  0.5391640000000 1.0
C      1  0.5530090000000  0.5353970000000  0.5436500000000 1.0
C      1  0.4549610000000  0.4752700000000  0.4857650000000 1.0
C      1  0.4639070000000  0.5252170000000  0.4833130000000 1.0
C      1  0.5324900000000  0.5203670000000  0.4553140000000 1.0
C      1  0.5362660000000  0.4740110000000  0.4515800000000 1.0
C      1  0.4254730000000  0.5096700000000  0.5283170000000 1.0
C      1  0.4233580000000  0.4846120000000  0.5311990000000 1.0
C      1  0.4615370000000  0.5124380000000  0.5591250000000 1.0
C      1  0.4628810000000  0.4836180000000  0.5590920000000 1.0
C      1  0.4506210000000  0.5676200000000  0.4767400000000 1.0
C      1  0.4815060000000  0.4365100000000  0.4870320000000 1.0
C      1  0.4900950000000  0.4751360000000  0.5654730000000 1.0
C      1  0.4870010000000  0.5224170000000  0.5666070000000 1.0
C      1  0.4811050000000  0.4709330000000  0.4519360000000 1.0
C      1  0.4698330000000  0.5374850000000  0.4399300000000 1.0
C      1  0.5207950000000  0.5144430000000  0.5164560000000 1.0
C      1  0.5239510000000  0.4359050000000  0.5117830000000 1.0
C      1  0.5016530000000  0.4520550000000  0.5513940000000 1.0
C      1  0.4999200000000  0.5417890000000  0.5499790000000 1.0
C      1  0.4944150000000  0.4490000000000  0.4644610000000 1.0
C      1  0.4713440000000  0.5619640000000  0.4575670000000 1.0
C      1  0.4489550000000  0.5483160000000  0.4968070000000 1.0
C      1  0.4578430000000  0.4500370000000  0.4976470000000 1.0
C      1  0.5017310000000  0.4993310000000  0.5734650000000 1.0
C      1  0.4926960000000  0.4965400000000  0.4608860000000 1.0
C      1  0.4907830000000  0.5180400000000  0.4388970000000 1.0
C      1  0.4775890000000  0.4986260000000  0.4896210000000 1.0
C      1  0.5214310000000  0.4956190000000  0.4663740000000 1.0
C      1  0.4404000000000  0.4984190000000  0.4492460000000 1.0
C      1  0.4998610000000  0.4970410000000  0.5084060000000 1.0
C      1  0.5738190000000  0.5019410000000  0.4637520000000 1.0
END
