TITL C-122808-4727-5 -0.0442027967670429 125000 -382.42019785279 0 0 60 (Cs) n - 1
REM
REM in /rds/project/t2_vol4/rds-t2-cs072/BORA/CARBON/from-Arr/AIRSS/Generating-Clusters/GAP-ML-2020/Higher-Symm/SD-CG/HFTN-CG
REM
REM
REM
REM
REM
REM ./C.cell (b20cbc046b6831c77cfcea5457e17084)
REM AIRSS Version 0.9.1 bugfix July 2018 build 013d7b7c2542+ Fri, 06 Jul 2018 19:26:36 +0100
REM compiler GCC version 9.3.0
REM options -cpp -mtune=generic -march=x86-64 -g -O0
REM seed -1695409964 -397046887 1914411982 340473509 -2040175085 -1342589881 1118430263 2145600151 -1113581940 1166277678 933814690 1111422180 -1652626006 1187715265 130150433 -812319212 2133835873 -1142967692 1467197612 1325223943 1942567062 -657162048 1919589955 947842484 -1043990145 -256069813 528288992 978497507 -1026357883 1060116505 -1931843270 -1780682079 -78059332
REM
CELL 1.54180   50.00000   50.00000   50.00000   90.00000   90.00000   90.00000
LATT -1
SFAC C  
C      1  0.4209540000000  0.5178170000000  0.4995930000000 1.0
C      1  0.5213300000000  0.5004580000000  0.4218790000000 1.0
C      1  0.5038810000000  0.4231050000000  0.5219800000000 1.0
C      1  0.5811950000000  0.4843860000000  0.4986310000000 1.0
C      1  0.4212700000000  0.4753440000000  0.5012580000000 1.0
C      1  0.5759810000000  0.5265220000000  0.4990690000000 1.0
C      1  0.4785490000000  0.4998180000000  0.4201430000000 1.0
C      1  0.5202320000000  0.5038730000000  0.5802860000000 1.0
C      1  0.4779770000000  0.5000320000000  0.5771520000000 1.0
C      1  0.4964680000000  0.5786280000000  0.5203750000000 1.0
C      1  0.4948270000000  0.5780360000000  0.4777990000000 1.0
C      1  0.5044050000000  0.4228510000000  0.4793660000000 1.0
C      1  0.5253630000000  0.4240550000000  0.5003670000000 1.0
C      1  0.4982540000000  0.5212360000000  0.4218220000000 1.0
C      1  0.4220870000000  0.4960680000000  0.5217270000000 1.0
C      1  0.4743570000000  0.5771300000000  0.4983940000000 1.0
C      1  0.4828060000000  0.4218950000000  0.5010960000000 1.0
C      1  0.5168760000000  0.5795310000000  0.4998420000000 1.0
C      1  0.5017860000000  0.4789050000000  0.4202520000000 1.0
C      1  0.4984400000000  0.5230920000000  0.5770820000000 1.0
C      1  0.4998900000000  0.4807890000000  0.5804310000000 1.0
C      1  0.5801790000000  0.5065250000000  0.5199740000000 1.0
C      1  0.5769200000000  0.5044080000000  0.4776070000000 1.0
C      1  0.4200790000000  0.4972310000000  0.4789690000000 1.0
C      1  0.4693480000000  0.5044680000000  0.4481230000000 1.0
C      1  0.5095800000000  0.4511160000000  0.4721110000000 1.0
C      1  0.4497420000000  0.4677040000000  0.5060120000000 1.0
C      1  0.5281130000000  0.4935680000000  0.4503430000000 1.0
C      1  0.4734330000000  0.4910390000000  0.5493260000000 1.0
C      1  0.5301440000000  0.5085060000000  0.5524800000000 1.0
C      1  0.4902410000000  0.5492920000000  0.4706170000000 1.0
C      1  0.5041570000000  0.5505680000000  0.5283920000000 1.0
C      1  0.4960870000000  0.4508760000000  0.5290740000000 1.0
C      1  0.5480520000000  0.5304210000000  0.5078400000000 1.0
C      1  0.4486520000000  0.5253460000000  0.4918660000000 1.0
C      1  0.5538770000000  0.4729200000000  0.4949510000000 1.0
C      1  0.5070710000000  0.4702400000000  0.4483340000000 1.0
C      1  0.4477620000000  0.5035140000000  0.4698400000000 1.0
C      1  0.4743530000000  0.4495570000000  0.5075520000000 1.0
C      1  0.4903990000000  0.5271920000000  0.4498640000000 1.0
C      1  0.4965250000000  0.4703830000000  0.5526520000000 1.0
C      1  0.5068350000000  0.5285980000000  0.5493080000000 1.0
C      1  0.5494830000000  0.4944030000000  0.4728120000000 1.0
C      1  0.5522670000000  0.5094850000000  0.5302220000000 1.0
C      1  0.4508730000000  0.4901510000000  0.5280550000000 1.0
C      1  0.5261730000000  0.5515410000000  0.5062430000000 1.0
C      1  0.5311760000000  0.4524280000000  0.4937710000000 1.0
C      1  0.4684120000000  0.5483260000000  0.4925790000000 1.0
C      1  0.5169440000000  0.5391010000000  0.4805680000000 1.0
C      1  0.5182970000000  0.4676100000000  0.5167620000000 1.0
C      1  0.4632840000000  0.5140850000000  0.5157720000000 1.0
C      1  0.5434500000000  0.4816750000000  0.5221510000000 1.0
C      1  0.5323220000000  0.5150520000000  0.4866410000000 1.0
C      1  0.4789890000000  0.5374220000000  0.5187550000000 1.0
C      1  0.5148790000000  0.5163680000000  0.4638630000000 1.0
C      1  0.4596750000000  0.4772600000000  0.4790680000000 1.0
C      1  0.4862210000000  0.5130130000000  0.5330230000000 1.0
C      1  0.5232400000000  0.4807810000000  0.5424840000000 1.0
C      1  0.4860380000000  0.4661120000000  0.4846330000000 1.0
C      1  0.4798030000000  0.4781500000000  0.4588170000000 1.0
END
