TITL C-129407-7760-4 -0.358748560305305 125000 -1280.25680565606 0 0 179 (C1) n - 1
REM
REM in /rds/project/t2_vol4/rds-t2-cs072/BORA/CARBON/from-Arr/AIRSS/Generating-Clusters/GAP-ML-2020/Higher-Symm/SD-CG/HFTN-CG/C160-200
REM
REM
REM
REM
REM
REM ./C.cell (6b4489405718ea1b717e0baf1da4c2d9)
REM AIRSS Version 0.9.1 bugfix July 2018 build 013d7b7c2542+ Fri, 06 Jul 2018 19:26:36 +0100
REM compiler GCC version 9.3.0
REM options -cpp -mtune=generic -march=x86-64 -g -O0
REM seed 1548883764 -79161759 2015261074 1258649132 -1684485529 1359021867 -885191760 969403777 -1223169801 -1277056501 1401419748 -313295746 130680794 1434414548 -328831772 -78340267 -1315499550 -1717892538 2093211 -1838490947 -1425771946 -1203408259 1624452720 524925108 -236836256 -587419067 848652097 -245512659 1749738128 -1706799255 -144484757 487506642 94625609
REM
CELL 1.54180   50.00000   50.00000   50.00000   90.00000   90.00000   90.00000
LATT -1
SFAC C  
C      1  0.4670490000000  0.5161820000000  0.4598650000000 1.0
C      1  0.5223710000000  0.5148330000000  0.4457510000000 1.0
C      1  0.5482160000000  0.5175920000000  0.5080680000000 1.0
C      1  0.5148310000000  0.5213700000000  0.5406800000000 1.0
C      1  0.4630080000000  0.5115790000000  0.5229590000000 1.0
C      1  0.4928050000000  0.4469220000000  0.4566560000000 1.0
C      1  0.5391130000000  0.4553570000000  0.4751010000000 1.0
C      1  0.5340830000000  0.4557370000000  0.5340690000000 1.0
C      1  0.4794970000000  0.4577070000000  0.5407300000000 1.0
C      1  0.4575710000000  0.4630810000000  0.4894990000000 1.0
C      1  0.4270780000000  0.4333090000000  0.4530900000000 1.0
C      1  0.5243410000000  0.4256280000000  0.4184780000000 1.0
C      1  0.5854200000000  0.4438370000000  0.5032330000000 1.0
C      1  0.5252430000000  0.4420620000000  0.5839120000000 1.0
C      1  0.4259750000000  0.4410280000000  0.5514120000000 1.0
C      1  0.5999260000000  0.4708180000000  0.4385960000000 1.0
C      1  0.5924420000000  0.4700510000000  0.5740630000000 1.0
C      1  0.4594380000000  0.4726020000000  0.6094530000000 1.0
C      1  0.3863480000000  0.4702450000000  0.4969980000000 1.0
C      1  0.4720960000000  0.4787160000000  0.3945160000000 1.0
C      1  0.5740710000000  0.5381980000000  0.4310200000000 1.0
C      1  0.5849260000000  0.5375750000000  0.5454510000000 1.0
C      1  0.4857390000000  0.5383040000000  0.6006810000000 1.0
C      1  0.4065240000000  0.5365680000000  0.5199900000000 1.0
C      1  0.4468130000000  0.5447750000000  0.4135810000000 1.0
C      1  0.4420800000000  0.5752460000000  0.5397150000000 1.0
C      1  0.4466950000000  0.5783100000000  0.4618070000000 1.0
C      1  0.5347240000000  0.5761340000000  0.4216780000000 1.0
C      1  0.5644250000000  0.5801140000000  0.5126670000000 1.0
C      1  0.5130180000000  0.5772970000000  0.5714630000000 1.0
C      1  0.4899030000000  0.5358860000000  0.5458840000000 1.0
C      1  0.4575570000000  0.5308000000000  0.5020840000000 1.0
C      1  0.4840970000000  0.5383140000000  0.4540680000000 1.0
C      1  0.5341560000000  0.5291080000000  0.4668430000000 1.0
C      1  0.5262420000000  0.5371470000000  0.5153890000000 1.0
C      1  0.4479660000000  0.4081230000000  0.5161090000000 1.0
C      1  0.4681670000000  0.4060300000000  0.4610480000000 1.0
C      1  0.5298420000000  0.4080760000000  0.4629860000000 1.0
C      1  0.5463720000000  0.4108980000000  0.5187740000000 1.0
C      1  0.4969390000000  0.4128070000000  0.5515400000000 1.0
C      1  0.4044770000000  0.4550670000000  0.5381900000000 1.0
C      1  0.4383560000000  0.4653730000000  0.4224360000000 1.0
C      1  0.5591900000000  0.4608620000000  0.4184330000000 1.0
C      1  0.5976830000000  0.4566530000000  0.5283060000000 1.0
C      1  0.5049380000000  0.4605660000000  0.5995610000000 1.0
C      1  0.5028490000000  0.5320230000000  0.4337930000000 1.0
C      1  0.5600490000000  0.5242440000000  0.4805770000000 1.0
C      1  0.5362440000000  0.5220510000000  0.5607420000000 1.0
C      1  0.4668460000000  0.5217310000000  0.5496880000000 1.0
C      1  0.4464260000000  0.5207520000000  0.4788790000000 1.0
C      1  0.5533640000000  0.4502170000000  0.5816290000000 1.0
C      1  0.4402080000000  0.4552900000000  0.5724270000000 1.0
C      1  0.4030760000000  0.4407250000000  0.4663530000000 1.0
C      1  0.5038740000000  0.4352950000000  0.4008880000000 1.0
C      1  0.5982510000000  0.4448950000000  0.4762460000000 1.0
C      1  0.4847120000000  0.5787860000000  0.5715310000000 1.0
C      1  0.4331880000000  0.5777720000000  0.5129840000000 1.0
C      1  0.4644320000000  0.5835430000000  0.4399300000000 1.0
C      1  0.5503240000000  0.5779200000000  0.4460280000000 1.0
C      1  0.5561940000000  0.5795130000000  0.5397170000000 1.0
C      1  0.5943750000000  0.5359420000000  0.5186940000000 1.0
C      1  0.5140870000000  0.5355610000000  0.6024760000000 1.0
C      1  0.4124980000000  0.5333110000000  0.5475790000000 1.0
C      1  0.4258280000000  0.5385710000000  0.4321500000000 1.0
C      1  0.5554610000000  0.5344520000000  0.4084290000000 1.0
C      1  0.4591000000000  0.4767530000000  0.5559560000000 1.0
C      1  0.4324290000000  0.4739970000000  0.4796080000000 1.0
C      1  0.5141090000000  0.4615720000000  0.4001810000000 1.0
C      1  0.5633500000000  0.4752570000000  0.4712160000000 1.0
C      1  0.5455000000000  0.4720920000000  0.5593210000000 1.0
C      1  0.4584760000000  0.5052730000000  0.5723300000000 1.0
C      1  0.4217590000000  0.5048830000000  0.4809010000000 1.0
C      1  0.4943910000000  0.5321910000000  0.4045400000000 1.0
C      1  0.5774680000000  0.5045820000000  0.4679080000000 1.0
C      1  0.5550210000000  0.5017540000000  0.5671260000000 1.0
C      1  0.4613380000000  0.4554920000000  0.4077630000000 1.0
C      1  0.5813630000000  0.4495850000000  0.4336420000000 1.0
C      1  0.5904250000000  0.4482140000000  0.5550790000000 1.0
C      1  0.4767820000000  0.4520850000000  0.6003170000000 1.0
C      1  0.3954440000000  0.4472190000000  0.5116910000000 1.0
C      1  0.5145630000000  0.4111860000000  0.4395790000000 1.0
C      1  0.5642870000000  0.4208910000000  0.4995050000000 1.0
C      1  0.5213040000000  0.4215960000000  0.5630440000000 1.0
C      1  0.4458330000000  0.4224290000000  0.5408320000000 1.0
C      1  0.4410800000000  0.4121140000000  0.4669940000000 1.0
C      1  0.5665360000000  0.4342810000000  0.5618700000000 1.0
C      1  0.4627650000000  0.4387930000000  0.5800620000000 1.0
C      1  0.4061560000000  0.4289930000000  0.4925660000000 1.0
C      1  0.4789530000000  0.4334110000000  0.4140000000000 1.0
C      1  0.5795810000000  0.4338380000000  0.4575060000000 1.0
C      1  0.6003470000000  0.4919820000000  0.5577680000000 1.0
C      1  0.4780100000000  0.4933840000000  0.6157560000000 1.0
C      1  0.3898910000000  0.4918140000000  0.5150380000000 1.0
C      1  0.4537260000000  0.5002020000000  0.3984550000000 1.0
C      1  0.5889880000000  0.4929830000000  0.4235570000000 1.0
C      1  0.4748250000000  0.6034510000000  0.5014390000000 1.0
C      1  0.4925950000000  0.5904220000000  0.4417170000000 1.0
C      1  0.5220090000000  0.6083900000000  0.5053070000000 1.0
C      1  0.5117000000000  0.6067100000000  0.5311670000000 1.0
C      1  0.4826340000000  0.6048280000000  0.5288380000000 1.0
C      1  0.4842090000000  0.3975170000000  0.4827050000000 1.0
C      1  0.5134420000000  0.3985010000000  0.4833520000000 1.0
C      1  0.5217530000000  0.3995360000000  0.5105340000000 1.0
C      1  0.4979080000000  0.4005220000000  0.5265050000000 1.0
C      1  0.4746850000000  0.3992810000000  0.5095680000000 1.0
C      1  0.5060410000000  0.4867830000000  0.6127270000000 1.0
C      1  0.3990870000000  0.4841360000000  0.5410890000000 1.0
C      1  0.4317150000000  0.4922570000000  0.4151300000000 1.0
C      1  0.5639400000000  0.4873610000000  0.4091020000000 1.0
C      1  0.6046360000000  0.4854110000000  0.5301360000000 1.0
C      1  0.5473860000000  0.5468080000000  0.5720800000000 1.0
C      1  0.4456330000000  0.5544880000000  0.5803680000000 1.0
C      1  0.4105220000000  0.5552610000000  0.4773370000000 1.0
C      1  0.4894180000000  0.5634250000000  0.4049250000000 1.0
C      1  0.5765150000000  0.5495580000000  0.4770610000000 1.0
C      1  0.5260160000000  0.5846160000000  0.5452200000000 1.0
C      1  0.4714240000000  0.5826200000000  0.5444600000000 1.0
C      1  0.4547860000000  0.5821590000000  0.4920610000000 1.0
C      1  0.5066970000000  0.5812920000000  0.4190930000000 1.0
C      1  0.5445650000000  0.5936060000000  0.4952190000000 1.0
C      1  0.5097320000000  0.4935840000000  0.5297190000000 1.0
C      1  0.4871980000000  0.4942150000000  0.5103720000000 1.0
C      1  0.4797820000000  0.4911380000000  0.4556330000000 1.0
C      1  0.5084320000000  0.4908470000000  0.4582720000000 1.0
C      1  0.5298270000000  0.4930930000000  0.5066750000000 1.0
C      1  0.5005510000000  0.4846420000000  0.3923360000000 1.0
C      1  0.6078260000000  0.4710340000000  0.4666740000000 1.0
C      1  0.5693680000000  0.4710680000000  0.5936520000000 1.0
C      1  0.4349330000000  0.4745980000000  0.5938010000000 1.0
C      1  0.3949360000000  0.4698910000000  0.4692560000000 1.0
C      1  0.4251120000000  0.5586880000000  0.4547180000000 1.0
C      1  0.5404510000000  0.5559450000000  0.4048810000000 1.0
C      1  0.5828350000000  0.5587100000000  0.5028420000000 1.0
C      1  0.5263840000000  0.5573580000000  0.5872760000000 1.0
C      1  0.4301800000000  0.5553390000000  0.5577950000000 1.0
C      1  0.4854210000000  0.4208090000000  0.4417000000000 1.0
C      1  0.5533880000000  0.4263310000000  0.4719140000000 1.0
C      1  0.5438510000000  0.4267770000000  0.5440790000000 1.0
C      1  0.4721250000000  0.4291650000000  0.5541760000000 1.0
C      1  0.4299960000000  0.4118870000000  0.4936450000000 1.0
C      1  0.5172630000000  0.4683010000000  0.5711960000000 1.0
C      1  0.4500090000000  0.4855170000000  0.5288980000000 1.0
C      1  0.4411760000000  0.4584460000000  0.4501200000000 1.0
C      1  0.5320100000000  0.4547030000000  0.4248540000000 1.0
C      1  0.5685790000000  0.4684990000000  0.5000370000000 1.0
C      1  0.5666550000000  0.5581280000000  0.5546950000000 1.0
C      1  0.4710130000000  0.5606400000000  0.5885160000000 1.0
C      1  0.4126790000000  0.5600520000000  0.5040090000000 1.0
C      1  0.4630990000000  0.5677370000000  0.4159540000000 1.0
C      1  0.5715350000000  0.5591580000000  0.4500020000000 1.0
C      1  0.4288000000000  0.4995280000000  0.5795130000000 1.0
C      1  0.4053340000000  0.4969700000000  0.4568660000000 1.0
C      1  0.5147980000000  0.5094200000000  0.3946340000000 1.0
C      1  0.6025260000000  0.4964310000000  0.4825150000000 1.0
C      1  0.5521900000000  0.4959080000000  0.5964120000000 1.0
C      1  0.4706570000000  0.5146910000000  0.5994110000000 1.0
C      1  0.4026610000000  0.5136290000000  0.5035010000000 1.0
C      1  0.4639830000000  0.5257430000000  0.4005760000000 1.0
C      1  0.5847500000000  0.5145090000000  0.4404470000000 1.0
C      1  0.5825590000000  0.5134290000000  0.5601980000000 1.0
C      1  0.4171230000000  0.5097430000000  0.4331240000000 1.0
C      1  0.5445160000000  0.5085170000000  0.4011800000000 1.0
C      1  0.6033420000000  0.5068160000000  0.5095730000000 1.0
C      1  0.5264280000000  0.5067460000000  0.6068290000000 1.0
C      1  0.4108380000000  0.5054910000000  0.5581340000000 1.0
C      1  0.5181140000000  0.4617500000000  0.4547450000000 1.0
C      1  0.5400600000000  0.4655920000000  0.5059930000000 1.0
C      1  0.5072340000000  0.4674220000000  0.5436340000000 1.0
C      1  0.4706530000000  0.4689250000000  0.5135820000000 1.0
C      1  0.4701580000000  0.4637430000000  0.4629700000000 1.0
C      1  0.5155500000000  0.5638500000000  0.5232080000000 1.0
C      1  0.4869050000000  0.5594910000000  0.5274400000000 1.0
C      1  0.4732270000000  0.5557540000000  0.5000230000000 1.0
C      1  0.5060670000000  0.5847550000000  0.4679300000000 1.0
C      1  0.5363970000000  0.5875580000000  0.4685690000000 1.0
C      1  0.4940020000000  0.5534590000000  0.4776410000000 1.0
C      1  0.5137500000000  0.5332850000000  0.4874310000000 1.0
C      1  0.5066620000000  0.5019770000000  0.4879480000000 1.0
C      1  0.4995590000000  0.6045630000000  0.4883820000000 1.0
END
