TITL C-132119-6817-7 -0.0626073995661037 125000 -999.856292079759 0 0 146 (D2d) n - 1
REM
REM in /rds/project/t2_vol4/rds-t2-cs072/BORA/CARBON/from-Arr/AIRSS/Generating-Clusters/GAP-ML-2020/Higher-Symm/SD-CG/HFTN-CG
REM
REM
REM
REM
REM
REM ./C.cell (b20cbc046b6831c77cfcea5457e17084)
REM AIRSS Version 0.9.1 bugfix July 2018 build 013d7b7c2542+ Fri, 06 Jul 2018 19:26:36 +0100
REM compiler GCC version 9.3.0
REM options -cpp -mtune=generic -march=x86-64 -g -O0
REM seed -1616209147 -443792345 993615932 -1009657214 -1845642380 -271596655 1433059084 76420746 -1626303031 2010628204 -177617309 926867508 645598568 1551922565 -1092600503 1571077600 -104707770 -1707329332 407138093 774759334 -2128850308 -901587338 334480304 -970030579 1656201304 -1120860660 999757488 192852094 1520138043 492530077 22759802 -1348076518 1585438268
REM
CELL 1.54180   50.00000   50.00000   50.00000   90.00000   90.00000   90.00000
LATT -1
SFAC C  
C      1  0.4092030000000  0.4959880000000  0.5511170000000 1.0
C      1  0.5907990000000  0.5040210000000  0.5511130000000 1.0
C      1  0.4092020000000  0.5040360000000  0.4484480000000 1.0
C      1  0.5907960000000  0.4959550000000  0.4484460000000 1.0
C      1  0.4959600000000  0.4092070000000  0.5511230000000 1.0
C      1  0.5040420000000  0.5908020000000  0.5511070000000 1.0
C      1  0.5040160000000  0.4091970000000  0.4484550000000 1.0
C      1  0.4959830000000  0.5907940000000  0.4484390000000 1.0
C      1  0.5077160000000  0.4492160000000  0.5827020000000 1.0
C      1  0.4922870000000  0.5507980000000  0.5826930000000 1.0
C      1  0.5077260000000  0.5507820000000  0.4168600000000 1.0
C      1  0.4922710000000  0.4492040000000  0.4168690000000 1.0
C      1  0.4492120000000  0.5077350000000  0.5826980000000 1.0
C      1  0.5507900000000  0.4922790000000  0.5826980000000 1.0
C      1  0.5507900000000  0.5077070000000  0.4168630000000 1.0
C      1  0.4492080000000  0.4922780000000  0.4168660000000 1.0
C      1  0.4780300000000  0.5009070000000  0.5788180000000 1.0
C      1  0.5219730000000  0.4991070000000  0.5788170000000 1.0
C      1  0.4780270000000  0.4990990000000  0.4207450000000 1.0
C      1  0.5219700000000  0.5008870000000  0.4207440000000 1.0
C      1  0.5008950000000  0.4780350000000  0.5788190000000 1.0
C      1  0.4991080000000  0.5219790000000  0.5788160000000 1.0
C      1  0.4990990000000  0.4780220000000  0.4207470000000 1.0
C      1  0.5008980000000  0.5219640000000  0.4207430000000 1.0
C      1  0.5555910000000  0.5351980000000  0.4217620000000 1.0
C      1  0.4444060000000  0.4647880000000  0.4217700000000 1.0
C      1  0.5555850000000  0.4647870000000  0.5777980000000 1.0
C      1  0.4444180000000  0.5352270000000  0.5777930000000 1.0
C      1  0.5352190000000  0.5555760000000  0.4217610000000 1.0
C      1  0.4647790000000  0.4444100000000  0.4217720000000 1.0
C      1  0.4647960000000  0.5555990000000  0.5777910000000 1.0
C      1  0.5352060000000  0.4444140000000  0.5778000000000 1.0
C      1  0.5955660000000  0.5230850000000  0.4538710000000 1.0
C      1  0.4044320000000  0.4769070000000  0.4538780000000 1.0
C      1  0.5955620000000  0.4768890000000  0.5456880000000 1.0
C      1  0.4044400000000  0.5231190000000  0.5456870000000 1.0
C      1  0.5231140000000  0.5955570000000  0.4538660000000 1.0
C      1  0.4768840000000  0.4044350000000  0.4538830000000 1.0
C      1  0.4769110000000  0.5955710000000  0.5456790000000 1.0
C      1  0.5230900000000  0.4044370000000  0.5456960000000 1.0
C      1  0.4601530000000  0.4001930000000  0.5067580000000 1.0
C      1  0.5398470000000  0.5998080000000  0.5067390000000 1.0
C      1  0.4601800000000  0.5998170000000  0.4928050000000 1.0
C      1  0.5398200000000  0.4001810000000  0.4928210000000 1.0
C      1  0.4001820000000  0.4601800000000  0.5067540000000 1.0
C      1  0.5998180000000  0.5398210000000  0.5067440000000 1.0
C      1  0.5998070000000  0.4601530000000  0.4928150000000 1.0
C      1  0.4001930000000  0.5398460000000  0.4928110000000 1.0
C      1  0.4664020000000  0.5007160000000  0.4750180000000 1.0
C      1  0.5335980000000  0.4992800000000  0.4750170000000 1.0
C      1  0.4664020000000  0.4992930000000  0.5245450000000 1.0
C      1  0.5335990000000  0.5007120000000  0.5245440000000 1.0
C      1  0.5007090000000  0.4664000000000  0.4750200000000 1.0
C      1  0.4992900000000  0.5335960000000  0.4750140000000 1.0
C      1  0.4992820000000  0.4664040000000  0.5245480000000 1.0
C      1  0.5007190000000  0.5336000000000  0.5245420000000 1.0
C      1  0.5243490000000  0.4537890000000  0.5168320000000 1.0
C      1  0.4756510000000  0.5462140000000  0.5168250000000 1.0
C      1  0.5243610000000  0.5462050000000  0.4827290000000 1.0
C      1  0.4756390000000  0.4537920000000  0.4827380000000 1.0
C      1  0.4537940000000  0.5243630000000  0.5168270000000 1.0
C      1  0.5462070000000  0.4756400000000  0.5168300000000 1.0
C      1  0.5462120000000  0.5243470000000  0.4827310000000 1.0
C      1  0.4537870000000  0.4756500000000  0.4827360000000 1.0
C      1  0.5323710000000  0.5111830000000  0.5525830000000 1.0
C      1  0.4676310000000  0.4888260000000  0.5525860000000 1.0
C      1  0.5323670000000  0.4888080000000  0.4469780000000 1.0
C      1  0.4676320000000  0.5111820000000  0.4469770000000 1.0
C      1  0.5111880000000  0.5323720000000  0.5525820000000 1.0
C      1  0.4888140000000  0.4676370000000  0.5525880000000 1.0
C      1  0.4888210000000  0.5323660000000  0.4469750000000 1.0
C      1  0.5111770000000  0.4676250000000  0.4469800000000 1.0
C      1  0.4392910000000  0.5796450000000  0.4808260000000 1.0
C      1  0.5607080000000  0.4203520000000  0.4808380000000 1.0
C      1  0.4392700000000  0.4203720000000  0.5187380000000 1.0
C      1  0.5607300000000  0.5796320000000  0.5187220000000 1.0
C      1  0.5796300000000  0.4392680000000  0.4808360000000 1.0
C      1  0.4203700000000  0.5607280000000  0.4808280000000 1.0
C      1  0.4203540000000  0.4392930000000  0.5187370000000 1.0
C      1  0.5796470000000  0.5607100000000  0.5187240000000 1.0
C      1  0.4550860000000  0.5658360000000  0.5302910000000 1.0
C      1  0.5449150000000  0.4341690000000  0.5303010000000 1.0
C      1  0.4550680000000  0.4341760000000  0.4692730000000 1.0
C      1  0.5449310000000  0.5658190000000  0.4692600000000 1.0
C      1  0.5658220000000  0.4550710000000  0.5302990000000 1.0
C      1  0.4341790000000  0.5449350000000  0.5302930000000 1.0
C      1  0.4341660000000  0.4550830000000  0.4692710000000 1.0
C      1  0.5658330000000  0.5449120000000  0.4692610000000 1.0
C      1  0.5678940000000  0.5356320000000  0.5309760000000 1.0
C      1  0.4321070000000  0.4643740000000  0.5309850000000 1.0
C      1  0.5678840000000  0.4643500000000  0.4685830000000 1.0
C      1  0.4321150000000  0.5356440000000  0.4685790000000 1.0
C      1  0.5356480000000  0.5678870000000  0.5309740000000 1.0
C      1  0.4643540000000  0.4321180000000  0.5309870000000 1.0
C      1  0.4643710000000  0.5678910000000  0.4685760000000 1.0
C      1  0.5356280000000  0.4321030000000  0.4685870000000 1.0
C      1  0.5245330000000  0.5459410000000  0.5125230000000 1.0
C      1  0.4754680000000  0.4540610000000  0.5125320000000 1.0
C      1  0.5245200000000  0.4540530000000  0.4870380000000 1.0
C      1  0.4754800000000  0.5459450000000  0.4870310000000 1.0
C      1  0.5459470000000  0.5245210000000  0.5125250000000 1.0
C      1  0.4540540000000  0.4754810000000  0.5125310000000 1.0
C      1  0.4540600000000  0.5245310000000  0.4870330000000 1.0
C      1  0.5459400000000  0.4754660000000  0.4870360000000 1.0
C      1  0.5393160000000  0.5751160000000  0.4415030000000 1.0
C      1  0.4606820000000  0.4248740000000  0.4415180000000 1.0
C      1  0.5392980000000  0.4248740000000  0.5580580000000 1.0
C      1  0.4607040000000  0.5751370000000  0.5580460000000 1.0
C      1  0.5751310000000  0.5392920000000  0.4415060000000 1.0
C      1  0.4248680000000  0.4606980000000  0.4415150000000 1.0
C      1  0.4248800000000  0.5393220000000  0.5580490000000 1.0
C      1  0.5751220000000  0.4606880000000  0.5580540000000 1.0
C      1  0.5219810000000  0.5937700000000  0.5295350000000 1.0
C      1  0.4780200000000  0.4062350000000  0.5295520000000 1.0
C      1  0.5219550000000  0.4062240000000  0.4700270000000 1.0
C      1  0.4780440000000  0.5937700000000  0.4700110000000 1.0
C      1  0.5937730000000  0.5219580000000  0.5295400000000 1.0
C      1  0.4062280000000  0.4780470000000  0.5295470000000 1.0
C      1  0.4062320000000  0.5219780000000  0.4700180000000 1.0
C      1  0.5937670000000  0.4780170000000  0.4700190000000 1.0
C      1  0.5334230000000  0.4450050000000  0.4414840000000 1.0
C      1  0.4665750000000  0.5549850000000  0.4414750000000 1.0
C      1  0.5334390000000  0.5549860000000  0.5580770000000 1.0
C      1  0.4665630000000  0.4450240000000  0.5580880000000 1.0
C      1  0.4450180000000  0.5334330000000  0.4414780000000 1.0
C      1  0.5549800000000  0.4665570000000  0.4414820000000 1.0
C      1  0.5549910000000  0.5334290000000  0.5580790000000 1.0
C      1  0.4450110000000  0.4665820000000  0.5580860000000 1.0
C      1  0.5692950000000  0.5115110000000  0.5705490000000 1.0
C      1  0.4307070000000  0.4885010000000  0.5705530000000 1.0
C      1  0.5692900000000  0.4884710000000  0.4290110000000 1.0
C      1  0.4307080000000  0.5115170000000  0.4290110000000 1.0
C      1  0.5115240000000  0.5692970000000  0.5705450000000 1.0
C      1  0.4884780000000  0.4307150000000  0.5705570000000 1.0
C      1  0.4884940000000  0.5692880000000  0.4290050000000 1.0
C      1  0.5115040000000  0.4306990000000  0.4290170000000 1.0
C      1  0.5935370000000  0.4630810000000  0.5196310000000 1.0
C      1  0.4064630000000  0.5369230000000  0.5196280000000 1.0
C      1  0.5935460000000  0.5368950000000  0.4799280000000 1.0
C      1  0.4064530000000  0.4631020000000  0.4799370000000 1.0
C      1  0.4631040000000  0.5935480000000  0.5196220000000 1.0
C      1  0.5368970000000  0.4064550000000  0.5196370000000 1.0
C      1  0.5369210000000  0.5935350000000  0.4799230000000 1.0
C      1  0.4630790000000  0.4064610000000  0.4799410000000 1.0
C      1  0.5000000000000  0.4999990000000  0.4843760000000 1.0
C      1  0.5000000000000  0.5000010000000  0.5151860000000 1.0
END
