TITL C-132110-1597-8 0.103911097062985 125000 -598.475889417336 0 0 89 (C1) n - 1
REM
REM in /rds/project/t2_vol4/rds-t2-cs072/BORA/CARBON/from-Arr/AIRSS/Generating-Clusters/GAP-ML-2020/Higher-Symm/SD-CG/HFTN-CG
REM
REM
REM
REM
REM
REM ./C.cell (b20cbc046b6831c77cfcea5457e17084)
REM AIRSS Version 0.9.1 bugfix July 2018 build 013d7b7c2542+ Fri, 06 Jul 2018 19:26:36 +0100
REM compiler GCC version 9.3.0
REM options -cpp -mtune=generic -march=x86-64 -g -O0
REM seed 441256346 1848930245 384165666 -1148343586 -1565180589 64514326 -1012849083 -865140569 -699460978 1456370189 100620366 1122125941 1210510280 -1591914424 730399906 1369610085 -1309939643 2009753277 -450798972 -11205938 -574657261 -2070632517 1032074423 198573555 915409320 -1503791024 -1601784172 344383129 386643960 958424811 -1740274393 -601107276 434731746
REM
CELL 1.54180   50.00000   50.00000   50.00000   90.00000   90.00000   90.00000
LATT -1
SFAC C  
C      1  0.4420700000000  0.5122730000000  0.4583990000000 1.0
C      1  0.4483270000000  0.4693530000000  0.4707560000000 1.0
C      1  0.4433790000000  0.4686260000000  0.5124890000000 1.0
C      1  0.4412670000000  0.5049720000000  0.5383840000000 1.0
C      1  0.4386180000000  0.5476030000000  0.5221020000000 1.0
C      1  0.5569980000000  0.5183310000000  0.4628300000000 1.0
C      1  0.5651190000000  0.4741740000000  0.4610080000000 1.0
C      1  0.5637810000000  0.4685890000000  0.5320040000000 1.0
C      1  0.5688860000000  0.5138480000000  0.5427340000000 1.0
C      1  0.5555420000000  0.5355220000000  0.5043700000000 1.0
C      1  0.5065880000000  0.5608990000000  0.5357730000000 1.0
C      1  0.5174620000000  0.5543630000000  0.4600680000000 1.0
C      1  0.5176600000000  0.4860900000000  0.4308210000000 1.0
C      1  0.5257190000000  0.4392530000000  0.5151250000000 1.0
C      1  0.5191150000000  0.4847370000000  0.5658240000000 1.0
C      1  0.4852930000000  0.5447340000000  0.5481330000000 1.0
C      1  0.4653600000000  0.5711060000000  0.4749570000000 1.0
C      1  0.4942170000000  0.4668620000000  0.4302590000000 1.0
C      1  0.4859240000000  0.4311460000000  0.4976950000000 1.0
C      1  0.4785170000000  0.4737100000000  0.5588570000000 1.0
C      1  0.4360570000000  0.4763050000000  0.5409470000000 1.0
C      1  0.4338420000000  0.5318810000000  0.5463920000000 1.0
C      1  0.4376880000000  0.5738860000000  0.5151540000000 1.0
C      1  0.4457070000000  0.4856330000000  0.4465730000000 1.0
C      1  0.4446160000000  0.4466600000000  0.4917150000000 1.0
C      1  0.5641920000000  0.4863860000000  0.5540690000000 1.0
C      1  0.5572340000000  0.5396390000000  0.5358110000000 1.0
C      1  0.5609390000000  0.5438180000000  0.4755660000000 1.0
C      1  0.5640030000000  0.4976770000000  0.4440190000000 1.0
C      1  0.5666330000000  0.4474490000000  0.4597740000000 1.0
C      1  0.5452020000000  0.4751660000000  0.5738410000000 1.0
C      1  0.5301480000000  0.5445760000000  0.5454210000000 1.0
C      1  0.5443470000000  0.5656410000000  0.4663950000000 1.0
C      1  0.5465310000000  0.4938170000000  0.4221080000000 1.0
C      1  0.5454920000000  0.4323590000000  0.4689930000000 1.0
C      1  0.4502290000000  0.4621690000000  0.5615490000000 1.0
C      1  0.4421980000000  0.5419030000000  0.5713090000000 1.0
C      1  0.4517140000000  0.5856310000000  0.4950020000000 1.0
C      1  0.4725080000000  0.4877380000000  0.4329340000000 1.0
C      1  0.4594130000000  0.4232620000000  0.4886630000000 1.0
C      1  0.5448800000000  0.4782170000000  0.4835460000000 1.0
C      1  0.5412660000000  0.4504840000000  0.5366330000000 1.0
C      1  0.5285720000000  0.4935930000000  0.5223450000000 1.0
C      1  0.5240950000000  0.5266050000000  0.4972790000000 1.0
C      1  0.5324620000000  0.5054810000000  0.4754880000000 1.0
C      1  0.4802850000000  0.4772350000000  0.4812890000000 1.0
C      1  0.4736020000000  0.4821860000000  0.5101820000000 1.0
C      1  0.4664250000000  0.5092690000000  0.5218110000000 1.0
C      1  0.4543270000000  0.5300980000000  0.5029760000000 1.0
C      1  0.4683540000000  0.5234140000000  0.4610190000000 1.0
C      1  0.5128380000000  0.5057280000000  0.4537350000000 1.0
C      1  0.5282620000000  0.4511630000000  0.4876300000000 1.0
C      1  0.5181670000000  0.4741670000000  0.5386410000000 1.0
C      1  0.5165390000000  0.5186020000000  0.5249650000000 1.0
C      1  0.5045640000000  0.5477680000000  0.4864110000000 1.0
C      1  0.4855230000000  0.4992930000000  0.4606600000000 1.0
C      1  0.4980160000000  0.4516760000000  0.4783670000000 1.0
C      1  0.4907220000000  0.4680020000000  0.5308370000000 1.0
C      1  0.4901570000000  0.5169710000000  0.5390440000000 1.0
C      1  0.4739790000000  0.5433460000000  0.4811760000000 1.0
C      1  0.4698070000000  0.5409060000000  0.5733460000000 1.0
C      1  0.4778560000000  0.5929050000000  0.4859430000000 1.0
C      1  0.4729780000000  0.5086070000000  0.4141830000000 1.0
C      1  0.4622420000000  0.4113910000000  0.4642460000000 1.0
C      1  0.4723690000000  0.4465590000000  0.5660430000000 1.0
C      1  0.5235060000000  0.5421350000000  0.5721650000000 1.0
C      1  0.5436770000000  0.5919680000000  0.4739030000000 1.0
C      1  0.5256760000000  0.5045690000000  0.4086510000000 1.0
C      1  0.5334160000000  0.4086790000000  0.4595330000000 1.0
C      1  0.5404440000000  0.4452470000000  0.5654860000000 1.0
C      1  0.4936370000000  0.4297120000000  0.5529450000000 1.0
C      1  0.4885440000000  0.5216190000000  0.5855720000000 1.0
C      1  0.5033250000000  0.5953450000000  0.4978010000000 1.0
C      1  0.4832680000000  0.5279950000000  0.4001350000000 1.0
C      1  0.4836310000000  0.4184180000000  0.4481450000000 1.0
C      1  0.5171190000000  0.4312330000000  0.5659280000000 1.0
C      1  0.5123050000000  0.5354700000000  0.5941650000000 1.0
C      1  0.5258730000000  0.6064730000000  0.4857440000000 1.0
C      1  0.5082930000000  0.5291060000000  0.4138510000000 1.0
C      1  0.5086130000000  0.4086740000000  0.4538630000000 1.0
C      1  0.5141630000000  0.5335010000000  0.4412840000000 1.0
C      1  0.5054360000000  0.5688410000000  0.5088830000000 1.0
C      1  0.4933110000000  0.4996140000000  0.5658030000000 1.0
C      1  0.4968040000000  0.4377770000000  0.5233150000000 1.0
C      1  0.4925940000000  0.4460300000000  0.4490130000000 1.0
C      1  0.4353970000000  0.5132780000000  0.4855440000000 1.0
C      1  0.5561430000000  0.4861220000000  0.5096710000000 1.0
C      1  0.5699040000000  0.5111280000000  0.5138340000000 1.0
C      1  0.4328610000000  0.4862670000000  0.4907000000000 1.0
END
