TITL C-132106-1274-8 -0.00131999246677702 125000 -73.1440644067378 0 0 11 (Cs) n - 1
REM
REM in /rds/project/t2_vol4/rds-t2-cs072/BORA/CARBON/from-Arr/AIRSS/Generating-Clusters/GAP-ML-2020/Higher-Symm/SD-CG/HFTN-CG
REM
REM
REM
REM
REM
REM ./C.cell (b20cbc046b6831c77cfcea5457e17084)
REM AIRSS Version 0.9.1 bugfix July 2018 build 013d7b7c2542+ Fri, 06 Jul 2018 19:26:36 +0100
REM compiler GCC version 9.3.0
REM options -cpp -mtune=generic -march=x86-64 -g -O0
REM seed 758535849 -245083318 -91257486 -1721611972 -649181443 -500871200 1184489710 785576367 2067803984 -611449677 -643823664 -658790621 801478061 -1028320428 307152751 1224799165 1862650056 999536926 203112239 -1416741986 705248682 1766667850 204782456 1792386540 -1193428112 -1174054219 364160029 393062153 119643238 1345604285 1676411167 -848036234 -1662715987
REM
CELL 1.54180   50.00000   50.00000   50.00000   90.00000   90.00000   90.00000
LATT -1
SFAC C  
C      1  0.5169250000000  0.5430850000000  0.5000000000000 1.0
C      1  0.5375320000000  0.5270950000000  0.5000000000000 1.0
C      1  0.5462230000000  0.5025020000000  0.5000000000000 1.0
C      1  0.5402380000000  0.4771150000000  0.5000000000000 1.0
C      1  0.5214780000000  0.4589940000000  0.5000000000000 1.0
C      1  0.4958990000000  0.4538910000000  0.5000000000000 1.0
C      1  0.4716220000000  0.4634280000000  0.5000000000000 1.0
C      1  0.4563540000000  0.4845760000000  0.5000000000000 1.0
C      1  0.4549440000000  0.5106210000000  0.5000000000000 1.0
C      1  0.4678390000000  0.5332940000000  0.5000000000000 1.0
C      1  0.4909450000000  0.5453960000000  0.5000000000000 1.0
END
