TITL C-132782-1360-6 -312.296865710195 125000 -905.780886742261 0 0 133 (C1) n - 1
REM
REM in /rds/project/t2_vol4/rds-t2-cs072/BORA/CARBON/from-Arr/AIRSS/Generating-Clusters/GAP-ML-2020/Higher-Symm/SD-CG/HFTN-CG
REM
REM
REM
REM
REM
REM ./C.cell (b20cbc046b6831c77cfcea5457e17084)
REM AIRSS Version 0.9.1 bugfix July 2018 build 013d7b7c2542+ Fri, 06 Jul 2018 19:26:36 +0100
REM compiler GCC version 9.3.0
REM options -cpp -mtune=generic -march=x86-64 -g -O0
REM seed 677552773 -983707927 -1338585769 -133150124 927115909 1699008700 -269200001 -122741679 -178458498 -272467347 1584967388 2005511247 -120896873 -571358191 -816243146 -1747811416 664771332 -1438967256 888740026 1490025492 148863747 1192476135 -437305767 1690497832 1006168540 926854676 501284469 -120262863 1348141374 706859598 -1356634594 1047103875 -986088079
REM
CELL 1.54180   50.00000   50.00000   50.00000   90.00000   90.00000   90.00000
LATT -1
SFAC C  
C      1  0.4527590000000  0.5284430000000  0.5524190000000 1.0
C      1  0.5314940000000  0.5309880000000  0.5575870000000 1.0
C      1  0.5659840000000  0.5286660000000  0.4893290000000 1.0
C      1  0.5117170000000  0.5322940000000  0.4361960000000 1.0
C      1  0.4380710000000  0.5283590000000  0.4586520000000 1.0
C      1  0.4567350000000  0.4682090000000  0.5527330000000 1.0
C      1  0.5317210000000  0.4714540000000  0.5588070000000 1.0
C      1  0.5637800000000  0.4693590000000  0.4894280000000 1.0
C      1  0.5108410000000  0.4730330000000  0.4341380000000 1.0
C      1  0.4400230000000  0.4668620000000  0.4604950000000 1.0
C      1  0.5553590000000  0.4343120000000  0.4611300000000 1.0
C      1  0.4828170000000  0.4366240000000  0.4310490000000 1.0
C      1  0.4345480000000  0.4300620000000  0.4962160000000 1.0
C      1  0.4779320000000  0.4357350000000  0.5684620000000 1.0
C      1  0.5520120000000  0.4332660000000  0.5415910000000 1.0
C      1  0.5593830000000  0.5665380000000  0.4634460000000 1.0
C      1  0.4831820000000  0.5670710000000  0.4325380000000 1.0
C      1  0.4320430000000  0.5540960000000  0.4957910000000 1.0
C      1  0.4791020000000  0.5682230000000  0.5617160000000 1.0
C      1  0.5576680000000  0.5638820000000  0.5427780000000 1.0
C      1  0.5200340000000  0.4050360000000  0.5131290000000 1.0
C      1  0.5132710000000  0.4029320000000  0.4581000000000 1.0
C      1  0.4884910000000  0.4035000000000  0.4682370000000 1.0
C      1  0.4782800000000  0.4035970000000  0.5181160000000 1.0
C      1  0.5012150000000  0.4064650000000  0.5354470000000 1.0
C      1  0.5404230000000  0.5958540000000  0.5105530000000 1.0
C      1  0.5274730000000  0.5987370000000  0.4842900000000 1.0
C      1  0.4674560000000  0.5988360000000  0.4706590000000 1.0
C      1  0.4785090000000  0.5995170000000  0.4955320000000 1.0
C      1  0.5166040000000  0.5994620000000  0.5272150000000 1.0
C      1  0.4416840000000  0.5548690000000  0.4682610000000 1.0
C      1  0.4545720000000  0.5564230000000  0.5451550000000 1.0
C      1  0.5318310000000  0.5596690000000  0.5556600000000 1.0
C      1  0.5651270000000  0.5569780000000  0.4902630000000 1.0
C      1  0.5114910000000  0.5612800000000  0.4392840000000 1.0
C      1  0.4450090000000  0.4390520000000  0.4680060000000 1.0
C      1  0.4567290000000  0.4393080000000  0.5487830000000 1.0
C      1  0.5290750000000  0.4431030000000  0.5567030000000 1.0
C      1  0.5598310000000  0.4405130000000  0.4893730000000 1.0
C      1  0.5102500000000  0.4446540000000  0.4352680000000 1.0
C      1  0.4657430000000  0.5722470000000  0.4590500000000 1.0
C      1  0.4493120000000  0.5635500000000  0.5173090000000 1.0
C      1  0.5070660000000  0.5757670000000  0.5468190000000 1.0
C      1  0.5506170000000  0.5690070000000  0.5135490000000 1.0
C      1  0.5304560000000  0.5759980000000  0.4623870000000 1.0
C      1  0.4715610000000  0.4282450000000  0.4582700000000 1.0
C      1  0.4570490000000  0.4247060000000  0.5201350000000 1.0
C      1  0.5017060000000  0.4322250000000  0.5501640000000 1.0
C      1  0.5427810000000  0.4265610000000  0.5133500000000 1.0
C      1  0.5251530000000  0.4291810000000  0.4562660000000 1.0
C      1  0.4871760000000  0.5173200000000  0.4489930000000 1.0
C      1  0.4256880000000  0.5113970000000  0.4780770000000 1.0
C      1  0.4809460000000  0.5160980000000  0.5505830000000 1.0
C      1  0.5411070000000  0.5156760000000  0.5329500000000 1.0
C      1  0.5440330000000  0.5160110000000  0.4726050000000 1.0
C      1  0.4876230000000  0.4868740000000  0.4482970000000 1.0
C      1  0.4325550000000  0.4832850000000  0.4825090000000 1.0
C      1  0.4825680000000  0.4858480000000  0.5509770000000 1.0
C      1  0.5409880000000  0.4854430000000  0.5332860000000 1.0
C      1  0.5436590000000  0.4858270000000  0.4718440000000 1.0
C      1  0.5081710000000  0.5172140000000  0.5683320000000 1.0
C      1  0.5675030000000  0.5151450000000  0.5153750000000 1.0
C      1  0.5369210000000  0.5175690000000  0.4420930000000 1.0
C      1  0.4567960000000  0.5156390000000  0.4409370000000 1.0
C      1  0.4332520000000  0.5101650000000  0.5439860000000 1.0
C      1  0.5083280000000  0.4857270000000  0.5693620000000 1.0
C      1  0.5667790000000  0.4832880000000  0.5153330000000 1.0
C      1  0.5360640000000  0.4858560000000  0.4412240000000 1.0
C      1  0.4570040000000  0.4836290000000  0.4410770000000 1.0
C      1  0.4385720000000  0.4812190000000  0.5346870000000 1.0
C      1  0.3952320000000  0.4604560000000  0.5141540000000 1.0
C      1  0.4770130000000  0.4722380000000  0.6061610000000 1.0
C      1  0.5897920000000  0.4658770000000  0.5559270000000 1.0
C      1  0.5827000000000  0.4692130000000  0.4339990000000 1.0
C      1  0.4703870000000  0.4700410000000  0.3941280000000 1.0
C      1  0.3942380000000  0.5192480000000  0.5131850000000 1.0
C      1  0.4784150000000  0.5355690000000  0.6031170000000 1.0
C      1  0.5920240000000  0.5283000000000  0.5578900000000 1.0
C      1  0.5842400000000  0.5317000000000  0.4343540000000 1.0
C      1  0.4707100000000  0.5322580000000  0.3958000000000 1.0
C      1  0.4936250000000  0.4785470000000  0.5243460000000 1.0
C      1  0.5209000000000  0.4760680000000  0.5135660000000 1.0
C      1  0.5184810000000  0.4760660000000  0.4838280000000 1.0
C      1  0.4891900000000  0.4780050000000  0.4766230000000 1.0
C      1  0.4507990000000  0.4756140000000  0.5064540000000 1.0
C      1  0.4921140000000  0.5286500000000  0.5249050000000 1.0
C      1  0.5205030000000  0.5263590000000  0.5141130000000 1.0
C      1  0.5188360000000  0.5273120000000  0.4845950000000 1.0
C      1  0.4891210000000  0.5281580000000  0.4775880000000 1.0
C      1  0.4763490000000  0.5189520000000  0.5021480000000 1.0
C      1  0.5150500000000  0.5585140000000  0.4808050000000 1.0
C      1  0.4850800000000  0.5582630000000  0.4799900000000 1.0
C      1  0.4755850000000  0.5707180000000  0.5063340000000 1.0
C      1  0.4970420000000  0.5592330000000  0.5240730000000 1.0
C      1  0.5229480000000  0.5559750000000  0.5087060000000 1.0
C      1  0.5128110000000  0.4459610000000  0.4799770000000 1.0
C      1  0.4831800000000  0.4480190000000  0.4790180000000 1.0
C      1  0.4704600000000  0.4474970000000  0.5065230000000 1.0
C      1  0.4952810000000  0.4492870000000  0.5238090000000 1.0
C      1  0.5200270000000  0.4450930000000  0.5080060000000 1.0
C      1  0.5615840000000  0.5156190000000  0.4261280000000 1.0
C      1  0.4544840000000  0.5143770000000  0.4116870000000 1.0
C      1  0.4053580000000  0.5061550000000  0.5369200000000 1.0
C      1  0.5002010000000  0.5172910000000  0.5963750000000 1.0
C      1  0.5906540000000  0.5123430000000  0.5334470000000 1.0
C      1  0.5607990000000  0.4868930000000  0.4256230000000 1.0
C      1  0.4541610000000  0.4857340000000  0.4114830000000 1.0
C      1  0.4086590000000  0.4774160000000  0.5337160000000 1.0
C      1  0.4996410000000  0.4884930000000  0.5974260000000 1.0
C      1  0.5902650000000  0.4836280000000  0.5326640000000 1.0
C      1  0.4884690000000  0.4886380000000  0.3781650000000 1.0
C      1  0.3735410000000  0.4759730000000  0.5017690000000 1.0
C      1  0.4567640000000  0.4922320000000  0.6158010000000 1.0
C      1  0.5928590000000  0.4834140000000  0.5796560000000 1.0
C      1  0.6055680000000  0.4870000000000  0.4403020000000 1.0
C      1  0.4877720000000  0.5142500000000  0.3789770000000 1.0
C      1  0.3755700000000  0.5013570000000  0.5015810000000 1.0
C      1  0.4567220000000  0.5178870000000  0.6142620000000 1.0
C      1  0.5942010000000  0.5089140000000  0.5800060000000 1.0
C      1  0.6063160000000  0.5125740000000  0.4409020000000 1.0
C      1  0.5760810000000  0.5559640000000  0.4446820000000 1.0
C      1  0.4753860000000  0.5563000000000  0.4089390000000 1.0
C      1  0.4142640000000  0.5304510000000  0.4961170000000 1.0
C      1  0.4788080000000  0.5582620000000  0.5869070000000 1.0
C      1  0.5797340000000  0.5529390000000  0.5544810000000 1.0
C      1  0.5734890000000  0.4451510000000  0.4439850000000 1.0
C      1  0.4733170000000  0.4461490000000  0.4073460000000 1.0
C      1  0.4110360000000  0.4397270000000  0.5046860000000 1.0
C      1  0.4761200000000  0.4475330000000  0.5933400000000 1.0
C      1  0.5758000000000  0.4426820000000  0.5507320000000 1.0
C      1  0.4966220000000  0.3996450000000  0.4955390000000 1.0
C      1  0.5049220000000  0.6051040000000  0.5013300000000 1.0
C      1  0.4760450000000  0.4899230000000  0.5021480000000 1.0
END
