TITL C-132773-1306-10 -1220.54219911834 125000 -1009.17974712736 0 0 147 (C1) n - 1
REM
REM in /rds/project/t2_vol4/rds-t2-cs072/BORA/CARBON/from-Arr/AIRSS/Generating-Clusters/GAP-ML-2020/Higher-Symm/SD-CG/HFTN-CG
REM
REM
REM
REM
REM
REM ./C.cell (b20cbc046b6831c77cfcea5457e17084)
REM AIRSS Version 0.9.1 bugfix July 2018 build 013d7b7c2542+ Fri, 06 Jul 2018 19:26:36 +0100
REM compiler GCC version 9.3.0
REM options -cpp -mtune=generic -march=x86-64 -g -O0
REM seed 1432272345 -629452473 -2051842042 1961011584 37233455 -1305393374 655683622 1050233972 2041423939 -1869784995 413423998 362790219 -1393933575 -1634641500 -41991399 286369577 -263925729 -1533071597 136735850 -600281455 899902344 1348323754 -484264545 -701019232 1378563859 1903122584 894235733 -1582764626 -2129839923 1307426944 -319413507 1773264766 616417600
REM
CELL 1.54180   50.00000   50.00000   50.00000   90.00000   90.00000   90.00000
LATT -1
SFAC C  
C      1  0.4417270000000  0.4085210000000  0.5072290000000 1.0
C      1  0.5223790000000  0.4081780000000  0.4454080000000 1.0
C      1  0.5358580000000  0.4081050000000  0.5457080000000 1.0
C      1  0.5585550000000  0.5919200000000  0.5072860000000 1.0
C      1  0.4774960000000  0.5920870000000  0.4464110000000 1.0
C      1  0.4648540000000  0.5916720000000  0.5471460000000 1.0
C      1  0.4985160000000  0.5557950000000  0.5169420000000 1.0
C      1  0.4871950000000  0.5558450000000  0.4912130000000 1.0
C      1  0.5150650000000  0.5554720000000  0.4942980000000 1.0
C      1  0.5013630000000  0.4440010000000  0.5158980000000 1.0
C      1  0.5123120000000  0.4444060000000  0.4900210000000 1.0
C      1  0.4845160000000  0.4442490000000  0.4933940000000 1.0
C      1  0.4604720000000  0.5334890000000  0.4348510000000 1.0
C      1  0.5779240000000  0.5342740000000  0.4979680000000 1.0
C      1  0.4610670000000  0.5329910000000  0.5686340000000 1.0
C      1  0.5397670000000  0.4658670000000  0.4331320000000 1.0
C      1  0.4202550000000  0.4665170000000  0.4994840000000 1.0
C      1  0.5395820000000  0.4664600000000  0.5671710000000 1.0
C      1  0.4608960000000  0.5968950000000  0.5206950000000 1.0
C      1  0.5024810000000  0.5967040000000  0.4562330000000 1.0
C      1  0.5376060000000  0.5967390000000  0.5241220000000 1.0
C      1  0.5395530000000  0.4033010000000  0.5191780000000 1.0
C      1  0.4974810000000  0.4032260000000  0.4554150000000 1.0
C      1  0.4628160000000  0.4032070000000  0.5237100000000 1.0
C      1  0.4557660000000  0.4385940000000  0.5666900000000 1.0
C      1  0.4643190000000  0.4390580000000  0.4280860000000 1.0
C      1  0.5806350000000  0.4382050000000  0.5031790000000 1.0
C      1  0.5451240000000  0.5609580000000  0.5665510000000 1.0
C      1  0.5364860000000  0.5619040000000  0.4283350000000 1.0
C      1  0.4193570000000  0.5623460000000  0.5052500000000 1.0
C      1  0.4889910000000  0.5331200000000  0.4282040000000 1.0
C      1  0.5716280000000  0.5312340000000  0.5255200000000 1.0
C      1  0.4413470000000  0.5328060000000  0.5470390000000 1.0
C      1  0.5125200000000  0.4688130000000  0.4253480000000 1.0
C      1  0.4277080000000  0.4688890000000  0.5267930000000 1.0
C      1  0.5587090000000  0.4669800000000  0.5450130000000 1.0
C      1  0.5627710000000  0.4147940000000  0.4736460000000 1.0
C      1  0.4910390000000  0.4156610000000  0.5660000000000 1.0
C      1  0.4466860000000  0.4161840000000  0.4585730000000 1.0
C      1  0.4373230000000  0.5853730000000  0.4753300000000 1.0
C      1  0.5098390000000  0.5838360000000  0.5667120000000 1.0
C      1  0.5536340000000  0.5853220000000  0.4582690000000 1.0
C      1  0.4421870000000  0.5575900000000  0.4391490000000 1.0
C      1  0.5833140000000  0.5578760000000  0.4800050000000 1.0
C      1  0.4755880000000  0.5567570000000  0.5814290000000 1.0
C      1  0.5581200000000  0.4423050000000  0.4372020000000 1.0
C      1  0.4162660000000  0.4429350000000  0.4807620000000 1.0
C      1  0.5255570000000  0.4425920000000  0.5802910000000 1.0
C      1  0.4736440000000  0.4706560000000  0.4903040000000 1.0
C      1  0.5200900000000  0.4710020000000  0.4826670000000 1.0
C      1  0.5033740000000  0.4701590000000  0.5273440000000 1.0
C      1  0.5252620000000  0.5287730000000  0.4912770000000 1.0
C      1  0.4786530000000  0.5294480000000  0.4839830000000 1.0
C      1  0.4960560000000  0.5294170000000  0.5280590000000 1.0
C      1  0.5131920000000  0.6056220000000  0.5099260000000 1.0
C      1  0.4856190000000  0.6056410000000  0.5067830000000 1.0
C      1  0.5021580000000  0.6055830000000  0.4844750000000 1.0
C      1  0.4870690000000  0.3942200000000  0.5091310000000 1.0
C      1  0.5146280000000  0.3943720000000  0.5057930000000 1.0
C      1  0.4979460000000  0.3942440000000  0.4836020000000 1.0
C      1  0.4138460000000  0.5265840000000  0.5464040000000 1.0
C      1  0.5033090000000  0.5268720000000  0.4044870000000 1.0
C      1  0.5867680000000  0.5288710000000  0.5489360000000 1.0
C      1  0.5861800000000  0.4736430000000  0.5435220000000 1.0
C      1  0.4996690000000  0.4717100000000  0.4005990000000 1.0
C      1  0.4134860000000  0.4710230000000  0.5507270000000 1.0
C      1  0.5028540000000  0.5203650000000  0.5997580000000 1.0
C      1  0.4115560000000  0.5222660000000  0.4532930000000 1.0
C      1  0.5845620000000  0.5210920000000  0.4474960000000 1.0
C      1  0.4986330000000  0.4786180000000  0.5996310000000 1.0
C      1  0.5871910000000  0.4790140000000  0.4519220000000 1.0
C      1  0.4143870000000  0.4803220000000  0.4490470000000 1.0
C      1  0.5840900000000  0.5501380000000  0.4516740000000 1.0
C      1  0.4999310000000  0.5492360000000  0.5968680000000 1.0
C      1  0.4160150000000  0.5510010000000  0.4515110000000 1.0
C      1  0.4161020000000  0.4513190000000  0.4524890000000 1.0
C      1  0.5015560000000  0.4498230000000  0.5964090000000 1.0
C      1  0.5832890000000  0.4499930000000  0.4502610000000 1.0
C      1  0.5603480000000  0.4154470000000  0.5027540000000 1.0
C      1  0.4669080000000  0.4159390000000  0.5496340000000 1.0
C      1  0.4730470000000  0.4161100000000  0.4460220000000 1.0
C      1  0.4398300000000  0.5849180000000  0.5044990000000 1.0
C      1  0.5337530000000  0.5837940000000  0.5499990000000 1.0
C      1  0.5270320000000  0.5846690000000  0.4461960000000 1.0
C      1  0.5788270000000  0.4963560000000  0.4295020000000 1.0
C      1  0.5221020000000  0.4971240000000  0.6028790000000 1.0
C      1  0.3984520000000  0.4975690000000  0.4671640000000 1.0
C      1  0.4209080000000  0.5037130000000  0.4313370000000 1.0
C      1  0.4794710000000  0.5018840000000  0.6035090000000 1.0
C      1  0.6000930000000  0.5037410000000  0.4657100000000 1.0
C      1  0.5111720000000  0.4691020000000  0.5542160000000 1.0
C      1  0.4469400000000  0.4701660000000  0.4822020000000 1.0
C      1  0.5413390000000  0.4687380000000  0.4643250000000 1.0
C      1  0.4888820000000  0.5302800000000  0.5550390000000 1.0
C      1  0.5514920000000  0.5314190000000  0.4814480000000 1.0
C      1  0.4575690000000  0.5321330000000  0.4656740000000 1.0
C      1  0.4123070000000  0.5374510000000  0.5179870000000 1.0
C      1  0.5292540000000  0.5365610000000  0.4171490000000 1.0
C      1  0.5631270000000  0.5384870000000  0.5647800000000 1.0
C      1  0.5871290000000  0.4636720000000  0.5146750000000 1.0
C      1  0.4744830000000  0.4616720000000  0.4133580000000 1.0
C      1  0.4376880000000  0.4610580000000  0.5657290000000 1.0
C      1  0.4349330000000  0.5170370000000  0.4733620000000 1.0
C      1  0.5561630000000  0.5146950000000  0.4594010000000 1.0
C      1  0.5043740000000  0.5131520000000  0.5696310000000 1.0
C      1  0.5628640000000  0.4854500000000  0.4709210000000 1.0
C      1  0.4411920000000  0.4894210000000  0.4635860000000 1.0
C      1  0.4961310000000  0.4859750000000  0.5695450000000 1.0
C      1  0.4948380000000  0.4865490000000  0.4426560000000 1.0
C      1  0.5510450000000  0.4852910000000  0.5215010000000 1.0
C      1  0.4516640000000  0.4865670000000  0.5333170000000 1.0
C      1  0.5062680000000  0.5145330000000  0.4454130000000 1.0
C      1  0.4482010000000  0.5147330000000  0.5230090000000 1.0
C      1  0.5480340000000  0.5132520000000  0.5327210000000 1.0
C      1  0.5630590000000  0.5649860000000  0.4400440000000 1.0
C      1  0.5209110000000  0.5630200000000  0.5832990000000 1.0
C      1  0.4167270000000  0.5653340000000  0.4761630000000 1.0
C      1  0.4377460000000  0.4370720000000  0.4407270000000 1.0
C      1  0.4802510000000  0.4362480000000  0.5830470000000 1.0
C      1  0.5832970000000  0.4350980000000  0.4742680000000 1.0
C      1  0.4803580000000  0.5807430000000  0.5661420000000 1.0
C      1  0.4531040000000  0.5816660000000  0.4505010000000 1.0
C      1  0.5674120000000  0.5816620000000  0.4840370000000 1.0
C      1  0.5205060000000  0.4187790000000  0.5649330000000 1.0
C      1  0.5469530000000  0.4184810000000  0.4490780000000 1.0
C      1  0.4326210000000  0.4193010000000  0.4843180000000 1.0
C      1  0.4246530000000  0.5157160000000  0.5023980000000 1.0
C      1  0.5359380000000  0.5145700000000  0.4358370000000 1.0
C      1  0.5550190000000  0.5101640000000  0.5642550000000 1.0
C      1  0.5735970000000  0.4855230000000  0.5000120000000 1.0
C      1  0.4707170000000  0.4898690000000  0.4213460000000 1.0
C      1  0.4456970000000  0.4893520000000  0.5654180000000 1.0
C      1  0.5508670000000  0.4912120000000  0.4237330000000 1.0
C      1  0.5426500000000  0.4911590000000  0.5833060000000 1.0
C      1  0.4065420000000  0.4920620000000  0.4944050000000 1.0
C      1  0.4483770000000  0.5090840000000  0.4240600000000 1.0
C      1  0.4584340000000  0.5080780000000  0.5845140000000 1.0
C      1  0.5914970000000  0.5089070000000  0.4929610000000 1.0
C      1  0.4754430000000  0.5153580000000  0.5119040000000 1.0
C      1  0.5023720000000  0.5151000000000  0.4743080000000 1.0
C      1  0.5222750000000  0.5153370000000  0.5177080000000 1.0
C      1  0.5235850000000  0.4846130000000  0.5111090000000 1.0
C      1  0.4956120000000  0.4845370000000  0.4725150000000 1.0
C      1  0.4769680000000  0.4843310000000  0.5171710000000 1.0
C      1  0.4927400000000  0.5006660000000  0.4020560000000 1.0
C      1  0.4177560000000  0.5000660000000  0.5561740000000 1.0
C      1  0.5826910000000  0.4997410000000  0.5540980000000 1.0
END
