TITL C-133524-5253-4 -17.0954076260642 125000 -494.129128082582 0 0 73 (C1) n - 1
REM
REM in /rds/project/t2_vol4/rds-t2-cs072/BORA/CARBON/from-Arr/AIRSS/Generating-Clusters/GAP-ML-2020/Higher-Symm/SD-CG/HFTN-CG
REM
REM
REM
REM
REM
REM ./C.cell (b20cbc046b6831c77cfcea5457e17084)
REM AIRSS Version 0.9.1 bugfix July 2018 build 013d7b7c2542+ Fri, 06 Jul 2018 19:26:36 +0100
REM compiler GCC version 9.3.0
REM options -cpp -mtune=generic -march=x86-64 -g -O0
REM seed 830139538 1221866758 -510147864 -1731266299 -1623565655 -59781519 99227360 -1800814842 1026997507 1418845915 -487190662 -76795462 737731672 796826515 1979931831 291105486 -1018037667 -1814342152 123727709 -1727987342 -709979684 315214938 1695965208 447737994 -555140642 1974197142 -2141755837 -1576570555 -9132019 736311778 2036302300 -1199926608 -197001994
REM
CELL 1.54180   50.00000   50.00000   50.00000   90.00000   90.00000   90.00000
LATT -1
SFAC C  
C      1  0.5617540000000  0.4591780000000  0.4753880000000 1.0
C      1  0.5146400000000  0.4773130000000  0.5277080000000 1.0
C      1  0.5200830000000  0.5261610000000  0.5347020000000 1.0
C      1  0.5264730000000  0.5647900000000  0.4770080000000 1.0
C      1  0.5140290000000  0.5004330000000  0.5716050000000 1.0
C      1  0.5373730000000  0.4537070000000  0.4587200000000 1.0
C      1  0.4875560000000  0.4614410000000  0.5579320000000 1.0
C      1  0.4276890000000  0.4890360000000  0.5232430000000 1.0
C      1  0.5039830000000  0.4984860000000  0.4210630000000 1.0
C      1  0.4982800000000  0.4234610000000  0.4684950000000 1.0
C      1  0.5129400000000  0.4346780000000  0.5187990000000 1.0
C      1  0.5012760000000  0.5030200000000  0.5228180000000 1.0
C      1  0.4620540000000  0.4720730000000  0.5632720000000 1.0
C      1  0.4743100000000  0.4538610000000  0.4441380000000 1.0
C      1  0.4301300000000  0.5190110000000  0.5152030000000 1.0
C      1  0.4999160000000  0.5693730000000  0.4738390000000 1.0
C      1  0.5279550000000  0.5615840000000  0.5608550000000 1.0
C      1  0.4845040000000  0.5730220000000  0.4980450000000 1.0
C      1  0.4601460000000  0.5016820000000  0.4488700000000 1.0
C      1  0.4456920000000  0.4718150000000  0.5380880000000 1.0
C      1  0.5156240000000  0.4340770000000  0.4476740000000 1.0
C      1  0.4702480000000  0.4770290000000  0.4636140000000 1.0
C      1  0.5089200000000  0.4375940000000  0.4908940000000 1.0
C      1  0.5039890000000  0.5511090000000  0.5463640000000 1.0
C      1  0.4932460000000  0.4549880000000  0.5292530000000 1.0
C      1  0.5146120000000  0.4730340000000  0.4217020000000 1.0
C      1  0.4831270000000  0.5549190000000  0.4534470000000 1.0
C      1  0.4701900000000  0.4292780000000  0.4606450000000 1.0
C      1  0.5367680000000  0.5141340000000  0.5580550000000 1.0
C      1  0.5114510000000  0.4758470000000  0.5594160000000 1.0
C      1  0.4668830000000  0.4671820000000  0.5177730000000 1.0
C      1  0.4536250000000  0.4642170000000  0.4887450000000 1.0
C      1  0.5711010000000  0.4834670000000  0.4647650000000 1.0
C      1  0.4619360000000  0.5559650000000  0.4908370000000 1.0
C      1  0.5169870000000  0.4655440000000  0.4816390000000 1.0
C      1  0.4940150000000  0.5568370000000  0.5190660000000 1.0
C      1  0.5562910000000  0.4593180000000  0.5069160000000 1.0
C      1  0.4507170000000  0.4364000000000  0.4783750000000 1.0
C      1  0.4960630000000  0.4858740000000  0.4766120000000 1.0
C      1  0.4830730000000  0.5385910000000  0.5625130000000 1.0
C      1  0.5538090000000  0.5256700000000  0.4709930000000 1.0
C      1  0.4939210000000  0.5357730000000  0.4357300000000 1.0
C      1  0.5328860000000  0.4783600000000  0.5035960000000 1.0
C      1  0.4311200000000  0.5103100000000  0.4858620000000 1.0
C      1  0.4322390000000  0.5547340000000  0.5449990000000 1.0
C      1  0.5409040000000  0.4377110000000  0.5188250000000 1.0
C      1  0.4790950000000  0.5341400000000  0.5049640000000 1.0
C      1  0.5444450000000  0.5484360000000  0.4880310000000 1.0
C      1  0.5192940000000  0.5212900000000  0.4313720000000 1.0
C      1  0.5447690000000  0.5176090000000  0.4441270000000 1.0
C      1  0.4454580000000  0.5206460000000  0.4636390000000 1.0
C      1  0.5397540000000  0.4706690000000  0.4346550000000 1.0
C      1  0.4992290000000  0.4505680000000  0.4308970000000 1.0
C      1  0.5750060000000  0.5070280000000  0.4797610000000 1.0
C      1  0.4314110000000  0.4833500000000  0.4952010000000 1.0
C      1  0.5792290000000  0.5032300000000  0.5068370000000 1.0
C      1  0.5007930000000  0.5097650000000  0.4934940000000 1.0
C      1  0.5561680000000  0.4918130000000  0.4413890000000 1.0
C      1  0.4590200000000  0.5221730000000  0.5234960000000 1.0
C      1  0.4790930000000  0.5111100000000  0.4300450000000 1.0
C      1  0.4554160000000  0.5364300000000  0.5520270000000 1.0
C      1  0.5691880000000  0.4815720000000  0.5232600000000 1.0
C      1  0.5406520000000  0.5309200000000  0.5131460000000 1.0
C      1  0.4175660000000  0.5433040000000  0.5272340000000 1.0
C      1  0.4733450000000  0.4977390000000  0.5275890000000 1.0
C      1  0.4576900000000  0.5471850000000  0.4650910000000 1.0
C      1  0.5584820000000  0.5010230000000  0.5430320000000 1.0
C      1  0.4642610000000  0.4978580000000  0.5763650000000 1.0
C      1  0.5659200000000  0.5216300000000  0.5234570000000 1.0
C      1  0.4448000000000  0.5137900000000  0.5671250000000 1.0
C      1  0.5315250000000  0.5081170000000  0.4941980000000 1.0
C      1  0.4891950000000  0.5137530000000  0.5750220000000 1.0
C      1  0.5446660000000  0.5427680000000  0.5664480000000 1.0
END
