TITL C-133521-5394-9 -4.33221871779354 125000 -272.830822992528 0 0 40 (C5) n - 1
REM
REM in /rds/project/t2_vol4/rds-t2-cs072/BORA/CARBON/from-Arr/AIRSS/Generating-Clusters/GAP-ML-2020/Higher-Symm/SD-CG/HFTN-CG
REM
REM
REM
REM
REM
REM ./C.cell (b20cbc046b6831c77cfcea5457e17084)
REM AIRSS Version 0.9.1 bugfix July 2018 build 013d7b7c2542+ Fri, 06 Jul 2018 19:26:36 +0100
REM compiler GCC version 9.3.0
REM options -cpp -mtune=generic -march=x86-64 -g -O0
REM seed 1946043604 -1339048381 -199609615 1636174030 1687892722 -19267231 1580503995 -55361158 -822592109 -958867741 -905590085 991206212 1689967488 -1233889680 1076434509 1418275148 781504063 -205463020 896759477 -83830571 -1223943776 1246785087 987493515 1848189243 322969364 -950963040 -1422837571 533916104 -251350627 -38898866 -1029865785 -13735579 -185969008
REM
CELL 1.54180   50.00000   50.00000   50.00000   90.00000   90.00000   90.00000
LATT -1
SFAC C  
C      1  0.5193740000000  0.5627910000000  0.4921570000000 1.0
C      1  0.5195710000000  0.5118780000000  0.4379080000000 1.0
C      1  0.5194590000000  0.4445510000000  0.4695650000000 1.0
C      1  0.5191930000000  0.4538540000000  0.5433780000000 1.0
C      1  0.5191400000000  0.5269300000000  0.5573410000000 1.0
C      1  0.5128190000000  0.4924570000000  0.4782200000000 1.0
C      1  0.5127390000000  0.4769120000000  0.5004760000000 1.0
C      1  0.5126610000000  0.4932740000000  0.5221370000000 1.0
C      1  0.5126920000000  0.5189320000000  0.5132690000000 1.0
C      1  0.5127900000000  0.5184270000000  0.4861270000000 1.0
C      1  0.4910930000000  0.4901430000000  0.5543490000000 1.0
C      1  0.4911930000000  0.5486730000000  0.5261470000000 1.0
C      1  0.4914250000000  0.5399380000000  0.4617670000000 1.0
C      1  0.4914690000000  0.4760100000000  0.4501800000000 1.0
C      1  0.4912640000000  0.4452350000000  0.5073990000000 1.0
C      1  0.5345220000000  0.4599060000000  0.4528490000000 1.0
C      1  0.5342680000000  0.4426500000000  0.5236480000000 1.0
C      1  0.5341270000000  0.5046510000000  0.5619370000000 1.0
C      1  0.5342950000000  0.5602260000000  0.5148030000000 1.0
C      1  0.5345390000000  0.5325720000000  0.4473830000000 1.0
C      1  0.4736610000000  0.5302920000000  0.5378190000000 1.0
C      1  0.4738590000000  0.5454180000000  0.4828110000000 1.0
C      1  0.4739730000000  0.4977760000000  0.4514270000000 1.0
C      1  0.4738470000000  0.4532060000000  0.4870390000000 1.0
C      1  0.4736540000000  0.4733020000000  0.5404320000000 1.0
C      1  0.4899320000000  0.5192330000000  0.4435740000000 1.0
C      1  0.4898600000000  0.4523140000000  0.4642460000000 1.0
C      1  0.4896080000000  0.4512940000000  0.5342770000000 1.0
C      1  0.4895240000000  0.5175840000000  0.5568880000000 1.0
C      1  0.4897250000000  0.5595730000000  0.5008300000000 1.0
C      1  0.5199510000000  0.4845290000000  0.4488490000000 1.0
C      1  0.5197720000000  0.4465040000000  0.4989570000000 1.0
C      1  0.5195850000000  0.4824100000000  0.5506050000000 1.0
C      1  0.5196480000000  0.5426250000000  0.5324170000000 1.0
C      1  0.5198750000000  0.5439350000000  0.4695280000000 1.0
C      1  0.4590090000000  0.5226110000000  0.4913710000000 1.0
C      1  0.4590660000000  0.4989200000000  0.4757260000000 1.0
C      1  0.4590030000000  0.4767190000000  0.4934220000000 1.0
C      1  0.4589070000000  0.4866900000000  0.5200050000000 1.0
C      1  0.4589100000000  0.5150520000000  0.5187370000000 1.0
END
