TITL C-131485-8614-3 0.107645291378529 125000 -668.325484375985 0 0 97 (C1) n - 1
REM
REM in /rds/project/t2_vol4/rds-t2-cs072/BORA/CARBON/from-Arr/AIRSS/Generating-Clusters/GAP-ML-2020/Higher-Symm/SD-CG/HFTN-CG
REM
REM
REM
REM
REM
REM ./C.cell (b20cbc046b6831c77cfcea5457e17084)
REM AIRSS Version 0.9.1 bugfix July 2018 build 013d7b7c2542+ Fri, 06 Jul 2018 19:26:36 +0100
REM compiler GCC version 9.3.0
REM options -cpp -mtune=generic -march=x86-64 -g -O0
REM seed -1294513327 758444180 995037695 1850711404 -934221002 -1576037174 -1895930529 589211792 619455783 -1821603016 -1541405975 1618596376 -432489899 -597157025 1861532910 2043917608 -698904694 -1173577363 1368744925 946991953 -1401504196 1171493146 -1938383763 388462286 1555807253 1015124840 -332309313 -1815482299 1944777605 1269412077 -1484901963 748102389 694997546
REM
CELL 1.54180   50.00000   50.00000   50.00000   90.00000   90.00000   90.00000
LATT -1
SFAC C  
C      1  0.4110140000000  0.4788370000000  0.4600930000000 1.0
C      1  0.4101720000000  0.5272530000000  0.4810870000000 1.0
C      1  0.4231670000000  0.5401540000000  0.5286420000000 1.0
C      1  0.4084740000000  0.4935960000000  0.5419360000000 1.0
C      1  0.4046930000000  0.4599740000000  0.5056290000000 1.0
C      1  0.5803120000000  0.4839210000000  0.4524070000000 1.0
C      1  0.5887170000000  0.5330190000000  0.4678750000000 1.0
C      1  0.5906590000000  0.5344320000000  0.5168210000000 1.0
C      1  0.5853500000000  0.4908740000000  0.5431910000000 1.0
C      1  0.5900440000000  0.4675690000000  0.4992680000000 1.0
C      1  0.5541070000000  0.5077720000000  0.5739020000000 1.0
C      1  0.5451920000000  0.4285100000000  0.5282430000000 1.0
C      1  0.5448480000000  0.4532270000000  0.4447210000000 1.0
C      1  0.5476990000000  0.5443460000000  0.4284900000000 1.0
C      1  0.5553210000000  0.5789290000000  0.5163130000000 1.0
C      1  0.4538090000000  0.5029010000000  0.5826980000000 1.0
C      1  0.4450180000000  0.4316030000000  0.5359940000000 1.0
C      1  0.4435480000000  0.4470640000000  0.4458450000000 1.0
C      1  0.4490260000000  0.5352890000000  0.4336300000000 1.0
C      1  0.4549100000000  0.5727840000000  0.5187660000000 1.0
C      1  0.4426900000000  0.4663500000000  0.5645110000000 1.0
C      1  0.4548140000000  0.4295530000000  0.4871860000000 1.0
C      1  0.4396790000000  0.4914990000000  0.4278100000000 1.0
C      1  0.4647060000000  0.5620570000000  0.4745040000000 1.0
C      1  0.4595820000000  0.5417780000000  0.5577240000000 1.0
C      1  0.5525360000000  0.4628070000000  0.5568730000000 1.0
C      1  0.5376740000000  0.4305190000000  0.4850530000000 1.0
C      1  0.5475700000000  0.4990140000000  0.4271330000000 1.0
C      1  0.5448520000000  0.5673160000000  0.4732210000000 1.0
C      1  0.5414030000000  0.5466480000000  0.5536560000000 1.0
C      1  0.5666060000000  0.5681510000000  0.4924700000000 1.0
C      1  0.5639650000000  0.5294590000000  0.5587930000000 1.0
C      1  0.5663000000000  0.4474840000000  0.5377340000000 1.0
C      1  0.5571660000000  0.4462270000000  0.4688400000000 1.0
C      1  0.5657210000000  0.5211340000000  0.4274050000000 1.0
C      1  0.4434530000000  0.5633000000000  0.4945710000000 1.0
C      1  0.4407660000000  0.5227880000000  0.5672680000000 1.0
C      1  0.4266230000000  0.4509670000000  0.5468980000000 1.0
C      1  0.4329310000000  0.4384880000000  0.4704240000000 1.0
C      1  0.4279360000000  0.5156640000000  0.4372520000000 1.0
C      1  0.5199830000000  0.4752020000000  0.4907290000000 1.0
C      1  0.5361530000000  0.5125340000000  0.4770710000000 1.0
C      1  0.5324950000000  0.5286310000000  0.4998050000000 1.0
C      1  0.5266350000000  0.5124430000000  0.5224590000000 1.0
C      1  0.5246840000000  0.4843040000000  0.5177790000000 1.0
C      1  0.4665190000000  0.4773350000000  0.4887240000000 1.0
C      1  0.4659340000000  0.4965150000000  0.4676420000000 1.0
C      1  0.4828260000000  0.5272970000000  0.5001750000000 1.0
C      1  0.4770780000000  0.5121790000000  0.5229360000000 1.0
C      1  0.4671740000000  0.4858630000000  0.5174160000000 1.0
C      1  0.5171690000000  0.5267750000000  0.5501280000000 1.0
C      1  0.5270890000000  0.4666690000000  0.5413120000000 1.0
C      1  0.5112600000000  0.4480190000000  0.4793110000000 1.0
C      1  0.5285920000000  0.5103960000000  0.4488110000000 1.0
C      1  0.5211270000000  0.5581140000000  0.4924910000000 1.0
C      1  0.4852360000000  0.5255200000000  0.5517000000000 1.0
C      1  0.4654890000000  0.4685110000000  0.5418460000000 1.0
C      1  0.4787960000000  0.4478450000000  0.4786840000000 1.0
C      1  0.4666880000000  0.4950470000000  0.4369180000000 1.0
C      1  0.4899590000000  0.5566570000000  0.4931470000000 1.0
C      1  0.4719480000000  0.4461150000000  0.4474430000000 1.0
C      1  0.4728890000000  0.5205050000000  0.4244540000000 1.0
C      1  0.4825910000000  0.5770780000000  0.5150750000000 1.0
C      1  0.4814960000000  0.5071070000000  0.5774740000000 1.0
C      1  0.4719470000000  0.4399260000000  0.5421220000000 1.0
C      1  0.5172480000000  0.4490330000000  0.4470890000000 1.0
C      1  0.5203470000000  0.5328340000000  0.4311970000000 1.0
C      1  0.5268300000000  0.5798220000000  0.5136000000000 1.0
C      1  0.5260030000000  0.5090700000000  0.5746950000000 1.0
C      1  0.5205490000000  0.4387020000000  0.5391560000000 1.0
C      1  0.5522430000000  0.5614770000000  0.4484870000000 1.0
C      1  0.5525500000000  0.5658570000000  0.5391780000000 1.0
C      1  0.5682960000000  0.4850650000000  0.5651150000000 1.0
C      1  0.5433800000000  0.4128170000000  0.5054050000000 1.0
C      1  0.5604200000000  0.4749430000000  0.4338070000000 1.0
C      1  0.4561840000000  0.5542290000000  0.4509200000000 1.0
C      1  0.4438990000000  0.5570530000000  0.5392680000000 1.0
C      1  0.4401740000000  0.4786440000000  0.5882280000000 1.0
C      1  0.4446430000000  0.4228790000000  0.5108170000000 1.0
C      1  0.4268700000000  0.4692380000000  0.4383730000000 1.0
C      1  0.4193820000000  0.5173780000000  0.5471300000000 1.0
C      1  0.4082890000000  0.4679340000000  0.5312740000000 1.0
C      1  0.4113830000000  0.4571920000000  0.4799370000000 1.0
C      1  0.4121980000000  0.5092510000000  0.4608130000000 1.0
C      1  0.4216970000000  0.5435120000000  0.4998040000000 1.0
C      1  0.5846160000000  0.5201860000000  0.5388110000000 1.0
C      1  0.5854310000000  0.4669880000000  0.5257520000000 1.0
C      1  0.5797750000000  0.4654500000000  0.4745510000000 1.0
C      1  0.5843280000000  0.5141850000000  0.4492370000000 1.0
C      1  0.5871780000000  0.5460550000000  0.4921540000000 1.0
C      1  0.5048940000000  0.4965220000000  0.5863690000000 1.0
C      1  0.4966430000000  0.5316930000000  0.4195150000000 1.0
C      1  0.4947050000000  0.4488020000000  0.4318900000000 1.0
C      1  0.4959950000000  0.4284180000000  0.5412380000000 1.0
C      1  0.5043150000000  0.5890780000000  0.5257430000000 1.0
C      1  0.5123860000000  0.4972850000000  0.4731020000000 1.0
C      1  0.4872720000000  0.5103620000000  0.4779980000000 1.0
END
