TITL C-131472-8465-8 -0.0429717337067064 125000 -465.737125094343 0 0 69 (C2v) n - 1
REM
REM in /rds/project/t2_vol4/rds-t2-cs072/BORA/CARBON/from-Arr/AIRSS/Generating-Clusters/GAP-ML-2020/Higher-Symm/SD-CG/HFTN-CG
REM
REM
REM
REM
REM
REM ./C.cell (b20cbc046b6831c77cfcea5457e17084)
REM AIRSS Version 0.9.1 bugfix July 2018 build 013d7b7c2542+ Fri, 06 Jul 2018 19:26:36 +0100
REM compiler GCC version 9.3.0
REM options -cpp -mtune=generic -march=x86-64 -g -O0
REM seed 492908581 -420968323 1732400087 118324541 -467017555 -960886660 -770411758 303980624 -1229889410 -201166255 1696810680 -1827214758 93459598 548680285 1927690312 -531915139 1426003710 1385144651 -1944102570 -32288951 1302232626 -1606783124 1282918209 868708847 937560084 1269422378 -1443754045 204586638 -1358968417 1821319110 1948549618 2117950760 2007202323
REM
CELL 1.54180   50.00000   50.00000   50.00000   90.00000   90.00000   90.00000
LATT -1
SFAC C  
C      1  0.4340770000000  0.4860790000000  0.4649350000000 1.0
C      1  0.4340730000000  0.5139000000000  0.5343830000000 1.0
C      1  0.4340750000000  0.4860840000000  0.5343850000000 1.0
C      1  0.4340750000000  0.5138960000000  0.4649330000000 1.0
C      1  0.5305780000000  0.4842240000000  0.5410150000000 1.0
C      1  0.5305790000000  0.5157650000000  0.4583090000000 1.0
C      1  0.5305810000000  0.4842190000000  0.4583110000000 1.0
C      1  0.5305770000000  0.5157710000000  0.5410120000000 1.0
C      1  0.4543490000000  0.5258930000000  0.4838580000000 1.0
C      1  0.4543500000000  0.4740880000000  0.5154610000000 1.0
C      1  0.4543480000000  0.5258950000000  0.5154580000000 1.0
C      1  0.4543510000000  0.4740860000000  0.4838610000000 1.0
C      1  0.5581530000000  0.4863170000000  0.5276410000000 1.0
C      1  0.5581530000000  0.5136750000000  0.4716840000000 1.0
C      1  0.5581550000000  0.4863130000000  0.4716850000000 1.0
C      1  0.5581520000000  0.5136790000000  0.5276390000000 1.0
C      1  0.4789120000000  0.4854110000000  0.4669310000000 1.0
C      1  0.4789090000000  0.5145730000000  0.5323890000000 1.0
C      1  0.4789100000000  0.4854150000000  0.5323910000000 1.0
C      1  0.4789110000000  0.5145690000000  0.4669290000000 1.0
C      1  0.4815430000000  0.4374070000000  0.5291040000000 1.0
C      1  0.4815390000000  0.5625780000000  0.4702160000000 1.0
C      1  0.4815450000000  0.4374030000000  0.4702240000000 1.0
C      1  0.4815370000000  0.5625820000000  0.5290960000000 1.0
C      1  0.5067760000000  0.4779140000000  0.4767830000000 1.0
C      1  0.5067720000000  0.5220730000000  0.5225390000000 1.0
C      1  0.5067740000000  0.4779170000000  0.5225420000000 1.0
C      1  0.5067740000000  0.5220700000000  0.4767800000000 1.0
C      1  0.5048720000000  0.4475050000000  0.4846400000000 1.0
C      1  0.5048660000000  0.5524820000000  0.5146820000000 1.0
C      1  0.5048710000000  0.4475070000000  0.5146890000000 1.0
C      1  0.5048670000000  0.5524800000000  0.4846330000000 1.0
C      1  0.4704730000000  0.5286730000000  0.5576640000000 1.0
C      1  0.4704790000000  0.4713100000000  0.4416560000000 1.0
C      1  0.4704760000000  0.5286650000000  0.4416520000000 1.0
C      1  0.4704760000000  0.4713180000000  0.5576670000000 1.0
C      1  0.5114620000000  0.5531910000000  0.5632970000000 1.0
C      1  0.5114720000000  0.4467970000000  0.4360250000000 1.0
C      1  0.5114660000000  0.5531820000000  0.4360180000000 1.0
C      1  0.5114680000000  0.4468050000000  0.5633040000000 1.0
C      1  0.4592190000000  0.5550790000000  0.4851880000000 1.0
C      1  0.4592240000000  0.4449030000000  0.5141310000000 1.0
C      1  0.4592180000000  0.5550810000000  0.5141240000000 1.0
C      1  0.4592250000000  0.4449010000000  0.4851950000000 1.0
C      1  0.5649010000000  0.4622970000000  0.4849880000000 1.0
C      1  0.5648960000000  0.5376960000000  0.5143380000000 1.0
C      1  0.5649000000000  0.4622990000000  0.5143430000000 1.0
C      1  0.5648970000000  0.5376940000000  0.4849830000000 1.0
C      1  0.5502100000000  0.4429990000000  0.5305380000000 1.0
C      1  0.5502060000000  0.5569920000000  0.4687870000000 1.0
C      1  0.5502110000000  0.4429950000000  0.4687940000000 1.0
C      1  0.5502040000000  0.5569960000000  0.5305300000000 1.0
C      1  0.5340460000000  0.4570420000000  0.4456120000000 1.0
C      1  0.5340380000000  0.5429480000000  0.5537120000000 1.0
C      1  0.5340420000000  0.4570490000000  0.5537180000000 1.0
C      1  0.5340410000000  0.5429400000000  0.4456060000000 1.0
C      1  0.4851760000000  0.5530000000000  0.5564000000000 1.0
C      1  0.4851850000000  0.4469850000000  0.4429210000000 1.0
C      1  0.4851800000000  0.5529920000000  0.4429140000000 1.0
C      1  0.4851820000000  0.4469920000000  0.5564070000000 1.0
C      1  0.4434220000000  0.5247940000000  0.4402800000000 1.0
C      1  0.4434210000000  0.4751870000000  0.5590380000000 1.0
C      1  0.4434180000000  0.5248020000000  0.5590350000000 1.0
C      1  0.4434240000000  0.4751790000000  0.4402830000000 1.0
C      1  0.5310690000000  0.4325440000000  0.4853190000000 1.0
C      1  0.5310610000000  0.5674450000000  0.5140040000000 1.0
C      1  0.5310680000000  0.4325460000000  0.5140140000000 1.0
C      1  0.5310620000000  0.5674430000000  0.4853100000000 1.0
C      1  0.5077390000000  0.4999930000000  0.4996610000000 1.0
END
