TITL C-133526-5289-5 -0.0042594249754582 125000 -26.2679892648591 0 0 5 (C2v) n - 1
REM
REM in /rds/project/t2_vol4/rds-t2-cs072/BORA/CARBON/from-Arr/AIRSS/Generating-Clusters/GAP-ML-2020/Higher-Symm/SD-CG/HFTN-CG
REM
REM
REM
REM
REM
REM ./C.cell (b20cbc046b6831c77cfcea5457e17084)
REM AIRSS Version 0.9.1 bugfix July 2018 build 013d7b7c2542+ Fri, 06 Jul 2018 19:26:36 +0100
REM compiler GCC version 9.3.0
REM options -cpp -mtune=generic -march=x86-64 -g -O0
REM seed 375617747 65702596 -419243862 2065023185 -651983435 -267319561 -416999065 663937719 -110270576 1669634090 -1643214974 102579475 -1123173614 1340051013 -895491546 1620881600 703650842 -1394762950 16539038 818952861 1808905753 223760988 -1212827366 737165901 237595117 -841273984 2012154709 1662698323 -348621984 1029415069 1626199548 -2005350183 1390367250
REM
CELL 1.54180   50.00000   50.00000   50.00000   90.00000   90.00000   90.00000
LATT -1
SFAC C  
C      1  0.5198610000000  0.5072240000000  0.5160400000000 1.0
C      1  0.4931220000000  0.5121840000000  0.5234220000000 1.0
C      1  0.5121890000000  0.4956130000000  0.4911820000000 1.0
C      1  0.4905800000000  0.4893060000000  0.4757980000000 1.0
C      1  0.4830300000000  0.5010220000000  0.4992320000000 1.0
END
