TITL C-133537-5312-9 823.195031816191 125000 -902.230961372827 0 0 126 (C3) n - 1
REM
REM in /rds/project/t2_vol4/rds-t2-cs072/BORA/CARBON/from-Arr/AIRSS/Generating-Clusters/GAP-ML-2020/Higher-Symm/SD-CG/HFTN-CG
REM
REM
REM
REM
REM
REM ./C.cell (b20cbc046b6831c77cfcea5457e17084)
REM AIRSS Version 0.9.1 bugfix July 2018 build 013d7b7c2542+ Fri, 06 Jul 2018 19:26:36 +0100
REM compiler GCC version 9.3.0
REM options -cpp -mtune=generic -march=x86-64 -g -O0
REM seed 792327211 422867248 -1886670206 -1272980508 -1151732448 -392563756 1599829954 898450870 360471535 -1382541619 376990193 -1082350953 87400556 735997299 746899181 -853062912 1798509655 -1075645885 1995299234 2016677632 2046900477 -1584101540 -2074751763 1333633263 549912127 2107084733 -1145037370 -667778450 709462013 1800118266 -2059186269 -1643775232 -126988977
REM
CELL 1.54180   50.00000   50.00000   50.00000   90.00000   90.00000   90.00000
LATT -1
SFAC C  
C      1  0.4457630000000  0.5097480000000  0.4240360000000 1.0
C      1  0.4385920000000  0.5547780000000  0.4541840000000 1.0
C      1  0.4479730000000  0.5618650000000  0.5476770000000 1.0
C      1  0.4405070000000  0.5133740000000  0.5717800000000 1.0
C      1  0.4474160000000  0.4287130000000  0.5309880000000 1.0
C      1  0.4387310000000  0.4322220000000  0.4771340000000 1.0
C      1  0.5315650000000  0.5697170000000  0.4420560000000 1.0
C      1  0.5354890000000  0.5835930000000  0.5341930000000 1.0
C      1  0.5339440000000  0.5147510000000  0.5885690000000 1.0
C      1  0.5355150000000  0.4279660000000  0.5544640000000 1.0
C      1  0.5316850000000  0.4153330000000  0.4677220000000 1.0
C      1  0.5331750000000  0.4882270000000  0.4095710000000 1.0
C      1  0.5542100000000  0.5525880000000  0.4475430000000 1.0
C      1  0.5565410000000  0.5702330000000  0.5194820000000 1.0
C      1  0.5562300000000  0.5181610000000  0.5704580000000 1.0
C      1  0.5568030000000  0.4470090000000  0.5497440000000 1.0
C      1  0.5544950000000  0.4289130000000  0.4791940000000 1.0
C      1  0.5548040000000  0.4824140000000  0.4279140000000 1.0
C      1  0.4469510000000  0.4577340000000  0.4627480000000 1.0
C      1  0.4650690000000  0.5125380000000  0.4699630000000 1.0
C      1  0.4474980000000  0.5543310000000  0.4832680000000 1.0
C      1  0.4660490000000  0.5203610000000  0.5266920000000 1.0
C      1  0.4486110000000  0.4882560000000  0.5566530000000 1.0
C      1  0.4655740000000  0.4673130000000  0.5051020000000 1.0
C      1  0.5646030000000  0.5515980000000  0.4744470000000 1.0
C      1  0.5674950000000  0.5466020000000  0.5314020000000 1.0
C      1  0.5658720000000  0.4951760000000  0.5559140000000 1.0
C      1  0.5671520000000  0.4483090000000  0.5230660000000 1.0
C      1  0.5642620000000  0.4528270000000  0.4663270000000 1.0
C      1  0.5658910000000  0.5046780000000  0.4421220000000 1.0
C      1  0.4818090000000  0.5716800000000  0.4386730000000 1.0
C      1  0.4858140000000  0.5890100000000  0.5383380000000 1.0
C      1  0.4843260000000  0.5175840000000  0.5931400000000 1.0
C      1  0.4858120000000  0.4225530000000  0.5582630000000 1.0
C      1  0.4819970000000  0.4108420000000  0.4690700000000 1.0
C      1  0.4833260000000  0.4885290000000  0.4041650000000 1.0
C      1  0.4827420000000  0.4747210000000  0.5248890000000 1.0
C      1  0.4757470000000  0.4649270000000  0.4786200000000 1.0
C      1  0.4817760000000  0.4913970000000  0.4660850000000 1.0
C      1  0.4759320000000  0.5364800000000  0.4808850000000 1.0
C      1  0.4826090000000  0.5339910000000  0.5099250000000 1.0
C      1  0.4768890000000  0.4987390000000  0.5417100000000 1.0
C      1  0.5229400000000  0.4914620000000  0.5988690000000 1.0
C      1  0.5298250000000  0.4020010000000  0.5483290000000 1.0
C      1  0.5201340000000  0.4182560000000  0.4426710000000 1.0
C      1  0.5273510000000  0.5066230000000  0.3902870000000 1.0
C      1  0.5207360000000  0.5901520000000  0.4573760000000 1.0
C      1  0.5304090000000  0.5911960000000  0.5598950000000 1.0
C      1  0.4889420000000  0.5700320000000  0.5730680000000 1.0
C      1  0.4831220000000  0.4675900000000  0.5869100000000 1.0
C      1  0.4877700000000  0.4019150000000  0.5244050000000 1.0
C      1  0.4803820000000  0.4412540000000  0.4289180000000 1.0
C      1  0.4859660000000  0.5281290000000  0.4031620000000 1.0
C      1  0.4816440000000  0.5912680000000  0.4851050000000 1.0
C      1  0.5031870000000  0.4949500000000  0.4483790000000 1.0
C      1  0.5024660000000  0.5412250000000  0.4687210000000 1.0
C      1  0.5045340000000  0.5471650000000  0.5213400000000 1.0
C      1  0.5037980000000  0.5064260000000  0.5512660000000 1.0
C      1  0.5045000000000  0.4578600000000  0.5300740000000 1.0
C      1  0.5024730000000  0.4523310000000  0.4798640000000 1.0
C      1  0.4586200000000  0.5787750000000  0.4989110000000 1.0
C      1  0.4637200000000  0.5561460000000  0.5711700000000 1.0
C      1  0.4595860000000  0.4622920000000  0.5697410000000 1.0
C      1  0.4624490000000  0.4109510000000  0.5139260000000 1.0
C      1  0.4572620000000  0.4591880000000  0.4334660000000 1.0
C      1  0.4610480000000  0.5331340000000  0.4168220000000 1.0
C      1  0.5072250000000  0.5915820000000  0.4980820000000 1.0
C      1  0.5119180000000  0.5542140000000  0.5761440000000 1.0
C      1  0.5083410000000  0.4557410000000  0.5800920000000 1.0
C      1  0.5104670000000  0.4067520000000  0.5086250000000 1.0
C      1  0.5056370000000  0.4526330000000  0.4214650000000 1.0
C      1  0.5091410000000  0.5389690000000  0.4146950000000 1.0
C      1  0.5756410000000  0.5022150000000  0.4694470000000 1.0
C      1  0.5754450000000  0.5265280000000  0.4860250000000 1.0
C      1  0.5764670000000  0.5240000000000  0.5153860000000 1.0
C      1  0.5761020000000  0.4974930000000  0.5281630000000 1.0
C      1  0.5762940000000  0.4733170000000  0.5112820000000 1.0
C      1  0.5752720000000  0.4755140000000  0.4819540000000 1.0
C      1  0.5564410000000  0.5436800000000  0.5578470000000 1.0
C      1  0.5543890000000  0.4702540000000  0.5653220000000 1.0
C      1  0.5553470000000  0.4270690000000  0.5075880000000 1.0
C      1  0.5522360000000  0.4573460000000  0.4403170000000 1.0
C      1  0.5542660000000  0.5289100000000  0.4317420000000 1.0
C      1  0.5533440000000  0.5720730000000  0.4916390000000 1.0
C      1  0.4598760000000  0.5799460000000  0.5284080000000 1.0
C      1  0.4609730000000  0.5299540000000  0.5838170000000 1.0
C      1  0.4600510000000  0.4361450000000  0.5559890000000 1.0
C      1  0.4590530000000  0.4131450000000  0.4849930000000 1.0
C      1  0.4577970000000  0.4841600000000  0.4176820000000 1.0
C      1  0.4584680000000  0.5571500000000  0.4332570000000 1.0
C      1  0.5066580000000  0.4804830000000  0.4215130000000 1.0
C      1  0.5065730000000  0.5541190000000  0.4378790000000 1.0
C      1  0.5085690000000  0.5775970000000  0.5221500000000 1.0
C      1  0.5088950000000  0.5266120000000  0.5777420000000 1.0
C      1  0.5088650000000  0.4418710000000  0.5559270000000 1.0
C      1  0.5070810000000  0.4192230000000  0.4839960000000 1.0
C      1  0.4352150000000  0.4723610000000  0.5086650000000 1.0
C      1  0.4306920000000  0.4791050000000  0.4788650000000 1.0
C      1  0.4346850000000  0.5074700000000  0.4732740000000 1.0
C      1  0.4310550000000  0.5299810000000  0.4941090000000 1.0
C      1  0.4355300000000  0.5205680000000  0.5213700000000 1.0
C      1  0.4315950000000  0.4913380000000  0.5305410000000 1.0
C      1  0.5202990000000  0.4727630000000  0.4881760000000 1.0
C      1  0.5183340000000  0.4968080000000  0.4714730000000 1.0
C      1  0.5202950000000  0.5234950000000  0.4818390000000 1.0
C      1  0.5190660000000  0.5259700000000  0.5110520000000 1.0
C      1  0.5210560000000  0.5036160000000  0.5289370000000 1.0
C      1  0.5190590000000  0.4771070000000  0.5165150000000 1.0
C      1  0.4181870000000  0.5273100000000  0.5647310000000 1.0
C      1  0.4280640000000  0.4441280000000  0.5149390000000 1.0
C      1  0.4167760000000  0.4317540000000  0.4932520000000 1.0
C      1  0.4270370000000  0.5162810000000  0.4458620000000 1.0
C      1  0.4162010000000  0.5414460000000  0.4462480000000 1.0
C      1  0.4287350000000  0.5400340000000  0.5428750000000 1.0
C      1  0.5363590000000  0.5638970000000  0.5662060000000 1.0
C      1  0.5325930000000  0.4697720000000  0.5848070000000 1.0
C      1  0.5352820000000  0.4100810000000  0.5213950000000 1.0
C      1  0.5299140000000  0.4411040000000  0.4306840000000 1.0
C      1  0.5336350000000  0.5258060000000  0.4106090000000 1.0
C      1  0.5311050000000  0.5889320000000  0.4829170000000 1.0
C      1  0.4972920000000  0.3985600000000  0.5506210000000 1.0
C      1  0.4896540000000  0.4184650000000  0.4432020000000 1.0
C      1  0.4947310000000  0.5069380000000  0.3869340000000 1.0
C      1  0.4902570000000  0.5901290000000  0.4580140000000 1.0
C      1  0.4978980000000  0.5945230000000  0.5626170000000 1.0
C      1  0.4924570000000  0.4914620000000  0.5992530000000 1.0
END
