TITL C-133528-5442-3 -0.0638505785180165 125000 -228.267563689893 0 0 34 (C1) n - 1
REM
REM in /rds/project/t2_vol4/rds-t2-cs072/BORA/CARBON/from-Arr/AIRSS/Generating-Clusters/GAP-ML-2020/Higher-Symm/SD-CG/HFTN-CG
REM
REM
REM
REM
REM
REM ./C.cell (b20cbc046b6831c77cfcea5457e17084)
REM AIRSS Version 0.9.1 bugfix July 2018 build 013d7b7c2542+ Fri, 06 Jul 2018 19:26:36 +0100
REM compiler GCC version 9.3.0
REM options -cpp -mtune=generic -march=x86-64 -g -O0
REM seed 473211003 -931838951 1169621266 740732556 -709487626 69250313 170090676 -1724977270 -990070393 -942135978 -676765394 -1767825469 -1583097901 -1110190830 68779105 -1157286868 864678058 -287408639 -218554122 -1035975428 1432500885 1293533812 -126843243 -865482094 1526197740 903448626 1491041234 1143542560 -1546044464 -1464052416 -1406322978 -306560445 112423215
REM
CELL 1.54180   50.00000   50.00000   50.00000   90.00000   90.00000   90.00000
LATT -1
SFAC C  
C      1  0.5257090000000  0.4951900000000  0.4611480000000 1.0
C      1  0.4552710000000  0.5151340000000  0.4717950000000 1.0
C      1  0.5342920000000  0.4791140000000  0.5306430000000 1.0
C      1  0.4863430000000  0.4995940000000  0.5366760000000 1.0
C      1  0.5420520000000  0.5164620000000  0.4730970000000 1.0
C      1  0.4719950000000  0.4946740000000  0.4588000000000 1.0
C      1  0.5148790000000  0.5004100000000  0.5381500000000 1.0
C      1  0.4679330000000  0.4776160000000  0.5289530000000 1.0
C      1  0.4839620000000  0.5874080000000  0.4982150000000 1.0
C      1  0.5131570000000  0.4331310000000  0.4900780000000 1.0
C      1  0.4837430000000  0.5655540000000  0.5180250000000 1.0
C      1  0.5120000000000  0.4343880000000  0.5201980000000 1.0
C      1  0.4895550000000  0.4328110000000  0.4769980000000 1.0
C      1  0.5116550000000  0.5879470000000  0.4982020000000 1.0
C      1  0.4879780000000  0.4329130000000  0.5318020000000 1.0
C      1  0.5130140000000  0.5664450000000  0.5184160000000 1.0
C      1  0.4670350000000  0.5192660000000  0.5263160000000 1.0
C      1  0.5510220000000  0.4998740000000  0.5177650000000 1.0
C      1  0.4438740000000  0.4946640000000  0.4893370000000 1.0
C      1  0.5410560000000  0.4747190000000  0.4761670000000 1.0
C      1  0.4499410000000  0.4971730000000  0.5170090000000 1.0
C      1  0.5328940000000  0.5210330000000  0.5269570000000 1.0
C      1  0.4598320000000  0.4735280000000  0.4753350000000 1.0
C      1  0.5562110000000  0.4973900000000  0.4899260000000 1.0
C      1  0.4705470000000  0.5422600000000  0.5102470000000 1.0
C      1  0.5343590000000  0.4532320000000  0.5203000000000 1.0
C      1  0.4725020000000  0.5359570000000  0.4821130000000 1.0
C      1  0.5363420000000  0.4512090000000  0.4903110000000 1.0
C      1  0.4711710000000  0.4518040000000  0.5184230000000 1.0
C      1  0.5274710000000  0.5437580000000  0.5107170000000 1.0
C      1  0.4698680000000  0.4501560000000  0.4885520000000 1.0
C      1  0.5246200000000  0.5371690000000  0.4827430000000 1.0
C      1  0.4986890000000  0.5320790000000  0.4712980000000 1.0
C      1  0.4990280000000  0.5059380000000  0.4575920000000 1.0
END
