TITL C-131472-8465-1 94.98797837732 125000 -798.280092871909 0 0 117 (C4) n - 1
REM
REM in /rds/project/t2_vol4/rds-t2-cs072/BORA/CARBON/from-Arr/AIRSS/Generating-Clusters/GAP-ML-2020/Higher-Symm/SD-CG/HFTN-CG
REM
REM
REM
REM
REM
REM ./C.cell (b20cbc046b6831c77cfcea5457e17084)
REM AIRSS Version 0.9.1 bugfix July 2018 build 013d7b7c2542+ Fri, 06 Jul 2018 19:26:36 +0100
REM compiler GCC version 9.3.0
REM options -cpp -mtune=generic -march=x86-64 -g -O0
REM seed 1885799922 -1305813573 277092186 2110087263 -1453512918 105747449 -367599942 1510322042 1772210179 1255106534 -1295755481 -1857659101 1898438645 914302379 -291002838 2106172442 -1575783415 -895870591 -2051066572 1565280433 910725547 2065465420 -203712111 -479076943 1154429864 -429454807 -1542638944 1367223468 1289182262 1364712269 1825167412 -893233106 1553989684
REM
CELL 1.54180   50.00000   50.00000   50.00000   90.00000   90.00000   90.00000
LATT -1
SFAC C  
C      1  0.4869290000000  0.4187880000000  0.4723960000000 1.0
C      1  0.5811340000000  0.4864790000000  0.4723800000000 1.0
C      1  0.5134430000000  0.5806830000000  0.4723800000000 1.0
C      1  0.4192390000000  0.5129930000000  0.4723960000000 1.0
C      1  0.4877480000000  0.4193180000000  0.5271310000000 1.0
C      1  0.5806140000000  0.4872970000000  0.5271150000000 1.0
C      1  0.5126360000000  0.5801620000000  0.5271150000000 1.0
C      1  0.4197700000000  0.5121840000000  0.5271310000000 1.0
C      1  0.4196460000000  0.5587500000000  0.5145210000000 1.0
C      1  0.4411800000000  0.4191940000000  0.5145300000000 1.0
C      1  0.5807360000000  0.4407280000000  0.5145130000000 1.0
C      1  0.5592020000000  0.5802840000000  0.5145040000000 1.0
C      1  0.4193820000000  0.5590470000000  0.4858370000000 1.0
C      1  0.4408780000000  0.4189310000000  0.4858470000000 1.0
C      1  0.5809930000000  0.4404270000000  0.4858290000000 1.0
C      1  0.5594970000000  0.5805430000000  0.4858200000000 1.0
C      1  0.4636580000000  0.4907390000000  0.4695350000000 1.0
C      1  0.5091830000000  0.4632080000000  0.4695320000000 1.0
C      1  0.5367130000000  0.5087320000000  0.4695250000000 1.0
C      1  0.4911890000000  0.5362630000000  0.4695280000000 1.0
C      1  0.4683670000000  0.4916640000000  0.5281050000000 1.0
C      1  0.5082680000000  0.4679150000000  0.5281030000000 1.0
C      1  0.5320170000000  0.5078160000000  0.5280970000000 1.0
C      1  0.4921160000000  0.5315650000000  0.5280990000000 1.0
C      1  0.5040030000000  0.4565600000000  0.5760420000000 1.0
C      1  0.5433810000000  0.5035500000000  0.5760340000000 1.0
C      1  0.4963920000000  0.5429280000000  0.5760360000000 1.0
C      1  0.4570130000000  0.4959380000000  0.5760440000000 1.0
C      1  0.5041580000000  0.4569120000000  0.4238660000000 1.0
C      1  0.5430010000000  0.5037090000000  0.4238580000000 1.0
C      1  0.4962040000000  0.5425520000000  0.4238600000000 1.0
C      1  0.4573610000000  0.4957550000000  0.4238680000000 1.0
C      1  0.5645510000000  0.5530640000000  0.4782050000000 1.0
C      1  0.4468600000000  0.5641010000000  0.4782170000000 1.0
C      1  0.4358220000000  0.4464090000000  0.4782280000000 1.0
C      1  0.5535140000000  0.4353720000000  0.4782150000000 1.0
C      1  0.5635690000000  0.5524930000000  0.5216870000000 1.0
C      1  0.4474380000000  0.5631180000000  0.5216990000000 1.0
C      1  0.4368140000000  0.4469870000000  0.5217090000000 1.0
C      1  0.5529440000000  0.4363620000000  0.5216970000000 1.0
C      1  0.5185750000000  0.5597980000000  0.5695280000000 1.0
C      1  0.4401430000000  0.5181220000000  0.5695400000000 1.0
C      1  0.4818180000000  0.4396900000000  0.5695420000000 1.0
C      1  0.5602510000000  0.4813650000000  0.5695300000000 1.0
C      1  0.5184030000000  0.5594620000000  0.4305280000000 1.0
C      1  0.4404520000000  0.5179540000000  0.4305400000000 1.0
C      1  0.4819600000000  0.4400030000000  0.4305420000000 1.0
C      1  0.5599110000000  0.4815110000000  0.4305300000000 1.0
C      1  0.5291400000000  0.4419310000000  0.4276980000000 1.0
C      1  0.5579820000000  0.5286910000000  0.4276880000000 1.0
C      1  0.4712220000000  0.5575330000000  0.4276950000000 1.0
C      1  0.4423800000000  0.4707730000000  0.4277050000000 1.0
C      1  0.5291870000000  0.4419390000000  0.5719000000000 1.0
C      1  0.5580020000000  0.5287340000000  0.5718900000000 1.0
C      1  0.4712070000000  0.5575490000000  0.5718970000000 1.0
C      1  0.4423920000000  0.4707540000000  0.5719070000000 1.0
C      1  0.4944950000000  0.4176940000000  0.4450340000000 1.0
C      1  0.5822220000000  0.4940460000000  0.4450180000000 1.0
C      1  0.5058710000000  0.5817730000000  0.4450200000000 1.0
C      1  0.4181440000000  0.5054210000000  0.4450350000000 1.0
C      1  0.4946570000000  0.4176130000000  0.5547410000000 1.0
C      1  0.5823240000000  0.4942040000000  0.5547250000000 1.0
C      1  0.5057330000000  0.5818720000000  0.5547270000000 1.0
C      1  0.4180660000000  0.5052810000000  0.5547430000000 1.0
C      1  0.5329540000000  0.5943220000000  0.5146230000000 1.0
C      1  0.4056080000000  0.5325030000000  0.5146420000000 1.0
C      1  0.4674270000000  0.4051560000000  0.5146460000000 1.0
C      1  0.5947740000000  0.4669750000000  0.5146270000000 1.0
C      1  0.5333290000000  0.5947630000000  0.4853340000000 1.0
C      1  0.4051610000000  0.5328790000000  0.4853530000000 1.0
C      1  0.4670460000000  0.4047100000000  0.4853570000000 1.0
C      1  0.5952140000000  0.4665950000000  0.4853380000000 1.0
C      1  0.5516350000000  0.4875820000000  0.5158430000000 1.0
C      1  0.5123480000000  0.5511830000000  0.5158420000000 1.0
C      1  0.4487470000000  0.5118960000000  0.5158520000000 1.0
C      1  0.4880340000000  0.4482960000000  0.5158530000000 1.0
C      1  0.5518040000000  0.4872210000000  0.4838420000000 1.0
C      1  0.5127030000000  0.5513540000000  0.4838410000000 1.0
C      1  0.4485700000000  0.5122530000000  0.4838510000000 1.0
C      1  0.4876710000000  0.4481200000000  0.4838520000000 1.0
C      1  0.5416450000000  0.5478110000000  0.5586870000000 1.0
C      1  0.4521270000000  0.5411920000000  0.5586980000000 1.0
C      1  0.4587460000000  0.4516750000000  0.5587040000000 1.0
C      1  0.5482640000000  0.4582940000000  0.5586940000000 1.0
C      1  0.5420200000000  0.5481970000000  0.4407410000000 1.0
C      1  0.4517190000000  0.5415710000000  0.4407520000000 1.0
C      1  0.4583450000000  0.4512690000000  0.4407580000000 1.0
C      1  0.5486460000000  0.4578960000000  0.4407480000000 1.0
C      1  0.5833820000000  0.5201890000000  0.5658730000000 1.0
C      1  0.4797500000000  0.5829300000000  0.5658790000000 1.0
C      1  0.4170100000000  0.4792980000000  0.5658940000000 1.0
C      1  0.5206420000000  0.4165570000000  0.5658880000000 1.0
C      1  0.5831830000000  0.5199100000000  0.4338190000000 1.0
C      1  0.4800050000000  0.5827330000000  0.4338250000000 1.0
C      1  0.4171810000000  0.4795550000000  0.4338400000000 1.0
C      1  0.5203590000000  0.4167320000000  0.4338340000000 1.0
C      1  0.5032930000000  0.4786610000000  0.4439390000000 1.0
C      1  0.5212550000000  0.5028440000000  0.4439350000000 1.0
C      1  0.4970730000000  0.5208050000000  0.4439360000000 1.0
C      1  0.4791110000000  0.4966230000000  0.4439400000000 1.0
C      1  0.5029480000000  0.4787980000000  0.5576240000000 1.0
C      1  0.5211410000000  0.5024960000000  0.5576200000000 1.0
C      1  0.4974420000000  0.5206880000000  0.5576210000000 1.0
C      1  0.4792500000000  0.4969900000000  0.5576250000000 1.0
C      1  0.5386330000000  0.4620100000000  0.5297040000000 1.0
C      1  0.5379230000000  0.5381810000000  0.5296980000000 1.0
C      1  0.4617520000000  0.5374710000000  0.5297060000000 1.0
C      1  0.4624620000000  0.4613000000000  0.5297120000000 1.0
C      1  0.5390010000000  0.4606370000000  0.4701080000000 1.0
C      1  0.5392840000000  0.5385510000000  0.4701020000000 1.0
C      1  0.4613700000000  0.5388340000000  0.4701100000000 1.0
C      1  0.4610880000000  0.4609200000000  0.4701160000000 1.0
C      1  0.4529900000000  0.5807350000000  0.5002690000000 1.0
C      1  0.4191920000000  0.4525380000000  0.5002830000000 1.0
C      1  0.5473890000000  0.4187410000000  0.5002720000000 1.0
C      1  0.5811860000000  0.5469380000000  0.5002580000000 1.0
C      1  0.5001910000000  0.4997390000000  0.5162690000000 1.0
END
