TITL C-131482-8539-4 -3.55612927529907 125000 -503.710386275249 0 0 72 (C1) n - 1
REM
REM in /rds/project/t2_vol4/rds-t2-cs072/BORA/CARBON/from-Arr/AIRSS/Generating-Clusters/GAP-ML-2020/Higher-Symm/SD-CG/HFTN-CG
REM
REM
REM
REM
REM
REM ./C.cell (b20cbc046b6831c77cfcea5457e17084)
REM AIRSS Version 0.9.1 bugfix July 2018 build 013d7b7c2542+ Fri, 06 Jul 2018 19:26:36 +0100
REM compiler GCC version 9.3.0
REM options -cpp -mtune=generic -march=x86-64 -g -O0
REM seed -2005962462 1145549827 -353912852 46227270 -1470775730 -466929260 1704090435 2120563921 -241922613 1705156313 1712138335 458129898 442169266 -1325930538 183858814 -951985982 721720613 -930286892 1935933534 2145841093 317516950 1657691844 -311973460 560124803 -632275071 773808352 -671419821 -811934360 1650951957 1132839001 -377930808 -500313566 368779932
REM
CELL 1.54180   50.00000   50.00000   50.00000   90.00000   90.00000   90.00000
LATT -1
SFAC C  
C      1  0.5506060000000  0.5242480000000  0.5200360000000 1.0
C      1  0.5371430000000  0.5243780000000  0.4550910000000 1.0
C      1  0.4682040000000  0.5271980000000  0.4547110000000 1.0
C      1  0.4408190000000  0.5236640000000  0.5152540000000 1.0
C      1  0.4975540000000  0.5262630000000  0.5512860000000 1.0
C      1  0.4525020000000  0.4415180000000  0.5141940000000 1.0
C      1  0.4971580000000  0.4412700000000  0.5508930000000 1.0
C      1  0.5466020000000  0.4400450000000  0.5199440000000 1.0
C      1  0.5303010000000  0.4418900000000  0.4640210000000 1.0
C      1  0.4738110000000  0.4440030000000  0.4613610000000 1.0
C      1  0.5615950000000  0.5661560000000  0.4995370000000 1.0
C      1  0.5142150000000  0.5666890000000  0.4413010000000 1.0
C      1  0.4427490000000  0.5679420000000  0.4634260000000 1.0
C      1  0.4522910000000  0.5684200000000  0.5390260000000 1.0
C      1  0.5236570000000  0.5668310000000  0.5624130000000 1.0
C      1  0.5231690000000  0.4264210000000  0.5113810000000 1.0
C      1  0.5152730000000  0.4282710000000  0.4836460000000 1.0
C      1  0.4867040000000  0.4290480000000  0.4818940000000 1.0
C      1  0.4760620000000  0.4272230000000  0.5085250000000 1.0
C      1  0.4986120000000  0.4261360000000  0.5269140000000 1.0
C      1  0.5144860000000  0.5448690000000  0.4826520000000 1.0
C      1  0.4857680000000  0.5322290000000  0.4800100000000 1.0
C      1  0.4782660000000  0.5472920000000  0.5044830000000 1.0
C      1  0.5013630000000  0.5369020000000  0.5225600000000 1.0
C      1  0.5232550000000  0.5259010000000  0.5045510000000 1.0
C      1  0.5662070000000  0.5062980000000  0.5004630000000 1.0
C      1  0.5163270000000  0.5063620000000  0.4441310000000 1.0
C      1  0.4444480000000  0.5084820000000  0.4644630000000 1.0
C      1  0.4484690000000  0.5075420000000  0.5383630000000 1.0
C      1  0.5213660000000  0.5074510000000  0.5588980000000 1.0
C      1  0.5463040000000  0.5065140000000  0.5445950000000 1.0
C      1  0.5527930000000  0.5055720000000  0.4730740000000 1.0
C      1  0.4864200000000  0.5086910000000  0.4369600000000 1.0
C      1  0.4333240000000  0.5070760000000  0.4925800000000 1.0
C      1  0.4726400000000  0.5081440000000  0.5549700000000 1.0
C      1  0.4972890000000  0.5555740000000  0.5626210000000 1.0
C      1  0.5568580000000  0.5537900000000  0.5248850000000 1.0
C      1  0.5338620000000  0.5532950000000  0.4593700000000 1.0
C      1  0.4634720000000  0.5560300000000  0.4473470000000 1.0
C      1  0.4493670000000  0.5525890000000  0.5125440000000 1.0
C      1  0.4777930000000  0.4856530000000  0.5048710000000 1.0
C      1  0.4976900000000  0.4736820000000  0.5172080000000 1.0
C      1  0.5258820000000  0.4985080000000  0.4907010000000 1.0
C      1  0.5072960000000  0.4928880000000  0.4704050000000 1.0
C      1  0.4853700000000  0.5021240000000  0.4844760000000 1.0
C      1  0.4742310000000  0.4831050000000  0.4358970000000 1.0
C      1  0.4295200000000  0.4813160000000  0.5045430000000 1.0
C      1  0.4819610000000  0.4831330000000  0.5649510000000 1.0
C      1  0.5586650000000  0.4811100000000  0.5395650000000 1.0
C      1  0.5535750000000  0.4808520000000  0.4576780000000 1.0
C      1  0.5555790000000  0.5666870000000  0.4750210000000 1.0
C      1  0.4891230000000  0.5660360000000  0.4409010000000 1.0
C      1  0.4368140000000  0.5655330000000  0.4879480000000 1.0
C      1  0.4729940000000  0.5663060000000  0.5534850000000 1.0
C      1  0.5449990000000  0.5645930000000  0.5484550000000 1.0
C      1  0.5449180000000  0.4559100000000  0.5444320000000 1.0
C      1  0.5534070000000  0.4566950000000  0.4730500000000 1.0
C      1  0.4886170000000  0.4584530000000  0.4413880000000 1.0
C      1  0.4390180000000  0.4567860000000  0.4933850000000 1.0
C      1  0.4733590000000  0.4574110000000  0.5557190000000 1.0
C      1  0.4376120000000  0.4815550000000  0.5322790000000 1.0
C      1  0.5105350000000  0.4826160000000  0.5668760000000 1.0
C      1  0.5698990000000  0.4809690000000  0.5126620000000 1.0
C      1  0.5313960000000  0.4811960000000  0.4396630000000 1.0
C      1  0.4495430000000  0.4829630000000  0.4520540000000 1.0
C      1  0.4514870000000  0.4572940000000  0.5381640000000 1.0
C      1  0.5202990000000  0.4571180000000  0.5582710000000 1.0
C      1  0.5616750000000  0.4559820000000  0.5002930000000 1.0
C      1  0.5172440000000  0.4565580000000  0.4420730000000 1.0
C      1  0.4496770000000  0.4584040000000  0.4673190000000 1.0
C      1  0.5225940000000  0.4790470000000  0.5103230000000 1.0
C      1  0.5024010000000  0.5619030000000  0.5052460000000 1.0
END
