TITL C-132766-1241-1 0.0283736040373187 125000 -537.533522704166 0 0 76 (C1) n - 1
REM
REM in /rds/project/t2_vol4/rds-t2-cs072/BORA/CARBON/from-Arr/AIRSS/Generating-Clusters/GAP-ML-2020/Higher-Symm/SD-CG/HFTN-CG
REM
REM
REM
REM
REM
REM ./C.cell (b20cbc046b6831c77cfcea5457e17084)
REM AIRSS Version 0.9.1 bugfix July 2018 build 013d7b7c2542+ Fri, 06 Jul 2018 19:26:36 +0100
REM compiler GCC version 9.3.0
REM options -cpp -mtune=generic -march=x86-64 -g -O0
REM seed 1542180930 1904444761 910622942 876258542 -142940949 -1216697406 -907615651 -1690591508 -1886378351 402817671 -1652926445 998265778 -662122577 -982274190 -1512801425 347047448 1933581042 1383196229 -1463236711 -911622123 668221552 704225547 994210891 739740408 -1247257421 329883046 1793169697 1306535364 -579631047 1416122585 1467236173 -367015072 1131895793
REM
CELL 1.54180   50.00000   50.00000   50.00000   90.00000   90.00000   90.00000
LATT -1
SFAC C  
C      1  0.5486090000000  0.4628620000000  0.5340260000000 1.0
C      1  0.4806160000000  0.4443770000000  0.5329080000000 1.0
C      1  0.4398430000000  0.5015180000000  0.5338750000000 1.0
C      1  0.4837940000000  0.5562140000000  0.5330680000000 1.0
C      1  0.5504160000000  0.5336730000000  0.5339870000000 1.0
C      1  0.5262490000000  0.5055480000000  0.5687060000000 1.0
C      1  0.5141250000000  0.4771570000000  0.5685830000000 1.0
C      1  0.4832110000000  0.4799810000000  0.5685040000000 1.0
C      1  0.4762450000000  0.5100570000000  0.5685290000000 1.0
C      1  0.5028910000000  0.5258740000000  0.5686500000000 1.0
C      1  0.4936760000000  0.5649330000000  0.5073720000000 1.0
C      1  0.5621050000000  0.5269640000000  0.5082200000000 1.0
C      1  0.5455850000000  0.4496110000000  0.5082710000000 1.0
C      1  0.4672970000000  0.4431690000000  0.5072290000000 1.0
C      1  0.4344310000000  0.5138740000000  0.5080360000000 1.0
C      1  0.4558710000000  0.5190160000000  0.5497490000000 1.0
C      1  0.5054480000000  0.5476520000000  0.5496950000000 1.0
C      1  0.5481170000000  0.5100970000000  0.5499910000000 1.0
C      1  0.5252700000000  0.4580270000000  0.5497710000000 1.0
C      1  0.4681900000000  0.4638790000000  0.5496250000000 1.0
C      1  0.4362220000000  0.5523690000000  0.4642600000000 1.0
C      1  0.5300600000000  0.5763850000000  0.4647090000000 1.0
C      1  0.5829460000000  0.4946300000000  0.4647560000000 1.0
C      1  0.5208590000000  0.4194160000000  0.4643320000000 1.0
C      1  0.4309550000000  0.4553550000000  0.4645280000000 1.0
C      1  0.4836890000000  0.4454410000000  0.4826820000000 1.0
C      1  0.4418270000000  0.4987270000000  0.4838010000000 1.0
C      1  0.4813430000000  0.5533770000000  0.4828000000000 1.0
C      1  0.5460050000000  0.5342500000000  0.4841540000000 1.0
C      1  0.5477150000000  0.4666360000000  0.4842750000000 1.0
C      1  0.5158340000000  0.5607000000000  0.4470710000000 1.0
C      1  0.5628310000000  0.5036360000000  0.4482700000000 1.0
C      1  0.5227200000000  0.4418020000000  0.4483560000000 1.0
C      1  0.4514900000000  0.4594000000000  0.4467710000000 1.0
C      1  0.4475410000000  0.5333340000000  0.4478800000000 1.0
C      1  0.5710310000000  0.4843380000000  0.4868420000000 1.0
C      1  0.5077580000000  0.4286160000000  0.4862020000000 1.0
C      1  0.4337910000000  0.4708690000000  0.4865680000000 1.0
C      1  0.4520740000000  0.5532830000000  0.4862270000000 1.0
C      1  0.5368160000000  0.5621460000000  0.4867350000000 1.0
C      1  0.5150810000000  0.5188860000000  0.4231920000000 1.0
C      1  0.5227990000000  0.4913780000000  0.4236160000000 1.0
C      1  0.4992080000000  0.4751850000000  0.4222820000000 1.0
C      1  0.4766520000000  0.4930490000000  0.4224280000000 1.0
C      1  0.4864120000000  0.5200260000000  0.4222680000000 1.0
C      1  0.4442350000000  0.4595940000000  0.5103770000000 1.0
C      1  0.4440630000000  0.5405900000000  0.5103530000000 1.0
C      1  0.5220270000000  0.5655070000000  0.5106300000000 1.0
C      1  0.5702170000000  0.4996520000000  0.5107580000000 1.0
C      1  0.5218240000000  0.4337650000000  0.5103220000000 1.0
C      1  0.5026250000000  0.5248360000000  0.5994890000000 1.0
C      1  0.5250580000000  0.5053570000000  0.5995500000000 1.0
C      1  0.5133870000000  0.4779940000000  0.5994590000000 1.0
C      1  0.4838510000000  0.4806370000000  0.5993360000000 1.0
C      1  0.4771650000000  0.5095750000000  0.5993760000000 1.0
C      1  0.4775240000000  0.4987570000000  0.4888290000000 1.0
C      1  0.4908890000000  0.5231610000000  0.4789110000000 1.0
C      1  0.5177010000000  0.5154470000000  0.4882040000000 1.0
C      1  0.5189070000000  0.4856920000000  0.4884350000000 1.0
C      1  0.4931240000000  0.4756460000000  0.4787440000000 1.0
C      1  0.5456000000000  0.4828730000000  0.4380340000000 1.0
C      1  0.4981120000000  0.4508110000000  0.4364060000000 1.0
C      1  0.4531300000000  0.4866000000000  0.4370180000000 1.0
C      1  0.4729180000000  0.5404540000000  0.4362600000000 1.0
C      1  0.5305370000000  0.5379520000000  0.4372490000000 1.0
C      1  0.5505650000000  0.5282190000000  0.4550660000000 1.0
C      1  0.5425500000000  0.4606120000000  0.4552770000000 1.0
C      1  0.4757360000000  0.4466700000000  0.4534690000000 1.0
C      1  0.4427070000000  0.5063600000000  0.4547470000000 1.0
C      1  0.4887030000000  0.5566680000000  0.4535470000000 1.0
C      1  0.4589230000000  0.5430170000000  0.5344550000000 1.0
C      1  0.5295000000000  0.5526740000000  0.5349530000000 1.0
C      1  0.5600850000000  0.4887180000000  0.5349900000000 1.0
C      1  0.5084920000000  0.4405430000000  0.5343920000000 1.0
C      1  0.4458880000000  0.4740640000000  0.5347670000000 1.0
C      1  0.5017270000000  0.4998380000000  0.5087520000000 1.0
END
