TITL C-132795-1299-2 -0.0942859125799867 125000 -745.867774120234 0 0 111 (C1) n - 1
REM
REM in /rds/project/t2_vol4/rds-t2-cs072/BORA/CARBON/from-Arr/AIRSS/Generating-Clusters/GAP-ML-2020/Higher-Symm/SD-CG/HFTN-CG
REM
REM
REM
REM
REM
REM ./C.cell (b20cbc046b6831c77cfcea5457e17084)
REM AIRSS Version 0.9.1 bugfix July 2018 build 013d7b7c2542+ Fri, 06 Jul 2018 19:26:36 +0100
REM compiler GCC version 9.3.0
REM options -cpp -mtune=generic -march=x86-64 -g -O0
REM seed 1326445817 -874245157 -493471850 551842747 -1864549131 -231196140 -1891423740 1724355148 641761159 -955093882 1834944819 -556108372 -1367316837 1283248032 1387962136 736907316 -1350794252 -356306723 1416781548 -667142211 509260541 -680505483 966173629 -1647309915 702176656 -906509531 -1466411202 906610059 -1100573313 -197681028 -688689745 547615344 -737620076
REM
CELL 1.54180   50.00000   50.00000   50.00000   90.00000   90.00000   90.00000
LATT -1
SFAC C  
C      1  0.5727280000000  0.5070760000000  0.5258210000000 1.0
C      1  0.5660180000000  0.5066650000000  0.4607040000000 1.0
C      1  0.5131040000000  0.5100110000000  0.4208270000000 1.0
C      1  0.4485130000000  0.5057850000000  0.4401700000000 1.0
C      1  0.4218700000000  0.5081790000000  0.5008300000000 1.0
C      1  0.4442070000000  0.5062300000000  0.5649740000000 1.0
C      1  0.5316480000000  0.5094630000000  0.5774780000000 1.0
C      1  0.5600160000000  0.5141940000000  0.4322550000000 1.0
C      1  0.4861420000000  0.5131460000000  0.4076310000000 1.0
C      1  0.4206330000000  0.5115280000000  0.4512560000000 1.0
C      1  0.4159410000000  0.5145610000000  0.5296910000000 1.0
C      1  0.4854470000000  0.5084660000000  0.5876580000000 1.0
C      1  0.5600070000000  0.5144590000000  0.5726100000000 1.0
C      1  0.5910070000000  0.5123230000000  0.5019690000000 1.0
C      1  0.5331790000000  0.4910880000000  0.4942280000000 1.0
C      1  0.5205500000000  0.4958830000000  0.4680800000000 1.0
C      1  0.4921740000000  0.4975850000000  0.4627190000000 1.0
C      1  0.4699980000000  0.4967530000000  0.4831920000000 1.0
C      1  0.4697950000000  0.4839850000000  0.5105840000000 1.0
C      1  0.4823720000000  0.4975590000000  0.5359810000000 1.0
C      1  0.5136140000000  0.4931330000000  0.5339280000000 1.0
C      1  0.4682470000000  0.5591450000000  0.5638660000000 1.0
C      1  0.5294280000000  0.5618920000000  0.5643420000000 1.0
C      1  0.5558380000000  0.5593330000000  0.5170140000000 1.0
C      1  0.5489320000000  0.5601590000000  0.4678950000000 1.0
C      1  0.5051660000000  0.5619430000000  0.4362620000000 1.0
C      1  0.4527010000000  0.5604880000000  0.4500580000000 1.0
C      1  0.4342270000000  0.5620750000000  0.5013260000000 1.0
C      1  0.5481230000000  0.4601710000000  0.5571960000000 1.0
C      1  0.5717430000000  0.4590780000000  0.5044810000000 1.0
C      1  0.5452750000000  0.4626020000000  0.4408660000000 1.0
C      1  0.4885100000000  0.4618730000000  0.4273860000000 1.0
C      1  0.4359070000000  0.4604900000000  0.4683540000000 1.0
C      1  0.4276400000000  0.4607270000000  0.5234280000000 1.0
C      1  0.4801730000000  0.4629480000000  0.5748660000000 1.0
C      1  0.4696830000000  0.4915710000000  0.5680160000000 1.0
C      1  0.5258460000000  0.4806590000000  0.5600100000000 1.0
C      1  0.5581550000000  0.4851340000000  0.5105260000000 1.0
C      1  0.5452350000000  0.4857090000000  0.4593140000000 1.0
C      1  0.4963610000000  0.4894280000000  0.4355140000000 1.0
C      1  0.4530030000000  0.4855130000000  0.4627100000000 1.0
C      1  0.4394020000000  0.4844030000000  0.5105300000000 1.0
C      1  0.4685830000000  0.4231000000000  0.5165980000000 1.0
C      1  0.4862610000000  0.4253920000000  0.5399640000000 1.0
C      1  0.5161130000000  0.4221380000000  0.5364070000000 1.0
C      1  0.5389960000000  0.4191490000000  0.4958150000000 1.0
C      1  0.5247210000000  0.4236270000000  0.4717760000000 1.0
C      1  0.4949880000000  0.4232530000000  0.4682070000000 1.0
C      1  0.4731720000000  0.4227350000000  0.4866080000000 1.0
C      1  0.4917500000000  0.5627490000000  0.4123030000000 1.0
C      1  0.4251700000000  0.5616950000000  0.4485510000000 1.0
C      1  0.4231750000000  0.5628480000000  0.5261630000000 1.0
C      1  0.4752140000000  0.5599660000000  0.5907330000000 1.0
C      1  0.5544840000000  0.5650770000000  0.5742590000000 1.0
C      1  0.5808070000000  0.5612620000000  0.5059960000000 1.0
C      1  0.5614080000000  0.5628040000000  0.4437920000000 1.0
C      1  0.4267950000000  0.5392920000000  0.5391860000000 1.0
C      1  0.4899740000000  0.5365610000000  0.5873610000000 1.0
C      1  0.5614910000000  0.5407820000000  0.5613540000000 1.0
C      1  0.5842630000000  0.5379600000000  0.4925600000000 1.0
C      1  0.5498840000000  0.5407040000000  0.4322730000000 1.0
C      1  0.4775340000000  0.5391240000000  0.4142540000000 1.0
C      1  0.4199230000000  0.5381400000000  0.4614940000000 1.0
C      1  0.5472970000000  0.4727360000000  0.4155530000000 1.0
C      1  0.4671320000000  0.4679620000000  0.4115000000000 1.0
C      1  0.4100180000000  0.4698110000000  0.4700590000000 1.0
C      1  0.4156180000000  0.4691120000000  0.5464640000000 1.0
C      1  0.5070260000000  0.4701690000000  0.5808620000000 1.0
C      1  0.5731750000000  0.4706400000000  0.5618050000000 1.0
C      1  0.5893040000000  0.4683470000000  0.4856810000000 1.0
C      1  0.4652050000000  0.5271630000000  0.4871480000000 1.0
C      1  0.4782740000000  0.5260700000000  0.5353760000000 1.0
C      1  0.5062910000000  0.5371030000000  0.5405190000000 1.0
C      1  0.5261050000000  0.5214370000000  0.5256720000000 1.0
C      1  0.5315790000000  0.5222090000000  0.4944130000000 1.0
C      1  0.5146370000000  0.5262300000000  0.4675270000000 1.0
C      1  0.4842520000000  0.5276420000000  0.4641770000000 1.0
C      1  0.5409250000000  0.4994120000000  0.4153090000000 1.0
C      1  0.4634510000000  0.4955350000000  0.4154390000000 1.0
C      1  0.4092980000000  0.4969250000000  0.4743520000000 1.0
C      1  0.4210630000000  0.4960390000000  0.5515480000000 1.0
C      1  0.5100470000000  0.4956030000000  0.5927080000000 1.0
C      1  0.5759550000000  0.4971540000000  0.5549900000000 1.0
C      1  0.5886140000000  0.4950750000000  0.4786500000000 1.0
C      1  0.5133510000000  0.5667410000000  0.5373420000000 1.0
C      1  0.5295760000000  0.5696550000000  0.5097490000000 1.0
C      1  0.5235900000000  0.5705580000000  0.4806860000000 1.0
C      1  0.4989660000000  0.5731910000000  0.4631290000000 1.0
C      1  0.4698590000000  0.5749230000000  0.4687180000000 1.0
C      1  0.4576350000000  0.5775030000000  0.4941040000000 1.0
C      1  0.4842080000000  0.5727220000000  0.5412760000000 1.0
C      1  0.5208930000000  0.5354890000000  0.4383700000000 1.0
C      1  0.4654330000000  0.5337670000000  0.4411330000000 1.0
C      1  0.4344010000000  0.5339080000000  0.4877330000000 1.0
C      1  0.4520900000000  0.5334630000000  0.5534670000000 1.0
C      1  0.5148620000000  0.5354400000000  0.5706020000000 1.0
C      1  0.5543540000000  0.5320740000000  0.5327250000000 1.0
C      1  0.5573280000000  0.5313930000000  0.4796040000000 1.0
C      1  0.5278400000000  0.4415650000000  0.4490010000000 1.0
C      1  0.4991810000000  0.4410450000000  0.4442440000000 1.0
C      1  0.4479240000000  0.4387610000000  0.4839360000000 1.0
C      1  0.4426970000000  0.4369570000000  0.5120640000000 1.0
C      1  0.4766740000000  0.4399800000000  0.5611270000000 1.0
C      1  0.5407170000000  0.4386180000000  0.5383730000000 1.0
C      1  0.5544110000000  0.4366460000000  0.5124520000000 1.0
C      1  0.4753960000000  0.5395130000000  0.5108920000000 1.0
C      1  0.5061560000000  0.3832140000000  0.5114150000000 1.0
C      1  0.5147690000000  0.4754520000000  0.5102120000000 1.0
C      1  0.4904640000000  0.4656750000000  0.5030010000000 1.0
C      1  0.4728930000000  0.5679910000000  0.5157830000000 1.0
C      1  0.5213330000000  0.4047820000000  0.5142820000000 1.0
END
