TITL C-133526-5289-6 -0.0262253693498623 125000 -702.600088546216 0 0 103 (Cs) n - 1
REM
REM in /rds/project/t2_vol4/rds-t2-cs072/BORA/CARBON/from-Arr/AIRSS/Generating-Clusters/GAP-ML-2020/Higher-Symm/SD-CG/HFTN-CG
REM
REM
REM
REM
REM
REM ./C.cell (b20cbc046b6831c77cfcea5457e17084)
REM AIRSS Version 0.9.1 bugfix July 2018 build 013d7b7c2542+ Fri, 06 Jul 2018 19:26:36 +0100
REM compiler GCC version 9.3.0
REM options -cpp -mtune=generic -march=x86-64 -g -O0
REM seed -913841208 -296005980 -506809365 379807305 1288489061 1162863385 1825808314 -219556338 -868756716 -1750193612 832107322 1642760683 -1662658033 687157857 977810610 944265139 1463831584 407069686 -1298216143 1434808619 -1961069006 -2118154545 -1317684092 737065208 -243064924 -838631988 1902072153 -198323693 -1678724473 1829049446 615026113 1369370092 -686968480
REM
CELL 1.54180   50.00000   50.00000   50.00000   90.00000   90.00000   90.00000
LATT -1
SFAC C  
C      1  0.4475290000000  0.4493190000000  0.4729680000000 1.0
C      1  0.5733700000000  0.4779560000000  0.4726220000000 1.0
C      1  0.4819920000000  0.5713580000000  0.4735490000000 1.0
C      1  0.4475380000000  0.4493180000000  0.5270110000000 1.0
C      1  0.5733790000000  0.4779540000000  0.5273160000000 1.0
C      1  0.4820010000000  0.5713570000000  0.5264250000000 1.0
C      1  0.4735260000000  0.4413520000000  0.5680740000000 1.0
C      1  0.5661950000000  0.5053270000000  0.5677810000000 1.0
C      1  0.4619190000000  0.5525680000000  0.5672770000000 1.0
C      1  0.4735020000000  0.4413550000000  0.4318960000000 1.0
C      1  0.5661720000000  0.5053300000000  0.4321610000000 1.0
C      1  0.4618960000000  0.5525710000000  0.4327030000000 1.0
C      1  0.4782750000000  0.5710530000000  0.4456170000000 1.0
C      1  0.4491010000000  0.4468400000000  0.4450330000000 1.0
C      1  0.5734660000000  0.4811710000000  0.4446990000000 1.0
C      1  0.4782940000000  0.5710500000000  0.5543580000000 1.0
C      1  0.4491200000000  0.4468370000000  0.5549460000000 1.0
C      1  0.5734850000000  0.4811680000000  0.5552390000000 1.0
C      1  0.5550940000000  0.4805300000000  0.4237050000000 1.0
C      1  0.4891640000000  0.5556770000000  0.4251570000000 1.0
C      1  0.4570630000000  0.4630220000000  0.4238310000000 1.0
C      1  0.5551200000000  0.4805260000000  0.5762380000000 1.0
C      1  0.4891900000000  0.5556730000000  0.5748130000000 1.0
C      1  0.4570890000000  0.4630180000000  0.5761460000000 1.0
C      1  0.5124000000000  0.5363160000000  0.4257950000000 1.0
C      1  0.4625200000000  0.4926840000000  0.4241820000000 1.0
C      1  0.5265140000000  0.4710700000000  0.4238830000000 1.0
C      1  0.5124250000000  0.5363120000000  0.5741660000000 1.0
C      1  0.4625460000000  0.4926810000000  0.5757940000000 1.0
C      1  0.5265400000000  0.4710660000000  0.5760700000000 1.0
C      1  0.4744870000000  0.4459180000000  0.5148910000000 1.0
C      1  0.5648330000000  0.5031120000000  0.5148270000000 1.0
C      1  0.4627280000000  0.5515350000000  0.5149760000000 1.0
C      1  0.4744820000000  0.4459190000000  0.4850790000000 1.0
C      1  0.5648270000000  0.5031130000000  0.4851140000000 1.0
C      1  0.4627230000000  0.5515350000000  0.4850030000000 1.0
C      1  0.5072010000000  0.5148740000000  0.5952410000000 1.0
C      1  0.4847190000000  0.4992220000000  0.5955730000000 1.0
C      1  0.5097510000000  0.4874000000000  0.5956380000000 1.0
C      1  0.5071680000000  0.5148790000000  0.4047210000000 1.0
C      1  0.4846850000000  0.4992270000000  0.4043960000000 1.0
C      1  0.5097180000000  0.4874040000000  0.4043220000000 1.0
C      1  0.5324690000000  0.5004460000000  0.4848790000000 1.0
C      1  0.4764460000000  0.5234220000000  0.4853300000000 1.0
C      1  0.4892270000000  0.4752810000000  0.4852320000000 1.0
C      1  0.5324740000000  0.5004450000000  0.5150740000000 1.0
C      1  0.4764510000000  0.5234210000000  0.5146430000000 1.0
C      1  0.4892320000000  0.4752810000000  0.5147350000000 1.0
C      1  0.4407380000000  0.5083020000000  0.4416990000000 1.0
C      1  0.5230280000000  0.4446860000000  0.4413000000000 1.0
C      1  0.5375880000000  0.5463700000000  0.4419480000000 1.0
C      1  0.4407580000000  0.5082990000000  0.5582860000000 1.0
C      1  0.5230490000000  0.4446830000000  0.5586530000000 1.0
C      1  0.5376090000000  0.5463670000000  0.5580050000000 1.0
C      1  0.4332630000000  0.4705580000000  0.4856850000000 1.0
C      1  0.5600030000000  0.4560690000000  0.4857630000000 1.0
C      1  0.5080700000000  0.5718050000000  0.4856120000000 1.0
C      1  0.4332680000000  0.4705570000000  0.5143000000000 1.0
C      1  0.5600080000000  0.4560690000000  0.5141780000000 1.0
C      1  0.5080750000000  0.5718040000000  0.5143530000000 1.0
C      1  0.5973620000000  0.5393900000000  0.5125880000000 1.0
C      1  0.4153380000000  0.5630240000000  0.5127130000000 1.0
C      1  0.4867130000000  0.3979540000000  0.5125870000000 1.0
C      1  0.5973580000000  0.5393910000000  0.4873440000000 1.0
C      1  0.4153340000000  0.5630250000000  0.4872830000000 1.0
C      1  0.4867090000000  0.3979550000000  0.4873770000000 1.0
C      1  0.4937920000000  0.4247820000000  0.4734700000000 1.0
C      1  0.5706670000000  0.5310640000000  0.4734230000000 1.0
C      1  0.4353240000000  0.5441390000000  0.4733700000000 1.0
C      1  0.4938010000000  0.4247810000000  0.5264920000000 1.0
C      1  0.5706760000000  0.5310630000000  0.5265180000000 1.0
C      1  0.4353330000000  0.5441380000000  0.5266190000000 1.0
C      1  0.5524230000000  0.5509690000000  0.5137410000000 1.0
C      1  0.4285050000000  0.5176940000000  0.5138930000000 1.0
C      1  0.5200970000000  0.4303740000000  0.5138040000000 1.0
C      1  0.5524180000000  0.5509700000000  0.4862070000000 1.0
C      1  0.4285000000000  0.5176940000000  0.4860970000000 1.0
C      1  0.5200920000000  0.4303740000000  0.4861500000000 1.0
C      1  0.4978200000000  0.4329190000000  0.4448220000000 1.0
C      1  0.5608290000000  0.5306060000000  0.4450560000000 1.0
C      1  0.4418290000000  0.5359900000000  0.4450000000000 1.0
C      1  0.4978390000000  0.4329160000000  0.5551390000000 1.0
C      1  0.5608480000000  0.5306040000000  0.5548880000000 1.0
C      1  0.4418480000000  0.5359870000000  0.5549860000000 1.0
C      1  0.4392750000000  0.4962080000000  0.5292600000000 1.0
C      1  0.5338180000000  0.4497240000000  0.5291100000000 1.0
C      1  0.5288140000000  0.5532020000000  0.5290340000000 1.0
C      1  0.4392650000000  0.4962090000000  0.4707250000000 1.0
C      1  0.5338080000000  0.4497250000000  0.4708400000000 1.0
C      1  0.5288040000000  0.5532030000000  0.4709230000000 1.0
C      1  0.5157830000000  0.5240100000000  0.5252140000000 1.0
C      1  0.4717270000000  0.4968320000000  0.5273320000000 1.0
C      1  0.5176400000000  0.4772270000000  0.5269600000000 1.0
C      1  0.5157740000000  0.5240110000000  0.4747450000000 1.0
C      1  0.4717180000000  0.4968340000000  0.4726420000000 1.0
C      1  0.5176310000000  0.4772280000000  0.4729970000000 1.0
C      1  0.4832750000000  0.4970260000000  0.4459220000000 1.0
C      1  0.5121890000000  0.4866530000000  0.4457350000000 1.0
C      1  0.5063070000000  0.5158710000000  0.4474290000000 1.0
C      1  0.4832930000000  0.4970240000000  0.5540470000000 1.0
C      1  0.5122070000000  0.4866510000000  0.5542230000000 1.0
C      1  0.5063260000000  0.5158680000000  0.5525330000000 1.0
C      1  0.5012210000000  0.5245910000000  0.4999820000000 1.0
END
