TITL C-132793-1230-11 -13.1748907728189 125000 -710.774972044433 0 0 104 (C1) n - 1
REM
REM in /rds/project/t2_vol4/rds-t2-cs072/BORA/CARBON/from-Arr/AIRSS/Generating-Clusters/GAP-ML-2020/Higher-Symm/SD-CG/HFTN-CG
REM
REM
REM
REM
REM
REM ./C.cell (b20cbc046b6831c77cfcea5457e17084)
REM AIRSS Version 0.9.1 bugfix July 2018 build 013d7b7c2542+ Fri, 06 Jul 2018 19:26:36 +0100
REM compiler GCC version 9.3.0
REM options -cpp -mtune=generic -march=x86-64 -g -O0
REM seed 1659074737 320869633 2141431914 1240130550 1009136569 1771873696 301777802 501420102 1159167090 -760100714 1046903978 -445412937 -687013346 1032558982 -1005211921 -114204737 1112693973 1068755891 528068760 1284100189 584137330 -1540633720 1841076304 454342732 -328041667 -1824933314 -726969236 -2113783852 699346631 -1677825307 -45939869 -164120929 -354408832
REM
CELL 1.54180   50.00000   50.00000   50.00000   90.00000   90.00000   90.00000
LATT -1
SFAC C  
C      1  0.5135730000000  0.6037970000000  0.5331170000000 1.0
C      1  0.4641740000000  0.6027020000000  0.5136770000000 1.0
C      1  0.4835470000000  0.6022090000000  0.4642850000000 1.0
C      1  0.5328930000000  0.6034380000000  0.4836180000000 1.0
C      1  0.5133000000000  0.6028130000000  0.4641440000000 1.0
C      1  0.4641560000000  0.6021130000000  0.4838930000000 1.0
C      1  0.4838500000000  0.6032220000000  0.5331720000000 1.0
C      1  0.5330900000000  0.6041920000000  0.5134350000000 1.0
C      1  0.4651270000000  0.5192100000000  0.4863800000000 1.0
C      1  0.5143080000000  0.5273370000000  0.4651790000000 1.0
C      1  0.5344260000000  0.5276940000000  0.5132670000000 1.0
C      1  0.4846330000000  0.5188890000000  0.5346460000000 1.0
C      1  0.4660790000000  0.5281360000000  0.5141270000000 1.0
C      1  0.5166380000000  0.5191270000000  0.5344100000000 1.0
C      1  0.5341930000000  0.5182710000000  0.4849880000000 1.0
C      1  0.4864560000000  0.5191160000000  0.4645600000000 1.0
C      1  0.4663100000000  0.4880910000000  0.4870180000000 1.0
C      1  0.5143880000000  0.4763070000000  0.4678410000000 1.0
C      1  0.5343680000000  0.4760490000000  0.5151990000000 1.0
C      1  0.4860490000000  0.4873070000000  0.5355400000000 1.0
C      1  0.4688620000000  0.4762910000000  0.5142280000000 1.0
C      1  0.5169160000000  0.4877800000000  0.5358610000000 1.0
C      1  0.5346100000000  0.4869260000000  0.4864960000000 1.0
C      1  0.4872340000000  0.4879700000000  0.4657510000000 1.0
C      1  0.5137670000000  0.5813420000000  0.5524620000000 1.0
C      1  0.4448310000000  0.5807590000000  0.5140850000000 1.0
C      1  0.4843220000000  0.5795840000000  0.4452010000000 1.0
C      1  0.5524000000000  0.5809000000000  0.4844720000000 1.0
C      1  0.5135760000000  0.5807610000000  0.4447880000000 1.0
C      1  0.4451320000000  0.5794780000000  0.4847470000000 1.0
C      1  0.4845900000000  0.5807710000000  0.5525510000000 1.0
C      1  0.5529220000000  0.5826040000000  0.5137270000000 1.0
C      1  0.5624790000000  0.4466380000000  0.4778100000000 1.0
C      1  0.5246310000000  0.4465640000000  0.5627300000000 1.0
C      1  0.4370030000000  0.4506860000000  0.5272100000000 1.0
C      1  0.4762070000000  0.4493020000000  0.4370310000000 1.0
C      1  0.5659330000000  0.4485500000000  0.5271640000000 1.0
C      1  0.5276510000000  0.4510250000000  0.4361970000000 1.0
C      1  0.4375240000000  0.4494090000000  0.4755540000000 1.0
C      1  0.4765570000000  0.4465600000000  0.5629070000000 1.0
C      1  0.5539050000000  0.5620280000000  0.5330720000000 1.0
C      1  0.4663800000000  0.5593710000000  0.5530510000000 1.0
C      1  0.4455630000000  0.5577950000000  0.4665030000000 1.0
C      1  0.5326700000000  0.5597700000000  0.4448190000000 1.0
C      1  0.5527130000000  0.5592650000000  0.4662820000000 1.0
C      1  0.4662650000000  0.5578290000000  0.4455410000000 1.0
C      1  0.4448490000000  0.5597670000000  0.5333420000000 1.0
C      1  0.5328790000000  0.5606780000000  0.5529610000000 1.0
C      1  0.5823730000000  0.5211760000000  0.5134520000000 1.0
C      1  0.4858730000000  0.5196320000000  0.5826500000000 1.0
C      1  0.4164080000000  0.5166090000000  0.4849570000000 1.0
C      1  0.5139670000000  0.5175240000000  0.4164410000000 1.0
C      1  0.5825420000000  0.5192580000000  0.4837340000000 1.0
C      1  0.4847200000000  0.5167910000000  0.4159780000000 1.0
C      1  0.4172070000000  0.5172240000000  0.5141980000000 1.0
C      1  0.5159990000000  0.5199180000000  0.5825040000000 1.0
C      1  0.4114220000000  0.4559790000000  0.4868510000000 1.0
C      1  0.5163950000000  0.4575910000000  0.4105670000000 1.0
C      1  0.5912410000000  0.4369710000000  0.5197050000000 1.0
C      1  0.4880480000000  0.4332270000000  0.5869240000000 1.0
C      1  0.4111240000000  0.4577090000000  0.5159080000000 1.0
C      1  0.5141100000000  0.4340630000000  0.5875060000000 1.0
C      1  0.5842620000000  0.4403630000000  0.4944100000000 1.0
C      1  0.4872780000000  0.4556610000000  0.4108960000000 1.0
C      1  0.4674440000000  0.4048020000000  0.4874640000000 1.0
C      1  0.5110510000000  0.3915240000000  0.4691980000000 1.0
C      1  0.5264100000000  0.3904650000000  0.5120850000000 1.0
C      1  0.4844020000000  0.4045350000000  0.5307040000000 1.0
C      1  0.4698690000000  0.3914270000000  0.5111660000000 1.0
C      1  0.5129160000000  0.4042680000000  0.5310710000000 1.0
C      1  0.5289820000000  0.4029120000000  0.4873440000000 1.0
C      1  0.4876340000000  0.4048750000000  0.4671140000000 1.0
C      1  0.4750690000000  0.5330550000000  0.5602970000000 1.0
C      1  0.4388350000000  0.5314940000000  0.4746290000000 1.0
C      1  0.5243490000000  0.5334850000000  0.4382080000000 1.0
C      1  0.5608070000000  0.5359900000000  0.5236570000000 1.0
C      1  0.4745350000000  0.5315830000000  0.4385490000000 1.0
C      1  0.4388180000000  0.5335370000000  0.5244620000000 1.0
C      1  0.5261440000000  0.5337680000000  0.5601430000000 1.0
C      1  0.5604980000000  0.5328670000000  0.4734370000000 1.0
C      1  0.5616560000000  0.4745440000000  0.4761380000000 1.0
C      1  0.5261200000000  0.4745740000000  0.5624300000000 1.0
C      1  0.4418250000000  0.4791080000000  0.5286490000000 1.0
C      1  0.4742540000000  0.4772280000000  0.4412690000000 1.0
C      1  0.5633930000000  0.4766260000000  0.5273380000000 1.0
C      1  0.5285220000000  0.4794310000000  0.4409290000000 1.0
C      1  0.4419140000000  0.4773360000000  0.4739830000000 1.0
C      1  0.4764470000000  0.4745370000000  0.5624440000000 1.0
C      1  0.5346240000000  0.4342720000000  0.4856670000000 1.0
C      1  0.5163200000000  0.4337650000000  0.5361160000000 1.0
C      1  0.4658500000000  0.4466980000000  0.5139680000000 1.0
C      1  0.4860690000000  0.4350810000000  0.4619290000000 1.0
C      1  0.5338950000000  0.4456780000000  0.5151960000000 1.0
C      1  0.5144100000000  0.4463540000000  0.4654350000000 1.0
C      1  0.4625060000000  0.4352120000000  0.4855460000000 1.0
C      1  0.4829010000000  0.4340170000000  0.5355610000000 1.0
C      1  0.5835750000000  0.4922210000000  0.5154070000000 1.0
C      1  0.4866800000000  0.4907000000000  0.5836680000000 1.0
C      1  0.4169700000000  0.4870860000000  0.4843310000000 1.0
C      1  0.5162980000000  0.4883690000000  0.4165450000000 1.0
C      1  0.5832240000000  0.4903540000000  0.4857490000000 1.0
C      1  0.4845270000000  0.4871360000000  0.4162790000000 1.0
C      1  0.4174740000000  0.4880290000000  0.5164080000000 1.0
C      1  0.5158900000000  0.4909390000000  0.5837650000000 1.0
END
