TITL C-132117-1609-4 -0.284875316172916 125000 -516.340248865216 0 0 76 (C1) n - 1
REM
REM in /rds/project/t2_vol4/rds-t2-cs072/BORA/CARBON/from-Arr/AIRSS/Generating-Clusters/GAP-ML-2020/Higher-Symm/SD-CG/HFTN-CG
REM
REM
REM
REM
REM
REM ./C.cell (b20cbc046b6831c77cfcea5457e17084)
REM AIRSS Version 0.9.1 bugfix July 2018 build 013d7b7c2542+ Fri, 06 Jul 2018 19:26:36 +0100
REM compiler GCC version 9.3.0
REM options -cpp -mtune=generic -march=x86-64 -g -O0
REM seed 598478278 -678984435 -1340531067 -1328507338 358962870 1759028656 -1904560485 -438994075 -1893174011 -443699793 2015577495 -1726199749 1196868437 1982159320 -341865641 81714168 -644432775 -210464076 599663173 -613041280 -1476338860 -415055091 -1683471972 -1405321388 -62066006 1446010560 1741607978 768260647 -414524540 -1095638440 -2006234370 807008501 1367331620
REM
CELL 1.54180   50.00000   50.00000   50.00000   90.00000   90.00000   90.00000
LATT -1
SFAC C  
C      1  0.4687820000000  0.5017660000000  0.4286960000000 1.0
C      1  0.5117350000000  0.4765440000000  0.4247550000000 1.0
C      1  0.5157750000000  0.5262340000000  0.4251050000000 1.0
C      1  0.5305250000000  0.4977140000000  0.5700850000000 1.0
C      1  0.4669370000000  0.4641200000000  0.5774170000000 1.0
C      1  0.4817010000000  0.5551960000000  0.5671120000000 1.0
C      1  0.4629280000000  0.5112400000000  0.5167630000000 1.0
C      1  0.4970080000000  0.4344410000000  0.5172020000000 1.0
C      1  0.5561010000000  0.5291350000000  0.5148220000000 1.0
C      1  0.5597130000000  0.5016430000000  0.5040740000000 1.0
C      1  0.4753010000000  0.4521370000000  0.5066140000000 1.0
C      1  0.4776470000000  0.5326020000000  0.5029810000000 1.0
C      1  0.4386560000000  0.4966000000000  0.5029720000000 1.0
C      1  0.5400140000000  0.4493760000000  0.4992730000000 1.0
C      1  0.5266350000000  0.5602970000000  0.4979670000000 1.0
C      1  0.5761350000000  0.5003690000000  0.4785370000000 1.0
C      1  0.4610080000000  0.4411980000000  0.4831080000000 1.0
C      1  0.4651030000000  0.5537740000000  0.4866260000000 1.0
C      1  0.5444240000000  0.4600850000000  0.5266900000000 1.0
C      1  0.5145650000000  0.5619210000000  0.5243750000000 1.0
C      1  0.4373740000000  0.4796230000000  0.5283460000000 1.0
C      1  0.4514230000000  0.4609920000000  0.4646030000000 1.0
C      1  0.4854210000000  0.5593910000000  0.4664040000000 1.0
C      1  0.5643450000000  0.4812060000000  0.4589720000000 1.0
C      1  0.4736130000000  0.5457330000000  0.4450220000000 1.0
C      1  0.4740420000000  0.4604010000000  0.4458390000000 1.0
C      1  0.5516700000000  0.4995070000000  0.4393580000000 1.0
C      1  0.5289470000000  0.5546880000000  0.5493810000000 1.0
C      1  0.5258510000000  0.4531790000000  0.5488250000000 1.0
C      1  0.4377270000000  0.4983430000000  0.5507460000000 1.0
C      1  0.4906610000000  0.5434420000000  0.5265520000000 1.0
C      1  0.4632020000000  0.4649160000000  0.5307400000000 1.0
C      1  0.5575090000000  0.4856230000000  0.5294430000000 1.0
C      1  0.5126190000000  0.5496190000000  0.4744220000000 1.0
C      1  0.5418240000000  0.4658840000000  0.4732590000000 1.0
C      1  0.4422000000000  0.4876180000000  0.4727830000000 1.0
C      1  0.4483440000000  0.5341930000000  0.4541040000000 1.0
C      1  0.4977220000000  0.4384000000000  0.4511990000000 1.0
C      1  0.5592590000000  0.5284890000000  0.4441490000000 1.0
C      1  0.5427380000000  0.5298190000000  0.5395770000000 1.0
C      1  0.5004740000000  0.4405180000000  0.5437440000000 1.0
C      1  0.4448010000000  0.5248500000000  0.5368600000000 1.0
C      1  0.5761970000000  0.5264820000000  0.4667520000000 1.0
C      1  0.4384400000000  0.5480240000000  0.4769790000000 1.0
C      1  0.4797090000000  0.4242880000000  0.4702390000000 1.0
C      1  0.4242690000000  0.5227720000000  0.5115810000000 1.0
C      1  0.5539430000000  0.5506520000000  0.4966940000000 1.0
C      1  0.5183270000000  0.4310750000000  0.4981210000000 1.0
C      1  0.5502230000000  0.5032720000000  0.5510310000000 1.0
C      1  0.4679090000000  0.5457190000000  0.5461900000000 1.0
C      1  0.4745730000000  0.4511290000000  0.5539250000000 1.0
C      1  0.4491230000000  0.5058770000000  0.4507100000000 1.0
C      1  0.5305450000000  0.5369350000000  0.4495760000000 1.0
C      1  0.5173330000000  0.4617240000000  0.4515220000000 1.0
C      1  0.5200170000000  0.4717310000000  0.5700770000000 1.0
C      1  0.5081620000000  0.5468790000000  0.5706180000000 1.0
C      1  0.4540420000000  0.4914400000000  0.5722830000000 1.0
C      1  0.4820170000000  0.4771840000000  0.4239170000000 1.0
C      1  0.4884910000000  0.5235510000000  0.4340810000000 1.0
C      1  0.5280210000000  0.4990770000000  0.4220440000000 1.0
C      1  0.4928390000000  0.4744170000000  0.5774580000000 1.0
C      1  0.5074020000000  0.5172770000000  0.5682010000000 1.0
C      1  0.4820280000000  0.4996370000000  0.5660860000000 1.0
C      1  0.4942080000000  0.4773880000000  0.4638210000000 1.0
C      1  0.4993100000000  0.5066340000000  0.4603350000000 1.0
C      1  0.5299690000000  0.5085970000000  0.4613310000000 1.0
C      1  0.4987650000000  0.5207380000000  0.4860070000000 1.0
C      1  0.4918430000000  0.4732470000000  0.4911900000000 1.0
C      1  0.5356010000000  0.4933790000000  0.4866050000000 1.0
C      1  0.5107730000000  0.5209630000000  0.5379730000000 1.0
C      1  0.5066860000000  0.4946170000000  0.5278650000000 1.0
C      1  0.4797600000000  0.4927640000000  0.5352120000000 1.0
C      1  0.5746100000000  0.5504540000000  0.4788750000000 1.0
C      1  0.4173720000000  0.5420260000000  0.4940040000000 1.0
C      1  0.5060280000000  0.4226910000000  0.4742240000000 1.0
C      1  0.5087460000000  0.4947150000000  0.5002500000000 1.0
END
