TITL C-132791-1334-10 0.0946208236105592 125000 -420.938883893106 0 0 60 (C6h) n - 1
REM
REM in /rds/project/t2_vol4/rds-t2-cs072/BORA/CARBON/from-Arr/AIRSS/Generating-Clusters/GAP-ML-2020/Higher-Symm/SD-CG/HFTN-CG
REM
REM
REM
REM
REM
REM ./C.cell (b20cbc046b6831c77cfcea5457e17084)
REM AIRSS Version 0.9.1 bugfix July 2018 build 013d7b7c2542+ Fri, 06 Jul 2018 19:26:36 +0100
REM compiler GCC version 9.3.0
REM options -cpp -mtune=generic -march=x86-64 -g -O0
REM seed 1585763563 728521948 1825058335 -465486127 1912549496 -247563124 601130159 408276691 315508265 -1787443304 457158411 1715501712 176779124 -755578674 -729380378 -588774813 -935659264 -1045676679 1810513657 1597619931 1884205932 1478649985 423601096 5259922 -159602679 57347638 1704228493 914846230 1377906811 1142619550 2024788660 -1315677849 1752847989
REM
CELL 1.54180   50.00000   50.00000   50.00000   90.00000   90.00000   90.00000
LATT -1
SFAC C  
C      1  0.5149920000000  0.4467390000000  0.5433060000000 1.0
C      1  0.4613690000000  0.4603870000000  0.5433060000000 1.0
C      1  0.4463780000000  0.5136490000000  0.5433050000000 1.0
C      1  0.4850080000000  0.5532630000000  0.5433040000000 1.0
C      1  0.5386310000000  0.5396150000000  0.5433040000000 1.0
C      1  0.5536220000000  0.4863530000000  0.5433050000000 1.0
C      1  0.4850090000000  0.4467390000000  0.5433060000000 1.0
C      1  0.5386310000000  0.4603870000000  0.5433060000000 1.0
C      1  0.5536220000000  0.5136490000000  0.5433050000000 1.0
C      1  0.5149910000000  0.5532630000000  0.5433040000000 1.0
C      1  0.4613690000000  0.5396150000000  0.5433040000000 1.0
C      1  0.4463780000000  0.4863530000000  0.5433050000000 1.0
C      1  0.4712160000000  0.4219500000000  0.5000020000000 1.0
C      1  0.4180150000000  0.4859020000000  0.5000000000000 1.0
C      1  0.4467980000000  0.5639520000000  0.4999990000000 1.0
C      1  0.5287840000000  0.5780500000000  0.4999980000000 1.0
C      1  0.5819850000000  0.5140980000000  0.5000000000000 1.0
C      1  0.5532020000000  0.4360480000000  0.5000010000000 1.0
C      1  0.5287840000000  0.4219500000000  0.5000020000000 1.0
C      1  0.5819850000000  0.4859030000000  0.5000000000000 1.0
C      1  0.5532010000000  0.5639530000000  0.4999990000000 1.0
C      1  0.4712160000000  0.5780500000000  0.4999980000000 1.0
C      1  0.4180150000000  0.5140970000000  0.5000000000000 1.0
C      1  0.4467990000000  0.4360470000000  0.5000010000000 1.0
C      1  0.5149920000000  0.4467370000000  0.4566960000000 1.0
C      1  0.4613690000000  0.4603850000000  0.4566960000000 1.0
C      1  0.4463780000000  0.5136470000000  0.4566950000000 1.0
C      1  0.4850080000000  0.5532610000000  0.4566940000000 1.0
C      1  0.5386310000000  0.5396130000000  0.4566940000000 1.0
C      1  0.5536220000000  0.4863510000000  0.4566950000000 1.0
C      1  0.4850090000000  0.4467370000000  0.4566960000000 1.0
C      1  0.5386310000000  0.4603850000000  0.4566960000000 1.0
C      1  0.5536220000000  0.5136470000000  0.4566950000000 1.0
C      1  0.5149910000000  0.5532610000000  0.4566940000000 1.0
C      1  0.4613690000000  0.5396130000000  0.4566940000000 1.0
C      1  0.4463780000000  0.4863510000000  0.4566950000000 1.0
C      1  0.5140220000000  0.4232820000000  0.4759460000000 1.0
C      1  0.4405720000000  0.4494980000000  0.4759460000000 1.0
C      1  0.4265500000000  0.5262150000000  0.4759440000000 1.0
C      1  0.4859780000000  0.5767170000000  0.4759430000000 1.0
C      1  0.5594280000000  0.5505010000000  0.4759440000000 1.0
C      1  0.5734500000000  0.4737840000000  0.4759450000000 1.0
C      1  0.4859790000000  0.4232820000000  0.4759460000000 1.0
C      1  0.5594290000000  0.4494980000000  0.4759460000000 1.0
C      1  0.5734500000000  0.5262150000000  0.4759440000000 1.0
C      1  0.5140210000000  0.5767170000000  0.4759430000000 1.0
C      1  0.4405710000000  0.5505010000000  0.4759440000000 1.0
C      1  0.4265500000000  0.4737840000000  0.4759450000000 1.0
C      1  0.5594280000000  0.5505020000000  0.5240540000000 1.0
C      1  0.5734500000000  0.4737850000000  0.5240560000000 1.0
C      1  0.5140220000000  0.4232830000000  0.5240570000000 1.0
C      1  0.4405720000000  0.4494990000000  0.5240560000000 1.0
C      1  0.4265500000000  0.5262160000000  0.5240550000000 1.0
C      1  0.4859780000000  0.5767180000000  0.5240540000000 1.0
C      1  0.4405710000000  0.5505020000000  0.5240540000000 1.0
C      1  0.4265500000000  0.4737850000000  0.5240560000000 1.0
C      1  0.4859790000000  0.4232830000000  0.5240570000000 1.0
C      1  0.5594290000000  0.4494990000000  0.5240560000000 1.0
C      1  0.5734500000000  0.5262160000000  0.5240550000000 1.0
C      1  0.5140210000000  0.5767180000000  0.5240540000000 1.0
END
