TITL C-131492-9470-11 82.7398855655445 125000 -316.149397994988 0 0 47 (C1) n - 1
REM
REM in /rds/project/t2_vol4/rds-t2-cs072/BORA/CARBON/from-Arr/AIRSS/Generating-Clusters/GAP-ML-2020/Higher-Symm/SD-CG/HFTN-CG
REM
REM
REM
REM
REM
REM ./C.cell (b20cbc046b6831c77cfcea5457e17084)
REM AIRSS Version 0.9.1 bugfix July 2018 build 013d7b7c2542+ Fri, 06 Jul 2018 19:26:36 +0100
REM compiler GCC version 9.3.0
REM options -cpp -mtune=generic -march=x86-64 -g -O0
REM seed 1547085428 -1297909806 -1898782213 1280875987 -742303876 1151630523 -148590432 1042530198 1642068532 -76703067 1824862823 1454288854 217454282 -1902257427 -1586480666 -17841806 1224590323 -1228900878 1629871858 -1996473097 435142792 -1267490459 674009856 -1141194449 -1968253647 -351301225 -347091775 608100932 1044984103 -952025800 421341099 -694699866 -1298537381
REM
CELL 1.54180   50.00000   50.00000   50.00000   90.00000   90.00000   90.00000
LATT -1
SFAC C  
C      1  0.4792800000000  0.5177840000000  0.5624620000000 1.0
C      1  0.4846350000000  0.4483270000000  0.5432190000000 1.0
C      1  0.4809700000000  0.4281130000000  0.4562490000000 1.0
C      1  0.4818840000000  0.5205480000000  0.4347470000000 1.0
C      1  0.4839610000000  0.5605430000000  0.5079730000000 1.0
C      1  0.5379580000000  0.4573260000000  0.5202270000000 1.0
C      1  0.5306440000000  0.4685080000000  0.4680320000000 1.0
C      1  0.5365930000000  0.5210780000000  0.4544110000000 1.0
C      1  0.5360080000000  0.5401730000000  0.5117100000000 1.0
C      1  0.5363650000000  0.5023350000000  0.5442650000000 1.0
C      1  0.5567690000000  0.5013610000000  0.5225480000000 1.0
C      1  0.5574260000000  0.4762120000000  0.5097070000000 1.0
C      1  0.5543850000000  0.4810840000000  0.4808030000000 1.0
C      1  0.5546250000000  0.5093710000000  0.4757450000000 1.0
C      1  0.5562830000000  0.5222640000000  0.5019240000000 1.0
C      1  0.4620890000000  0.5459580000000  0.4952760000000 1.0
C      1  0.4681720000000  0.5264410000000  0.5377160000000 1.0
C      1  0.4673620000000  0.4719440000000  0.5406990000000 1.0
C      1  0.4702460000000  0.4483960000000  0.4713180000000 1.0
C      1  0.4591300000000  0.5161940000000  0.4541520000000 1.0
C      1  0.5059710000000  0.4303840000000  0.4482900000000 1.0
C      1  0.5039850000000  0.5102360000000  0.4225310000000 1.0
C      1  0.5050620000000  0.5783100000000  0.5056890000000 1.0
C      1  0.5054560000000  0.5259000000000  0.5672930000000 1.0
C      1  0.5101350000000  0.4488640000000  0.5532980000000 1.0
C      1  0.5299980000000  0.5191210000000  0.5655510000000 1.0
C      1  0.5342020000000  0.4440230000000  0.5442350000000 1.0
C      1  0.5256280000000  0.4462780000000  0.4540430000000 1.0
C      1  0.5296220000000  0.5156340000000  0.4279560000000 1.0
C      1  0.5282370000000  0.5663470000000  0.5093130000000 1.0
C      1  0.4898660000000  0.5416940000000  0.4535300000000 1.0
C      1  0.4903850000000  0.5399400000000  0.5262010000000 1.0
C      1  0.4834020000000  0.4947010000000  0.5465350000000 1.0
C      1  0.4899740000000  0.4489420000000  0.5151650000000 1.0
C      1  0.4794510000000  0.4751410000000  0.4706540000000 1.0
C      1  0.4547580000000  0.4733040000000  0.5142740000000 1.0
C      1  0.4667280000000  0.4517560000000  0.4991640000000 1.0
C      1  0.4593850000000  0.4955410000000  0.4728140000000 1.0
C      1  0.4643360000000  0.5409130000000  0.4682190000000 1.0
C      1  0.4542860000000  0.5235720000000  0.5127560000000 1.0
C      1  0.5101940000000  0.5207070000000  0.5153290000000 1.0
C      1  0.5097490000000  0.4949980000000  0.5316530000000 1.0
C      1  0.5110180000000  0.4703760000000  0.5119780000000 1.0
C      1  0.5068670000000  0.4813290000000  0.4831790000000 1.0
C      1  0.5127970000000  0.5301980000000  0.4675660000000 1.0
C      1  0.4503380000000  0.4980010000000  0.5001840000000 1.0
C      1  0.5071380000000  0.5110550000000  0.4882440000000 1.0
END
