TITL C-131483-8553-9 -45.7958110866432 125000 -690.768197949499 0 0 98 (C1) n - 1
REM
REM in /rds/project/t2_vol4/rds-t2-cs072/BORA/CARBON/from-Arr/AIRSS/Generating-Clusters/GAP-ML-2020/Higher-Symm/SD-CG/HFTN-CG
REM
REM
REM
REM
REM
REM ./C.cell (b20cbc046b6831c77cfcea5457e17084)
REM AIRSS Version 0.9.1 bugfix July 2018 build 013d7b7c2542+ Fri, 06 Jul 2018 19:26:36 +0100
REM compiler GCC version 9.3.0
REM options -cpp -mtune=generic -march=x86-64 -g -O0
REM seed 2086431263 -375675529 1743250767 1106728171 1169572775 757406873 991864758 192102333 -1977151436 621604641 -1904914348 -668164614 562491375 -985481267 227704754 1302851446 1786142553 863078954 -1457352821 -885602937 2122074214 -397280016 -1071366751 1780896115 2092267768 -1623336175 884731181 -84808091 -1558290298 411151807 784343046 -1800821559 1168917231
REM
CELL 1.54180   50.00000   50.00000   50.00000   90.00000   90.00000   90.00000
LATT -1
SFAC C  
C      1  0.5262760000000  0.4916400000000  0.4108340000000 1.0
C      1  0.5079300000000  0.5263820000000  0.5896870000000 1.0
C      1  0.4733320000000  0.5078760000000  0.4112310000000 1.0
C      1  0.4909260000000  0.4733030000000  0.5888440000000 1.0
C      1  0.4443510000000  0.4848120000000  0.4826580000000 1.0
C      1  0.5145190000000  0.4435660000000  0.5193390000000 1.0
C      1  0.5571790000000  0.5150450000000  0.4816410000000 1.0
C      1  0.4832790000000  0.5574390000000  0.5181730000000 1.0
C      1  0.5478260000000  0.4788370000000  0.4230710000000 1.0
C      1  0.5205610000000  0.5477370000000  0.5768660000000 1.0
C      1  0.4520070000000  0.5206390000000  0.4239370000000 1.0
C      1  0.4776460000000  0.4514260000000  0.5773310000000 1.0
C      1  0.5476060000000  0.5388680000000  0.5710210000000 1.0
C      1  0.4603360000000  0.5478460000000  0.4297060000000 1.0
C      1  0.4504600000000  0.4601850000000  0.5713030000000 1.0
C      1  0.5395780000000  0.4515740000000  0.4287480000000 1.0
C      1  0.5764300000000  0.4503290000000  0.4597600000000 1.0
C      1  0.5477090000000  0.5736640000000  0.5375890000000 1.0
C      1  0.4241940000000  0.5488190000000  0.4619870000000 1.0
C      1  0.4499940000000  0.4244040000000  0.5381540000000 1.0
C      1  0.5492950000000  0.5099300000000  0.5751570000000 1.0
C      1  0.4890750000000  0.5492170000000  0.4255130000000 1.0
C      1  0.4500410000000  0.4892660000000  0.5744100000000 1.0
C      1  0.5107480000000  0.4503250000000  0.4254430000000 1.0
C      1  0.4427860000000  0.5129370000000  0.5595240000000 1.0
C      1  0.4875350000000  0.4427960000000  0.4410510000000 1.0
C      1  0.5567850000000  0.4860860000000  0.5599500000000 1.0
C      1  0.5127000000000  0.5569720000000  0.4404000000000 1.0
C      1  0.4225760000000  0.4552180000000  0.5297700000000 1.0
C      1  0.5460790000000  0.4222020000000  0.4688750000000 1.0
C      1  0.5758190000000  0.5432580000000  0.5296620000000 1.0
C      1  0.4544340000000  0.5772660000000  0.4696720000000 1.0
C      1  0.5486840000000  0.5672640000000  0.4901730000000 1.0
C      1  0.4323120000000  0.5499750000000  0.5095410000000 1.0
C      1  0.4506230000000  0.4324700000000  0.4906110000000 1.0
C      1  0.5754950000000  0.4480500000000  0.5067790000000 1.0
C      1  0.4953040000000  0.5260860000000  0.4107260000000 1.0
C      1  0.4733120000000  0.4954380000000  0.5887900000000 1.0
C      1  0.5042890000000  0.4734190000000  0.4106630000000 1.0
C      1  0.5260380000000  0.5041610000000  0.5901560000000 1.0
C      1  0.5065490000000  0.5741780000000  0.4638110000000 1.0
C      1  0.4259630000000  0.5071750000000  0.5360690000000 1.0
C      1  0.4937920000000  0.4257720000000  0.4645020000000 1.0
C      1  0.5743660000000  0.4912640000000  0.5360910000000 1.0
C      1  0.5339120000000  0.5353550000000  0.4357490000000 1.0
C      1  0.4643570000000  0.5338050000000  0.5640680000000 1.0
C      1  0.4663770000000  0.4643000000000  0.4366230000000 1.0
C      1  0.5343750000000  0.4657450000000  0.5646680000000 1.0
C      1  0.5219560000000  0.5741320000000  0.4884890000000 1.0
C      1  0.4265760000000  0.5229730000000  0.5117160000000 1.0
C      1  0.4774700000000  0.4261150000000  0.4887590000000 1.0
C      1  0.5765770000000  0.4756000000000  0.5107900000000 1.0
C      1  0.4921090000000  0.4263990000000  0.5143050000000 1.0
C      1  0.5743650000000  0.4915360000000  0.4858620000000 1.0
C      1  0.5065360000000  0.5737940000000  0.5136880000000 1.0
C      1  0.4269320000000  0.5074130000000  0.4868240000000 1.0
C      1  0.5615470000000  0.5543760000000  0.5531340000000 1.0
C      1  0.4438130000000  0.5624850000000  0.4463750000000 1.0
C      1  0.4363820000000  0.4442150000000  0.5535940000000 1.0
C      1  0.5562720000000  0.4366380000000  0.4448780000000 1.0
C      1  0.4790070000000  0.5097800000000  0.5174110000000 1.0
C      1  0.4914670000000  0.4779450000000  0.4845270000000 1.0
C      1  0.5237610000000  0.4899920000000  0.5145280000000 1.0
C      1  0.5095820000000  0.5218020000000  0.4826680000000 1.0
C      1  0.4774760000000  0.4803250000000  0.4148450000000 1.0
C      1  0.5183650000000  0.4776510000000  0.5856660000000 1.0
C      1  0.5222330000000  0.5192260000000  0.4143720000000 1.0
C      1  0.4806620000000  0.5221180000000  0.5850690000000 1.0
C      1  0.4679340000000  0.5313110000000  0.4748210000000 1.0
C      1  0.4687390000000  0.4681430000000  0.5265350000000 1.0
C      1  0.5332440000000  0.4670700000000  0.4748800000000 1.0
C      1  0.5242610000000  0.5289440000000  0.5266320000000 1.0
C      1  0.5182260000000  0.4468640000000  0.5485830000000 1.0
C      1  0.5532830000000  0.5194660000000  0.4522280000000 1.0
C      1  0.4792560000000  0.5535140000000  0.5478270000000 1.0
C      1  0.4475300000000  0.4800740000000  0.4533570000000 1.0
C      1  0.5683720000000  0.4361570000000  0.4842500000000 1.0
C      1  0.5614640000000  0.5640990000000  0.5133280000000 1.0
C      1  0.4336080000000  0.5630490000000  0.4863540000000 1.0
C      1  0.4368830000000  0.4342340000000  0.5134160000000 1.0
C      1  0.5169290000000  0.4668230000000  0.4986910000000 1.0
C      1  0.5329490000000  0.5162200000000  0.4998120000000 1.0
C      1  0.4831970000000  0.5324160000000  0.4986110000000 1.0
C      1  0.4689200000000  0.4837780000000  0.5028840000000 1.0
C      1  0.4931260000000  0.4360540000000  0.5595610000000 1.0
C      1  0.5630380000000  0.4943580000000  0.4411450000000 1.0
C      1  0.5047360000000  0.5627450000000  0.5586500000000 1.0
C      1  0.4372150000000  0.5050820000000  0.4421910000000 1.0
C      1  0.5810910000000  0.5174030000000  0.5298780000000 1.0
C      1  0.4805230000000  0.5812390000000  0.4697040000000 1.0
C      1  0.4188980000000  0.4812810000000  0.5296930000000 1.0
C      1  0.5198450000000  0.4184860000000  0.4702950000000 1.0
C      1  0.4234490000000  0.5205110000000  0.4620660000000 1.0
C      1  0.4782560000000  0.4228990000000  0.5387400000000 1.0
C      1  0.5770780000000  0.4787630000000  0.4607740000000 1.0
C      1  0.5199530000000  0.5757610000000  0.5383240000000 1.0
C      1  0.5050260000000  0.5061620000000  0.5314510000000 1.0
C      1  0.4997870000000  0.4995000000000  0.4674930000000 1.0
END
