TITL C-131467-8709-5 359.257794969949 125000 -332.655143407033 0 0 48 (C1) n - 1
REM
REM in /rds/project/t2_vol4/rds-t2-cs072/BORA/CARBON/from-Arr/AIRSS/Generating-Clusters/GAP-ML-2020/Higher-Symm/SD-CG/HFTN-CG
REM
REM
REM
REM
REM
REM ./C.cell (b20cbc046b6831c77cfcea5457e17084)
REM AIRSS Version 0.9.1 bugfix July 2018 build 013d7b7c2542+ Fri, 06 Jul 2018 19:26:36 +0100
REM compiler GCC version 9.3.0
REM options -cpp -mtune=generic -march=x86-64 -g -O0
REM seed -1018664769 -1715159949 -524404920 -2097444223 -185108190 1737306009 -616175470 -383542901 -1985902137 -1078345492 -1574473972 -1577486050 -390946272 838643059 608070745 91898946 -1632669574 -549594452 -854260877 -480291779 -736370715 706059875 -900415617 2041162024 -539666907 -447819998 -1639447695 1923197478 1675245622 893290163 -1739307802 -406157153 -1517422688
REM
CELL 1.54180   50.00000   50.00000   50.00000   90.00000   90.00000   90.00000
LATT -1
SFAC C  
C      1  0.5513370000000  0.5559620000000  0.5298970000000 1.0
C      1  0.4524380000000  0.5244510000000  0.5230660000000 1.0
C      1  0.5159140000000  0.4505930000000  0.5388320000000 1.0
C      1  0.5517570000000  0.5088460000000  0.5165680000000 1.0
C      1  0.4630710000000  0.5455110000000  0.5064000000000 1.0
C      1  0.4745790000000  0.4428230000000  0.5140810000000 1.0
C      1  0.5344570000000  0.4788220000000  0.4623100000000 1.0
C      1  0.4997880000000  0.5362300000000  0.4560720000000 1.0
C      1  0.4668700000000  0.4767180000000  0.4587460000000 1.0
C      1  0.4359290000000  0.4780060000000  0.5073630000000 1.0
C      1  0.5525260000000  0.4579810000000  0.5120000000000 1.0
C      1  0.5093590000000  0.5682570000000  0.5048640000000 1.0
C      1  0.4710450000000  0.5195240000000  0.5436470000000 1.0
C      1  0.4888090000000  0.4481760000000  0.5388170000000 1.0
C      1  0.5415730000000  0.5298200000000  0.5336960000000 1.0
C      1  0.4555270000000  0.5402240000000  0.4789990000000 1.0
C      1  0.4873390000000  0.4395310000000  0.4887530000000 1.0
C      1  0.5549040000000  0.5170750000000  0.4887540000000 1.0
C      1  0.4381160000000  0.5065000000000  0.5064830000000 1.0
C      1  0.5288610000000  0.4420950000000  0.5147920000000 1.0
C      1  0.5362170000000  0.5574270000000  0.5077430000000 1.0
C      1  0.4707120000000  0.4699920000000  0.5448730000000 1.0
C      1  0.5270950000000  0.4764910000000  0.5458770000000 1.0
C      1  0.4931260000000  0.5377300000000  0.5403900000000 1.0
C      1  0.4306180000000  0.4696310000000  0.4800820000000 1.0
C      1  0.5608770000000  0.4551110000000  0.4850130000000 1.0
C      1  0.5077910000000  0.5731090000000  0.4770810000000 1.0
C      1  0.5103000000000  0.4972190000000  0.5541110000000 1.0
C      1  0.5171450000000  0.5240060000000  0.5470010000000 1.0
C      1  0.4812190000000  0.4944060000000  0.5527910000000 1.0
C      1  0.4841090000000  0.5773310000000  0.4633080000000 1.0
C      1  0.4409080000000  0.4452020000000  0.4713040000000 1.0
C      1  0.5769730000000  0.4746790000000  0.4724200000000 1.0
C      1  0.5134990000000  0.4911440000000  0.4740390000000 1.0
C      1  0.4986840000000  0.5136770000000  0.4711290000000 1.0
C      1  0.4862630000000  0.4893630000000  0.4730890000000 1.0
C      1  0.5160910000000  0.4391350000000  0.4893270000000 1.0
C      1  0.5426910000000  0.5423940000000  0.4836400000000 1.0
C      1  0.4403610000000  0.5157850000000  0.4789730000000 1.0
C      1  0.4881080000000  0.5549090000000  0.5179870000000 1.0
C      1  0.4541300000000  0.4632760000000  0.5219860000000 1.0
C      1  0.5479720000000  0.4823640000000  0.5262820000000 1.0
C      1  0.5357570000000  0.4512840000000  0.4710440000000 1.0
C      1  0.5226950000000  0.5510860000000  0.4651720000000 1.0
C      1  0.4412680000000  0.4911060000000  0.4633620000000 1.0
C      1  0.4681320000000  0.4484060000000  0.4679060000000 1.0
C      1  0.5586420000000  0.4951140000000  0.4698450000000 1.0
C      1  0.4744200000000  0.5514750000000  0.4600890000000 1.0
END
