TITL C-132773-1306-9 -105.573893431285 125000 -582.504095695326 0 0 85 (C5) n - 1
REM
REM in /rds/project/t2_vol4/rds-t2-cs072/BORA/CARBON/from-Arr/AIRSS/Generating-Clusters/GAP-ML-2020/Higher-Symm/SD-CG/HFTN-CG
REM
REM
REM
REM
REM
REM ./C.cell (b20cbc046b6831c77cfcea5457e17084)
REM AIRSS Version 0.9.1 bugfix July 2018 build 013d7b7c2542+ Fri, 06 Jul 2018 19:26:36 +0100
REM compiler GCC version 9.3.0
REM options -cpp -mtune=generic -march=x86-64 -g -O0
REM seed -296188440 256695876 229808210 -1844099705 1564996951 -1836471205 198624902 1835981788 1351697185 1893434486 -1395667527 -2116612201 1163702915 -700879987 -1575796588 -645307148 -504114687 9858373 34959690 -1411710080 -229412368 -900385145 -1501636144 1980604154 920387082 155736140 1152995719 1556249798 483987212 -1170815027 -981224287 -1813717760 1091049365
REM
CELL 1.54180   50.00000   50.00000   50.00000   90.00000   90.00000   90.00000
LATT -1
SFAC C  
C      1  0.4446360000000  0.4564170000000  0.5372320000000 1.0
C      1  0.5243570000000  0.4338380000000  0.5371510000000 1.0
C      1  0.5704660000000  0.5026790000000  0.5371240000000 1.0
C      1  0.5192420000000  0.5678050000000  0.5371900000000 1.0
C      1  0.4414750000000  0.5392130000000  0.5372560000000 1.0
C      1  0.5683530000000  0.4589000000000  0.4953370000000 1.0
C      1  0.5602090000000  0.5523120000000  0.4953690000000 1.0
C      1  0.4688520000000  0.5734320000000  0.4954610000000 1.0
C      1  0.4205350000000  0.4930730000000  0.4954860000000 1.0
C      1  0.4820300000000  0.4222880000000  0.4954100000000 1.0
C      1  0.4572560000000  0.4936650000000  0.5563450000000 1.0
C      1  0.4928390000000  0.4573300000000  0.5563020000000 1.0
C      1  0.5383920000000  0.4799430000000  0.5562650000000 1.0
C      1  0.5309630000000  0.5302550000000  0.5562840000000 1.0
C      1  0.4808170000000  0.5387360000000  0.5563340000000 1.0
C      1  0.5373860000000  0.5552370000000  0.4796010000000 1.0
C      1  0.4590110000000  0.5526470000000  0.4796750000000 1.0
C      1  0.4372550000000  0.4773080000000  0.4796770000000 1.0
C      1  0.5021840000000  0.4333360000000  0.4796040000000 1.0
C      1  0.5640680000000  0.4814980000000  0.4795570000000 1.0
C      1  0.5187160000000  0.4628850000000  0.5411010000000 1.0
C      1  0.5410990000000  0.5062860000000  0.5410910000000 1.0
C      1  0.5067390000000  0.5409850000000  0.5411320000000 1.0
C      1  0.4631200000000  0.5190300000000  0.5411680000000 1.0
C      1  0.4705220000000  0.4707610000000  0.5411490000000 1.0
C      1  0.5459690000000  0.5038640000000  0.4888130000000 1.0
C      1  0.5105260000000  0.5449250000000  0.4888570000000 1.0
C      1  0.4605220000000  0.5239050000000  0.4888990000000 1.0
C      1  0.4650610000000  0.4698530000000  0.4888810000000 1.0
C      1  0.5178700000000  0.4574670000000  0.4888280000000 1.0
C      1  0.5175760000000  0.4583140000000  0.4410280000000 1.0
C      1  0.5450520000000  0.5038980000000  0.4410130000000 1.0
C      1  0.5101910000000  0.5441150000000  0.4410560000000 1.0
C      1  0.4611690000000  0.5233880000000  0.4410980000000 1.0
C      1  0.4657330000000  0.4703600000000  0.4410800000000 1.0
C      1  0.4972270000000  0.4373790000000  0.4519510000000 1.0
C      1  0.5586790000000  0.4780640000000  0.4519030000000 1.0
C      1  0.5389760000000  0.5490800000000  0.4519390000000 1.0
C      1  0.4653460000000  0.5522870000000  0.4520100000000 1.0
C      1  0.4395440000000  0.4832520000000  0.4520170000000 1.0
C      1  0.4179570000000  0.4974520000000  0.5247940000000 1.0
C      1  0.4770810000000  0.4211580000000  0.5247180000000 1.0
C      1  0.5679110000000  0.4538130000000  0.5246400000000 1.0
C      1  0.5649220000000  0.5502880000000  0.5246680000000 1.0
C      1  0.4722460000000  0.5772580000000  0.5247620000000 1.0
C      1  0.4969580000000  0.4752570000000  0.5800160000000 1.0
C      1  0.5226250000000  0.4893740000000  0.5799950000000 1.0
C      1  0.5171310000000  0.5181480000000  0.5800080000000 1.0
C      1  0.4880670000000  0.5218140000000  0.5800360000000 1.0
C      1  0.4755990000000  0.4953060000000  0.5800410000000 1.0
C      1  0.5039760000000  0.5253240000000  0.4665770000000 1.0
C      1  0.4771300000000  0.5116430000000  0.4665990000000 1.0
C      1  0.4818460000000  0.4818830000000  0.4665870000000 1.0
C      1  0.5116060000000  0.4771720000000  0.4665570000000 1.0
C      1  0.5252830000000  0.5040200000000  0.4665510000000 1.0
C      1  0.5470680000000  0.4335210000000  0.5214790000000 1.0
C      1  0.5777790000000  0.5241980000000  0.5214730000000 1.0
C      1  0.5010300000000  0.5814270000000  0.5215600000000 1.0
C      1  0.4228860000000  0.5261190000000  0.5216200000000 1.0
C      1  0.4513390000000  0.4347080000000  0.5215700000000 1.0
C      1  0.4722440000000  0.4426360000000  0.4435320000000 1.0
C      1  0.5459560000000  0.4559370000000  0.4434660000000 1.0
C      1  0.5560840000000  0.5301520000000  0.4434750000000 1.0
C      1  0.4886320000000  0.5627170000000  0.4435470000000 1.0
C      1  0.4368160000000  0.5086300000000  0.4435830000000 1.0
C      1  0.4596590000000  0.4404260000000  0.4942040000000 1.0
C      1  0.5441900000000  0.4432300000000  0.4941240000000 1.0
C      1  0.5676440000000  0.5244900000000  0.4941230000000 1.0
C      1  0.4976090000000  0.5719070000000  0.4942010000000 1.0
C      1  0.4308710000000  0.5199530000000  0.4942510000000 1.0
C      1  0.5663940000000  0.4749630000000  0.5440870000000 1.0
C      1  0.5443460000000  0.5553610000000  0.5441280000000 1.0
C      1  0.4610710000000  0.5592360000000  0.5442080000000 1.0
C      1  0.4316520000000  0.4812340000000  0.5442160000000 1.0
C      1  0.4967450000000  0.4291500000000  0.5441410000000 1.0
C      1  0.5105630000000  0.4754540000000  0.5133060000000 1.0
C      1  0.5266140000000  0.5024460000000  0.5132980000000 1.0
C      1  0.5059030000000  0.5260530000000  0.5133230000000 1.0
C      1  0.4770520000000  0.5136510000000  0.5133480000000 1.0
C      1  0.4799320000000  0.4823790000000  0.5133370000000 1.0
C      1  0.5241210000000  0.5018090000000  0.4204130000000 1.0
C      1  0.5057000000000  0.5235850000000  0.4204360000000 1.0
C      1  0.4792980000000  0.5127950000000  0.4204580000000 1.0
C      1  0.4814010000000  0.4843510000000  0.4204490000000 1.0
C      1  0.5091030000000  0.4775610000000  0.4204210000000 1.0
END
