TITL C-133538-5350-8 -10.9931647022551 125000 -751.202047989935 0 0 104 (C2) n - 1
REM
REM in /rds/project/t2_vol4/rds-t2-cs072/BORA/CARBON/from-Arr/AIRSS/Generating-Clusters/GAP-ML-2020/Higher-Symm/SD-CG/HFTN-CG
REM
REM
REM
REM
REM
REM ./C.cell (b20cbc046b6831c77cfcea5457e17084)
REM AIRSS Version 0.9.1 bugfix July 2018 build 013d7b7c2542+ Fri, 06 Jul 2018 19:26:36 +0100
REM compiler GCC version 9.3.0
REM options -cpp -mtune=generic -march=x86-64 -g -O0
REM seed 210421269 1509358197 1702611820 358184879 1197781076 -150994550 1518694000 -147396043 2079921839 -1251917679 -1649343821 719182668 -1788145799 1080341357 -1446686591 1851775224 -616133371 933632469 -1709884831 -980439 1212359779 -1597342862 1916025122 1114373727 1855443621 1787388821 -1074083604 -1332461728 128396201 -172393979 1879173349 -1338339686 408993940
REM
CELL 1.54180   50.00000   50.00000   50.00000   90.00000   90.00000   90.00000
LATT -1
SFAC C  
C      1  0.4285600000000  0.4477770000000  0.5216820000000 1.0
C      1  0.4575790000000  0.4483160000000  0.4379410000000 1.0
C      1  0.5463920000000  0.4473090000000  0.4406250000000 1.0
C      1  0.5705560000000  0.4457770000000  0.5242620000000 1.0
C      1  0.4981070000000  0.4459690000000  0.5745390000000 1.0
C      1  0.5720530000000  0.5544740000000  0.5207900000000 1.0
C      1  0.5432040000000  0.5526970000000  0.4383370000000 1.0
C      1  0.4545960000000  0.5521770000000  0.4401350000000 1.0
C      1  0.4297770000000  0.5531640000000  0.5254510000000 1.0
C      1  0.5018950000000  0.5546650000000  0.5742170000000 1.0
C      1  0.5135150000000  0.4087240000000  0.5465470000000 1.0
C      1  0.4591730000000  0.4093810000000  0.5277910000000 1.0
C      1  0.4610640000000  0.4107930000000  0.4697400000000 1.0
C      1  0.5164760000000  0.4099820000000  0.4531610000000 1.0
C      1  0.5495060000000  0.4083320000000  0.5004410000000 1.0
C      1  0.4857300000000  0.5921220000000  0.5468610000000 1.0
C      1  0.5406840000000  0.5917240000000  0.5268320000000 1.0
C      1  0.5395890000000  0.5910840000000  0.4693540000000 1.0
C      1  0.4837810000000  0.5896890000000  0.4532610000000 1.0
C      1  0.4509310000000  0.5904940000000  0.5008670000000 1.0
C      1  0.4436190000000  0.5780450000000  0.5254360000000 1.0
C      1  0.4584400000000  0.5767400000000  0.4538720000000 1.0
C      1  0.5312440000000  0.5773810000000  0.4458140000000 1.0
C      1  0.5611960000000  0.5789790000000  0.5117480000000 1.0
C      1  0.5067540000000  0.5791590000000  0.5609720000000 1.0
C      1  0.5564530000000  0.4212860000000  0.5247950000000 1.0
C      1  0.5421060000000  0.4224250000000  0.4537810000000 1.0
C      1  0.4694580000000  0.4237480000000  0.4458240000000 1.0
C      1  0.4393530000000  0.4230930000000  0.5126010000000 1.0
C      1  0.4928470000000  0.4214680000000  0.5614160000000 1.0
C      1  0.4778830000000  0.4756600000000  0.5086600000000 1.0
C      1  0.4867240000000  0.4855670000000  0.4810490000000 1.0
C      1  0.5155960000000  0.4754630000000  0.4814190000000 1.0
C      1  0.5252920000000  0.4851060000000  0.5080630000000 1.0
C      1  0.5003030000000  0.4849710000000  0.5261890000000 1.0
C      1  0.5253720000000  0.5154860000000  0.5079660000000 1.0
C      1  0.5156090000000  0.5248070000000  0.4812380000000 1.0
C      1  0.4866140000000  0.5149060000000  0.4811350000000 1.0
C      1  0.4780710000000  0.5250040000000  0.5087180000000 1.0
C      1  0.5004270000000  0.5153500000000  0.5261510000000 1.0
C      1  0.4997920000000  0.4851700000000  0.5574680000000 1.0
C      1  0.4489310000000  0.4852910000000  0.5179190000000 1.0
C      1  0.4685860000000  0.4854320000000  0.4554770000000 1.0
C      1  0.5340140000000  0.4849760000000  0.4570040000000 1.0
C      1  0.5548680000000  0.4851450000000  0.5179070000000 1.0
C      1  0.5006760000000  0.5153020000000  0.5573220000000 1.0
C      1  0.5552860000000  0.5152780000000  0.5171200000000 1.0
C      1  0.5333380000000  0.5151790000000  0.4565450000000 1.0
C      1  0.4678770000000  0.5150530000000  0.4559980000000 1.0
C      1  0.4491660000000  0.5154940000000  0.5187120000000 1.0
C      1  0.5017530000000  0.4530750000000  0.4306000000000 1.0
C      1  0.5677870000000  0.4511820000000  0.4792720000000 1.0
C      1  0.5395810000000  0.4513020000000  0.5556320000000 1.0
C      1  0.4581240000000  0.4514760000000  0.5567620000000 1.0
C      1  0.4345360000000  0.4532730000000  0.4780100000000 1.0
C      1  0.4998150000000  0.5472120000000  0.4305600000000 1.0
C      1  0.4339970000000  0.5474100000000  0.4798940000000 1.0
C      1  0.4599480000000  0.5492740000000  0.5577150000000 1.0
C      1  0.5412840000000  0.5491380000000  0.5544160000000 1.0
C      1  0.5674640000000  0.5489810000000  0.4772730000000 1.0
C      1  0.4781890000000  0.4679250000000  0.4324780000000 1.0
C      1  0.5591560000000  0.4668320000000  0.4577590000000 1.0
C      1  0.5585510000000  0.4657620000000  0.5411140000000 1.0
C      1  0.4784770000000  0.4662570000000  0.5691850000000 1.0
C      1  0.4293580000000  0.4681130000000  0.5011250000000 1.0
C      1  0.5233970000000  0.5323670000000  0.4327550000000 1.0
C      1  0.4430430000000  0.5325650000000  0.4580510000000 1.0
C      1  0.4421390000000  0.5336320000000  0.5428690000000 1.0
C      1  0.5216230000000  0.5346780000000  0.5679840000000 1.0
C      1  0.5730060000000  0.5341910000000  0.5004590000000 1.0
C      1  0.5190060000000  0.4641010000000  0.5689780000000 1.0
C      1  0.4405670000000  0.4652450000000  0.5404680000000 1.0
C      1  0.4446700000000  0.4660710000000  0.4557750000000 1.0
C      1  0.5260800000000  0.4657800000000  0.4336530000000 1.0
C      1  0.5725800000000  0.4642950000000  0.5031620000000 1.0
C      1  0.4811940000000  0.5361530000000  0.5696330000000 1.0
C      1  0.5603180000000  0.5363390000000  0.5389520000000 1.0
C      1  0.5573710000000  0.5352200000000  0.4555440000000 1.0
C      1  0.4755360000000  0.5344190000000  0.4333450000000 1.0
C      1  0.4294000000000  0.5346990000000  0.5039740000000 1.0
C      1  0.4616880000000  0.5768160000000  0.5471420000000 1.0
C      1  0.4436110000000  0.5751040000000  0.4780120000000 1.0
C      1  0.5038100000000  0.5749060000000  0.4391680000000 1.0
C      1  0.5595970000000  0.5767660000000  0.4836930000000 1.0
C      1  0.5328100000000  0.5767350000000  0.5498740000000 1.0
C      1  0.5378660000000  0.4237070000000  0.5461630000000 1.0
C      1  0.5571860000000  0.4236430000000  0.4776600000000 1.0
C      1  0.4969940000000  0.4253800000000  0.4391580000000 1.0
C      1  0.4414870000000  0.4255760000000  0.4844550000000 1.0
C      1  0.4666500000000  0.4236900000000  0.5512480000000 1.0
C      1  0.5196600000000  0.6054580000000  0.4841450000000 1.0
C      1  0.5201330000000  0.6060560000000  0.5129700000000 1.0
C      1  0.4927960000000  0.6059580000000  0.5227770000000 1.0
C      1  0.4754280000000  0.6052940000000  0.4998770000000 1.0
C      1  0.4919640000000  0.6048120000000  0.4761410000000 1.0
C      1  0.4803040000000  0.3956610000000  0.4845720000000 1.0
C      1  0.4793820000000  0.3950070000000  0.5133860000000 1.0
C      1  0.5066580000000  0.3944000000000  0.5227200000000 1.0
C      1  0.5244140000000  0.3945020000000  0.4997360000000 1.0
C      1  0.5079810000000  0.3951760000000  0.4761560000000 1.0
C      1  0.4909290000000  0.4503660000000  0.5097320000000 1.0
C      1  0.5126130000000  0.5500980000000  0.4939860000000 1.0
C      1  0.4909180000000  0.5504540000000  0.5088620000000 1.0
C      1  0.5117670000000  0.4500100000000  0.4936770000000 1.0
END
