TITL C-132110-1597-10 -0.129287478739343 125000 -336.002680068666 0 0 51 (C3) n - 1
REM
REM in /rds/project/t2_vol4/rds-t2-cs072/BORA/CARBON/from-Arr/AIRSS/Generating-Clusters/GAP-ML-2020/Higher-Symm/SD-CG/HFTN-CG
REM
REM
REM
REM
REM
REM ./C.cell (b20cbc046b6831c77cfcea5457e17084)
REM AIRSS Version 0.9.1 bugfix July 2018 build 013d7b7c2542+ Fri, 06 Jul 2018 19:26:36 +0100
REM compiler GCC version 9.3.0
REM options -cpp -mtune=generic -march=x86-64 -g -O0
REM seed 624782212 -609586994 -1499768624 -810061388 -1861013518 -835730733 2058471897 -1179136534 1998598355 -972535255 -8198268 -686392831 1356142334 1385356593 1440466046 -1273462592 1668967464 -120895488 638165346 -1893585924 1505237249 -123192224 455472415 -346609929 882094935 -2080820666 120098984 1509553541 29307359 139252636 -757503654 643517546 476507566
REM
CELL 1.54180   50.00000   50.00000   50.00000   90.00000   90.00000   90.00000
LATT -1
SFAC C  
C      1  0.5559930000000  0.4689320000000  0.5310030000000 1.0
C      1  0.4451280000000  0.4689940000000  0.5330050000000 1.0
C      1  0.4988270000000  0.4689620000000  0.4359930000000 1.0
C      1  0.4832110000000  0.5236980000000  0.4969580000000 1.0
C      1  0.5110490000000  0.5236820000000  0.4869690000000 1.0
C      1  0.5057800000000  0.5236850000000  0.5160720000000 1.0
C      1  0.4816500000000  0.5401230000000  0.4477940000000 1.0
C      1  0.5544200000000  0.5400840000000  0.5101910000000 1.0
C      1  0.4639970000000  0.5401350000000  0.5420140000000 1.0
C      1  0.4374250000000  0.4922020000000  0.4986530000000 1.0
C      1  0.5324480000000  0.4921480000000  0.4464860000000 1.0
C      1  0.5301140000000  0.4921510000000  0.5548610000000 1.0
C      1  0.4614820000000  0.4475680000000  0.4626750000000 1.0
C      1  0.5515390000000  0.4475180000000  0.4853320000000 1.0
C      1  0.4868900000000  0.4475560000000  0.5519950000000 1.0
C      1  0.5115320000000  0.5485750000000  0.5307690000000 1.0
C      1  0.4676280000000  0.5486000000000  0.4945770000000 1.0
C      1  0.5209230000000  0.5485690000000  0.4746510000000 1.0
C      1  0.4632730000000  0.4944420000000  0.4518010000000 1.0
C      1  0.5601000000000  0.4943880000000  0.4922960000000 1.0
C      1  0.4766170000000  0.4944360000000  0.5559030000000 1.0
C      1  0.4837170000000  0.4738750000000  0.4950710000000 1.0
C      1  0.5123880000000  0.4738580000000  0.4883770000000 1.0
C      1  0.5038500000000  0.4738640000000  0.5165540000000 1.0
C      1  0.5037380000000  0.5009150000000  0.5578630000000 1.0
C      1  0.4480210000000  0.5009450000000  0.4743050000000 1.0
C      1  0.5482430000000  0.5008880000000  0.4678320000000 1.0
C      1  0.4863720000000  0.5571990000000  0.5394560000000 1.0
C      1  0.4726920000000  0.5572060000000  0.4684400000000 1.0
C      1  0.5410330000000  0.5571680000000  0.4921010000000 1.0
C      1  0.5061650000000  0.4979140000000  0.4339180000000 1.0
C      1  0.5541450000000  0.4978880000000  0.5383810000000 1.0
C      1  0.4396870000000  0.4979530000000  0.5277010000000 1.0
C      1  0.4572010000000  0.5133020000000  0.5453750000000 1.0
C      1  0.4821140000000  0.5132870000000  0.4402400000000 1.0
C      1  0.5607070000000  0.5132440000000  0.5143840000000 1.0
C      1  0.4713930000000  0.4991890000000  0.4907030000000 1.0
C      1  0.5223550000000  0.4991600000000  0.4798750000000 1.0
C      1  0.5062510000000  0.4991700000000  0.5294230000000 1.0
C      1  0.4622910000000  0.4529230000000  0.4888670000000 1.0
C      1  0.5284570000000  0.4528850000000  0.4729340000000 1.0
C      1  0.5091730000000  0.4528970000000  0.5382020000000 1.0
C      1  0.5602700000000  0.4671370000000  0.5031830000000 1.0
C      1  0.4670820000000  0.4671900000000  0.5506200000000 1.0
C      1  0.4725930000000  0.4671850000000  0.4461980000000 1.0
C      1  0.5355790000000  0.5591650000000  0.5212000000000 1.0
C      1  0.4639000000000  0.5592050000000  0.5201820000000 1.0
C      1  0.5006210000000  0.5591840000000  0.4586150000000 1.0
C      1  0.5338140000000  0.4629010000000  0.5483270000000 1.0
C      1  0.4412100000000  0.4629520000000  0.5051390000000 1.0
C      1  0.5249140000000  0.4629040000000  0.4465350000000 1.0
END
