TITL C-132785-1256-4 -104.95653905405 125000 -512.172845996985 0 0 71 (C3) n - 1
REM
REM in /rds/project/t2_vol4/rds-t2-cs072/BORA/CARBON/from-Arr/AIRSS/Generating-Clusters/GAP-ML-2020/Higher-Symm/SD-CG/HFTN-CG
REM
REM
REM
REM
REM
REM ./C.cell (b20cbc046b6831c77cfcea5457e17084)
REM AIRSS Version 0.9.1 bugfix July 2018 build 013d7b7c2542+ Fri, 06 Jul 2018 19:26:36 +0100
REM compiler GCC version 9.3.0
REM options -cpp -mtune=generic -march=x86-64 -g -O0
REM seed -38901282 1613337731 1531220579 1502648654 1383455471 -1917015768 -1308502423 1036297017 763349896 -397409816 1305259591 183656247 -385711143 1129238585 1198551312 -561681950 -1658691791 -1716575296 1247287068 1170791282 541777897 235882977 -1601044272 -1751497064 -268400305 -1586853279 145722148 294539112 709402949 2146962424 -684217265 1114882477 -672145842
REM
CELL 1.54180   50.00000   50.00000   50.00000   90.00000   90.00000   90.00000
LATT -1
SFAC C  
C      1  0.4963780000000  0.5706270000000  0.5169270000000 1.0
C      1  0.4930410000000  0.4510560000000  0.5523610000000 1.0
C      1  0.4947920000000  0.4801410000000  0.4310570000000 1.0
C      1  0.4323130000000  0.4876370000000  0.5243860000000 1.0
C      1  0.4327370000000  0.4879920000000  0.4746020000000 1.0
C      1  0.4336190000000  0.5309160000000  0.4998100000000 1.0
C      1  0.5495680000000  0.4965480000000  0.5517130000000 1.0
C      1  0.5492010000000  0.4562540000000  0.4727000000000 1.0
C      1  0.5514150000000  0.5448010000000  0.4773160000000 1.0
C      1  0.4897010000000  0.5111390000000  0.5244320000000 1.0
C      1  0.4889980000000  0.4744500000000  0.4968990000000 1.0
C      1  0.4902210000000  0.5166240000000  0.4788870000000 1.0
C      1  0.4876660000000  0.5361870000000  0.4355340000000 1.0
C      1  0.4866750000000  0.5390020000000  0.5629450000000 1.0
C      1  0.4843440000000  0.4272850000000  0.5016540000000 1.0
C      1  0.5389430000000  0.4493480000000  0.5425500000000 1.0
C      1  0.5408160000000  0.4880720000000  0.4360670000000 1.0
C      1  0.5419450000000  0.5609070000000  0.5228740000000 1.0
C      1  0.4623510000000  0.4391920000000  0.5168270000000 1.0
C      1  0.4650120000000  0.5177850000000  0.4374940000000 1.0
C      1  0.4648610000000  0.5471880000000  0.5452570000000 1.0
C      1  0.5168630000000  0.5129110000000  0.5234600000000 1.0
C      1  0.5160580000000  0.4735670000000  0.4998560000000 1.0
C      1  0.5172640000000  0.5136680000000  0.4775790000000 1.0
C      1  0.5685630000000  0.4956030000000  0.5295610000000 1.0
C      1  0.5684300000000  0.4753220000000  0.4836120000000 1.0
C      1  0.5696550000000  0.5252400000000  0.4890270000000 1.0
C      1  0.4552160000000  0.4484260000000  0.4710840000000 1.0
C      1  0.4579020000000  0.5530120000000  0.4681050000000 1.0
C      1  0.4558700000000  0.5033180000000  0.5601950000000 1.0
C      1  0.5694770000000  0.4727530000000  0.5124140000000 1.0
C      1  0.5705430000000  0.5015460000000  0.4724420000000 1.0
C      1  0.5706820000000  0.5217620000000  0.5173780000000 1.0
C      1  0.4314010000000  0.5168310000000  0.5239700000000 1.0
C      1  0.4305060000000  0.4738120000000  0.5000430000000 1.0
C      1  0.4317910000000  0.5160290000000  0.4747440000000 1.0
C      1  0.5389690000000  0.5636960000000  0.4948480000000 1.0
C      1  0.5361100000000  0.4723190000000  0.5588720000000 1.0
C      1  0.5367890000000  0.4625610000000  0.4476900000000 1.0
C      1  0.4519890000000  0.5532310000000  0.4969910000000 1.0
C      1  0.4496780000000  0.4783750000000  0.5457410000000 1.0
C      1  0.4503000000000  0.4735830000000  0.4565110000000 1.0
C      1  0.5356980000000  0.5235860000000  0.5492310000000 1.0
C      1  0.5341440000000  0.4453400000000  0.4968610000000 1.0
C      1  0.5366390000000  0.5297880000000  0.4552730000000 1.0
C      1  0.5012150000000  0.5725170000000  0.4662880000000 1.0
C      1  0.4982700000000  0.4938190000000  0.5794780000000 1.0
C      1  0.4978180000000  0.4351560000000  0.4546880000000 1.0
C      1  0.5132960000000  0.4365910000000  0.5378560000000 1.0
C      1  0.5158200000000  0.4992960000000  0.4264890000000 1.0
C      1  0.5165580000000  0.5643730000000  0.5365130000000 1.0
C      1  0.4660650000000  0.4542230000000  0.5417820000000 1.0
C      1  0.4678030000000  0.4885570000000  0.4381550000000 1.0
C      1  0.4689680000000  0.5611140000000  0.5197300000000 1.0
C      1  0.5080760000000  0.4717400000000  0.5674360000000 1.0
C      1  0.5087300000000  0.4563000000000  0.4419390000000 1.0
C      1  0.5112790000000  0.5726690000000  0.4913350000000 1.0
C      1  0.5135910000000  0.5449210000000  0.5567000000000 1.0
C      1  0.5110220000000  0.4289070000000  0.5108280000000 1.0
C      1  0.5141540000000  0.5266080000000  0.4332720000000 1.0
C      1  0.4460500000000  0.5258730000000  0.5462160000000 1.0
C      1  0.4445170000000  0.4495800000000  0.4972530000000 1.0
C      1  0.4469130000000  0.5301040000000  0.4556530000000 1.0
C      1  0.4799940000000  0.5123730000000  0.5728580000000 1.0
C      1  0.4787830000000  0.4321950000000  0.4734230000000 1.0
C      1  0.4821570000000  0.5583570000000  0.4537030000000 1.0
C      1  0.5551820000000  0.5389080000000  0.5336000000000 1.0
C      1  0.5530610000000  0.4506280000000  0.5186080000000 1.0
C      1  0.5550890000000  0.5077310000000  0.4496320000000 1.0
C      1  0.4796180000000  0.5009930000000  0.4999890000000 1.0
C      1  0.5281520000000  0.4997580000000  0.5003940000000 1.0
END
