TITL C-133519-5389-6 0.0233724303836886 125000 -202.443027409227 0 0 31 (C1) n - 1
REM
REM in /rds/project/t2_vol4/rds-t2-cs072/BORA/CARBON/from-Arr/AIRSS/Generating-Clusters/GAP-ML-2020/Higher-Symm/SD-CG/HFTN-CG
REM
REM
REM
REM
REM
REM ./C.cell (b20cbc046b6831c77cfcea5457e17084)
REM AIRSS Version 0.9.1 bugfix July 2018 build 013d7b7c2542+ Fri, 06 Jul 2018 19:26:36 +0100
REM compiler GCC version 9.3.0
REM options -cpp -mtune=generic -march=x86-64 -g -O0
REM seed 1445996870 1514942817 850920916 662209093 2038083210 147601708 -912100310 -1193319954 -888909261 722119270 -155489008 -243645899 1427838548 -2000024891 -1975915560 603289433 -138204399 1388852531 -1154171326 1181575840 2118225949 -1487495712 -1167379076 -1077535377 1716710927 543552571 727797874 998677141 1915300037 1579491436 -1289186090 1658715157 -133456230
REM
CELL 1.54180   50.00000   50.00000   50.00000   90.00000   90.00000   90.00000
LATT -1
SFAC C  
C      1  0.4983180000000  0.4862840000000  0.5059450000000 1.0
C      1  0.5371950000000  0.4696100000000  0.4835890000000 1.0
C      1  0.4752630000000  0.4783290000000  0.4554730000000 1.0
C      1  0.5024060000000  0.5522660000000  0.5041920000000 1.0
C      1  0.5359290000000  0.5406960000000  0.5316080000000 1.0
C      1  0.5061340000000  0.4414270000000  0.4527460000000 1.0
C      1  0.4480970000000  0.5081980000000  0.4887940000000 1.0
C      1  0.4742580000000  0.4884260000000  0.5223950000000 1.0
C      1  0.4608860000000  0.5313760000000  0.4979900000000 1.0
C      1  0.5324710000000  0.5237210000000  0.4575950000000 1.0
C      1  0.5120870000000  0.5390620000000  0.5469790000000 1.0
C      1  0.4954620000000  0.4989550000000  0.4578300000000 1.0
C      1  0.5075870000000  0.4462930000000  0.5260040000000 1.0
C      1  0.5006270000000  0.5079450000000  0.4842860000000 1.0
C      1  0.4911880000000  0.5521640000000  0.5299430000000 1.0
C      1  0.5021870000000  0.5126340000000  0.5520860000000 1.0
C      1  0.5292710000000  0.5407920000000  0.5048170000000 1.0
C      1  0.5141180000000  0.5143540000000  0.4419180000000 1.0
C      1  0.4866820000000  0.5341630000000  0.4875750000000 1.0
C      1  0.4576910000000  0.4852930000000  0.4764190000000 1.0
C      1  0.5197390000000  0.4507760000000  0.4762970000000 1.0
C      1  0.4837180000000  0.4524750000000  0.4464400000000 1.0
C      1  0.4529060000000  0.4853760000000  0.5040970000000 1.0
C      1  0.5033840000000  0.4579700000000  0.5002640000000 1.0
C      1  0.5307160000000  0.5175460000000  0.4862170000000 1.0
C      1  0.5137230000000  0.4631510000000  0.5448500000000 1.0
C      1  0.4677010000000  0.5353120000000  0.5269260000000 1.0
C      1  0.5411880000000  0.4919440000000  0.4980840000000 1.0
C      1  0.5224930000000  0.4933750000000  0.5210570000000 1.0
C      1  0.4769660000000  0.5109800000000  0.5386060000000 1.0
C      1  0.5196100000000  0.4891070000000  0.5489770000000 1.0
END
