TITL C-131491-9385-3 0.194722472581203 125000 -755.505919649349 0 0 108 (C1) n - 1
REM
REM in /rds/project/t2_vol4/rds-t2-cs072/BORA/CARBON/from-Arr/AIRSS/Generating-Clusters/GAP-ML-2020/Higher-Symm/SD-CG/HFTN-CG
REM
REM
REM
REM
REM
REM ./C.cell (b20cbc046b6831c77cfcea5457e17084)
REM AIRSS Version 0.9.1 bugfix July 2018 build 013d7b7c2542+ Fri, 06 Jul 2018 19:26:36 +0100
REM compiler GCC version 9.3.0
REM options -cpp -mtune=generic -march=x86-64 -g -O0
REM seed 1172038104 -83000643 -625015626 1077295353 1417197427 -123304249 -337042742 1204024392 189104012 1054539250 -2101062894 1187393019 -1981151077 1381546233 1701970330 -544426340 -1075746396 -561122121 -1231988489 1521206225 1882894323 -989397587 94705357 1822130076 1635065187 640667321 -1148092013 -1722532765 -448010223 701915063 -1679348239 1994008889 1320769804
REM
CELL 1.54180   50.00000   50.00000   50.00000   90.00000   90.00000   90.00000
LATT -1
SFAC C  
C      1  0.5769960000000  0.4972360000000  0.4445240000000 1.0
C      1  0.5371950000000  0.5115400000000  0.5791890000000 1.0
C      1  0.5145570000000  0.5117790000000  0.4181510000000 1.0
C      1  0.4598590000000  0.5599740000000  0.4715850000000 1.0
C      1  0.5523890000000  0.5780100000000  0.4701990000000 1.0
C      1  0.5606400000000  0.4550900000000  0.5511790000000 1.0
C      1  0.4504100000000  0.4703700000000  0.4391310000000 1.0
C      1  0.4847470000000  0.4937830000000  0.5395590000000 1.0
C      1  0.5742830000000  0.5027600000000  0.4875280000000 1.0
C      1  0.4649070000000  0.5264230000000  0.5887320000000 1.0
C      1  0.5354560000000  0.4173200000000  0.4633650000000 1.0
C      1  0.5126260000000  0.5143600000000  0.5960310000000 1.0
C      1  0.4968090000000  0.5119940000000  0.4908680000000 1.0
C      1  0.4258990000000  0.4964890000000  0.4894550000000 1.0
C      1  0.5459300000000  0.4763280000000  0.4177300000000 1.0
C      1  0.5122470000000  0.5505490000000  0.4957600000000 1.0
C      1  0.5360060000000  0.4356400000000  0.4428980000000 1.0
C      1  0.5186660000000  0.4073630000000  0.5105220000000 1.0
C      1  0.5211040000000  0.4789580000000  0.5162630000000 1.0
C      1  0.5159830000000  0.5804930000000  0.5040570000000 1.0
C      1  0.5796900000000  0.5451400000000  0.4654640000000 1.0
C      1  0.5461970000000  0.5450710000000  0.4349990000000 1.0
C      1  0.5260750000000  0.5173780000000  0.5531720000000 1.0
C      1  0.4884450000000  0.5340990000000  0.5078140000000 1.0
C      1  0.5397190000000  0.5385030000000  0.4865290000000 1.0
C      1  0.4750230000000  0.4610590000000  0.4301570000000 1.0
C      1  0.4524910000000  0.5440030000000  0.4462780000000 1.0
C      1  0.4224190000000  0.4895040000000  0.5402010000000 1.0
C      1  0.4963880000000  0.4682190000000  0.5809840000000 1.0
C      1  0.4618750000000  0.4312500000000  0.5446860000000 1.0
C      1  0.4187750000000  0.5052970000000  0.5170970000000 1.0
C      1  0.5639920000000  0.5564490000000  0.4883980000000 1.0
C      1  0.4875520000000  0.4181940000000  0.5436780000000 1.0
C      1  0.5516640000000  0.5668790000000  0.5332750000000 1.0
C      1  0.4249150000000  0.5326370000000  0.5542060000000 1.0
C      1  0.4535000000000  0.5010570000000  0.5782680000000 1.0
C      1  0.4492010000000  0.4275350000000  0.5191760000000 1.0
C      1  0.5542700000000  0.4572190000000  0.4379480000000 1.0
C      1  0.5156950000000  0.4486740000000  0.5708020000000 1.0
C      1  0.4842780000000  0.5236930000000  0.5356020000000 1.0
C      1  0.4934290000000  0.5299610000000  0.5843500000000 1.0
C      1  0.5490830000000  0.5134990000000  0.4982100000000 1.0
C      1  0.4656450000000  0.4091800000000  0.5039130000000 1.0
C      1  0.4778470000000  0.5811080000000  0.4774110000000 1.0
C      1  0.4613540000000  0.4091710000000  0.4768700000000 1.0
C      1  0.4624770000000  0.5163830000000  0.4552580000000 1.0
C      1  0.5672100000000  0.5505050000000  0.5186750000000 1.0
C      1  0.4923220000000  0.5226870000000  0.4629990000000 1.0
C      1  0.4588530000000  0.5402320000000  0.4941320000000 1.0
C      1  0.5714970000000  0.4586370000000  0.5100310000000 1.0
C      1  0.4324580000000  0.4503100000000  0.5121430000000 1.0
C      1  0.4464580000000  0.4975750000000  0.4381890000000 1.0
C      1  0.5007120000000  0.4612360000000  0.4163870000000 1.0
C      1  0.5290480000000  0.4065660000000  0.4849850000000 1.0
C      1  0.4413330000000  0.5546790000000  0.5621520000000 1.0
C      1  0.5250700000000  0.4971490000000  0.4948020000000 1.0
C      1  0.5271370000000  0.5878570000000  0.4770170000000 1.0
C      1  0.4688930000000  0.5404030000000  0.4186190000000 1.0
C      1  0.4199380000000  0.5089260000000  0.4409770000000 1.0
C      1  0.5100510000000  0.4408810000000  0.4343850000000 1.0
C      1  0.4317250000000  0.4636550000000  0.5379890000000 1.0
C      1  0.4524760000000  0.5661690000000  0.5373720000000 1.0
C      1  0.4870210000000  0.4467680000000  0.4538640000000 1.0
C      1  0.5602000000000  0.5008560000000  0.4215290000000 1.0
C      1  0.5197770000000  0.4852340000000  0.4680530000000 1.0
C      1  0.5028510000000  0.5671330000000  0.5456230000000 1.0
C      1  0.5009060000000  0.4610810000000  0.5047780000000 1.0
C      1  0.5436790000000  0.5234290000000  0.4169820000000 1.0
C      1  0.5018400000000  0.5380970000000  0.5561830000000 1.0
C      1  0.5750870000000  0.4730080000000  0.4855500000000 1.0
C      1  0.4302770000000  0.5059780000000  0.5626360000000 1.0
C      1  0.4905590000000  0.4055030000000  0.5186800000000 1.0
C      1  0.5816740000000  0.5172060000000  0.4641880000000 1.0
C      1  0.5640390000000  0.5624590000000  0.4477060000000 1.0
C      1  0.5402590000000  0.4840960000000  0.5855700000000 1.0
C      1  0.5057040000000  0.5505300000000  0.4655320000000 1.0
C      1  0.4408220000000  0.5508230000000  0.5161510000000 1.0
C      1  0.4500890000000  0.5501830000000  0.5875850000000 1.0
C      1  0.5263220000000  0.5763360000000  0.5319020000000 1.0
C      1  0.4128740000000  0.5125910000000  0.4670140000000 1.0
C      1  0.4223470000000  0.5321520000000  0.5262040000000 1.0
C      1  0.5132860000000  0.4274710000000  0.5525300000000 1.0
C      1  0.4710810000000  0.4784830000000  0.5669960000000 1.0
C      1  0.4528990000000  0.4558550000000  0.5559680000000 1.0
C      1  0.4614240000000  0.4326080000000  0.4637480000000 1.0
C      1  0.4906590000000  0.5292630000000  0.4116650000000 1.0
C      1  0.4766430000000  0.4905140000000  0.4900810000000 1.0
C      1  0.4423420000000  0.4551100000000  0.4634510000000 1.0
C      1  0.4975650000000  0.4670450000000  0.4755180000000 1.0
C      1  0.5717460000000  0.4712330000000  0.4565080000000 1.0
C      1  0.5151390000000  0.4932860000000  0.5401040000000 1.0
C      1  0.4785690000000  0.5765340000000  0.5315400000000 1.0
C      1  0.4529930000000  0.5104780000000  0.4830550000000 1.0
C      1  0.4791180000000  0.4766170000000  0.5154490000000 1.0
C      1  0.5715280000000  0.5022910000000  0.5396590000000 1.0
C      1  0.4867680000000  0.5838520000000  0.5050160000000 1.0
C      1  0.5026200000000  0.5802680000000  0.4628010000000 1.0
C      1  0.4295480000000  0.4653390000000  0.4871790000000 1.0
C      1  0.5187440000000  0.4821230000000  0.4100230000000 1.0
C      1  0.5678100000000  0.5212930000000  0.5199940000000 1.0
C      1  0.5157470000000  0.5097650000000  0.4501880000000 1.0
C      1  0.5566060000000  0.4383660000000  0.5281350000000 1.0
C      1  0.5328070000000  0.4219640000000  0.5312850000000 1.0
C      1  0.5733210000000  0.4761100000000  0.5349590000000 1.0
C      1  0.5310940000000  0.5354300000000  0.4577150000000 1.0
C      1  0.5427830000000  0.4596930000000  0.5720760000000 1.0
C      1  0.4243290000000  0.5348750000000  0.4493210000000 1.0
C      1  0.5126120000000  0.4855800000000  0.5969790000000 1.0
END
