TITL C-132780-1286-2 -45.3302464800702 125000 -804.170030544454 0 0 114 (C1) n - 1
REM
REM in /rds/project/t2_vol4/rds-t2-cs072/BORA/CARBON/from-Arr/AIRSS/Generating-Clusters/GAP-ML-2020/Higher-Symm/SD-CG/HFTN-CG
REM
REM
REM
REM
REM
REM ./C.cell (b20cbc046b6831c77cfcea5457e17084)
REM AIRSS Version 0.9.1 bugfix July 2018 build 013d7b7c2542+ Fri, 06 Jul 2018 19:26:36 +0100
REM compiler GCC version 9.3.0
REM options -cpp -mtune=generic -march=x86-64 -g -O0
REM seed 180963823 2132471400 -1701920885 1644188783 -1155858150 -1376633 -1584456709 397461589 -1957368975 1522298057 -592459248 -298098793 1294287808 1520518538 1287999026 -604495074 -451983046 902267838 -1243928458 1290472726 158305448 183363557 -514887246 -1548985010 1140143809 1636653665 178854583 2070933787 -592316257 1359986937 500856229 -899688062 453541443
REM
CELL 1.54180   50.00000   50.00000   50.00000   90.00000   90.00000   90.00000
LATT -1
SFAC C  
C      1  0.5051060000000  0.4906730000000  0.5490570000000 1.0
C      1  0.5065430000000  0.4908690000000  0.4509520000000 1.0
C      1  0.5122790000000  0.5437720000000  0.5702700000000 1.0
C      1  0.5126530000000  0.5437000000000  0.4299930000000 1.0
C      1  0.5245690000000  0.4771520000000  0.4115950000000 1.0
C      1  0.5237590000000  0.4771120000000  0.5889630000000 1.0
C      1  0.4803420000000  0.5776780000000  0.5529880000000 1.0
C      1  0.4805140000000  0.5776160000000  0.4470420000000 1.0
C      1  0.5028120000000  0.4431890000000  0.5664430000000 1.0
C      1  0.5033770000000  0.4433860000000  0.4339500000000 1.0
C      1  0.5297940000000  0.5218740000000  0.4759610000000 1.0
C      1  0.5293570000000  0.5217980000000  0.5242670000000 1.0
C      1  0.4809790000000  0.5828400000000  0.4736560000000 1.0
C      1  0.4809470000000  0.5829910000000  0.5264040000000 1.0
C      1  0.4355990000000  0.5075310000000  0.5554350000000 1.0
C      1  0.4352150000000  0.5072490000000  0.4447400000000 1.0
C      1  0.4346950000000  0.4775890000000  0.5139500000000 1.0
C      1  0.4271990000000  0.4769600000000  0.4852800000000 1.0
C      1  0.5298250000000  0.4407850000000  0.5577480000000 1.0
C      1  0.5303760000000  0.4409250000000  0.4427070000000 1.0
C      1  0.5498560000000  0.5689990000000  0.5143000000000 1.0
C      1  0.5501480000000  0.5689470000000  0.4859870000000 1.0
C      1  0.5300270000000  0.5044030000000  0.4075330000000 1.0
C      1  0.5294000000000  0.5043900000000  0.5926830000000 1.0
C      1  0.5082080000000  0.5229930000000  0.4091340000000 1.0
C      1  0.5078850000000  0.5231660000000  0.5911740000000 1.0
C      1  0.5076560000000  0.5843540000000  0.4851640000000 1.0
C      1  0.5076330000000  0.5843890000000  0.5149780000000 1.0
C      1  0.4477490000000  0.4852540000000  0.5695520000000 1.0
C      1  0.4478650000000  0.4849310000000  0.4310780000000 1.0
C      1  0.4802370000000  0.5155110000000  0.5880560000000 1.0
C      1  0.4805640000000  0.5152360000000  0.4124850000000 1.0
C      1  0.5557850000000  0.4369410000000  0.5148700000000 1.0
C      1  0.5559080000000  0.4375020000000  0.4852850000000 1.0
C      1  0.4420010000000  0.4316990000000  0.4856660000000 1.0
C      1  0.4419050000000  0.4309090000000  0.5150080000000 1.0
C      1  0.5222940000000  0.5164390000000  0.4472600000000 1.0
C      1  0.5214550000000  0.5161280000000  0.5529110000000 1.0
C      1  0.4762810000000  0.4752810000000  0.4839420000000 1.0
C      1  0.4709580000000  0.4767010000000  0.5133720000000 1.0
C      1  0.4402750000000  0.5495590000000  0.4719820000000 1.0
C      1  0.4402500000000  0.5501180000000  0.5284160000000 1.0
C      1  0.4893030000000  0.4123600000000  0.4712210000000 1.0
C      1  0.4891720000000  0.4122090000000  0.5287410000000 1.0
C      1  0.5554820000000  0.5398040000000  0.5155650000000 1.0
C      1  0.5557820000000  0.5396250000000  0.4848830000000 1.0
C      1  0.5588820000000  0.4848780000000  0.4409050000000 1.0
C      1  0.5579090000000  0.4845380000000  0.5597570000000 1.0
C      1  0.4272650000000  0.5036980000000  0.4736070000000 1.0
C      1  0.4295000000000  0.5042220000000  0.5263630000000 1.0
C      1  0.5031280000000  0.5303880000000  0.5135660000000 1.0
C      1  0.5031860000000  0.5301210000000  0.4865420000000 1.0
C      1  0.5681820000000  0.4861910000000  0.4690980000000 1.0
C      1  0.5662030000000  0.4853710000000  0.5314050000000 1.0
C      1  0.5204220000000  0.4768090000000  0.4727720000000 1.0
C      1  0.5171770000000  0.4774110000000  0.5265880000000 1.0
C      1  0.5359260000000  0.4265190000000  0.4685890000000 1.0
C      1  0.5353450000000  0.4266750000000  0.5315400000000 1.0
C      1  0.4840970000000  0.4264670000000  0.5536690000000 1.0
C      1  0.4842810000000  0.4265050000000  0.4461140000000 1.0
C      1  0.5148630000000  0.4129060000000  0.5153730000000 1.0
C      1  0.5150880000000  0.4128570000000  0.4846450000000 1.0
C      1  0.5738820000000  0.5329530000000  0.4630310000000 1.0
C      1  0.5734510000000  0.5325900000000  0.5372300000000 1.0
C      1  0.5355970000000  0.5574880000000  0.4424340000000 1.0
C      1  0.5352210000000  0.5572370000000  0.5577820000000 1.0
C      1  0.4514250000000  0.5245640000000  0.4856790000000 1.0
C      1  0.4515940000000  0.5253250000000  0.5148830000000 1.0
C      1  0.5480000000000  0.5110840000000  0.4304230000000 1.0
C      1  0.5473460000000  0.5108610000000  0.5698880000000 1.0
C      1  0.4732760000000  0.4883260000000  0.4166030000000 1.0
C      1  0.4729450000000  0.4885940000000  0.5841520000000 1.0
C      1  0.5879350000000  0.5087170000000  0.4696390000000 1.0
C      1  0.5854310000000  0.5079930000000  0.5284170000000 1.0
C      1  0.5580330000000  0.5375840000000  0.5606200000000 1.0
C      1  0.5584960000000  0.5380310000000  0.4395810000000 1.0
C      1  0.6129020000000  0.5080980000000  0.4836030000000 1.0
C      1  0.6025910000000  0.5080620000000  0.5071140000000 1.0
C      1  0.4573700000000  0.5717580000000  0.5139470000000 1.0
C      1  0.4574400000000  0.5713580000000  0.4861240000000 1.0
C      1  0.4649910000000  0.4125520000000  0.5143570000000 1.0
C      1  0.4650790000000  0.4131670000000  0.4855920000000 1.0
C      1  0.4985310000000  0.4600590000000  0.5141640000000 1.0
C      1  0.5011860000000  0.4607850000000  0.4863280000000 1.0
C      1  0.4439380000000  0.4590950000000  0.5573840000000 1.0
C      1  0.4436380000000  0.4586440000000  0.4430140000000 1.0
C      1  0.5305010000000  0.5748840000000  0.5331980000000 1.0
C      1  0.5307380000000  0.5748270000000  0.4671320000000 1.0
C      1  0.4432760000000  0.5341140000000  0.4422050000000 1.0
C      1  0.4431340000000  0.5346450000000  0.5582460000000 1.0
C      1  0.4606970000000  0.4382060000000  0.4401240000000 1.0
C      1  0.4606310000000  0.4383870000000  0.5594810000000 1.0
C      1  0.4331390000000  0.4538740000000  0.4700480000000 1.0
C      1  0.4339370000000  0.4533880000000  0.5304890000000 1.0
C      1  0.4821550000000  0.4960750000000  0.5322900000000 1.0
C      1  0.4827490000000  0.4961190000000  0.4666130000000 1.0
C      1  0.4862910000000  0.5563030000000  0.4319330000000 1.0
C      1  0.4860230000000  0.5565300000000  0.5683080000000 1.0
C      1  0.5722810000000  0.4614340000000  0.4857920000000 1.0
C      1  0.5716430000000  0.4610600000000  0.5148550000000 1.0
C      1  0.4791620000000  0.5215220000000  0.4749840000000 1.0
C      1  0.4792680000000  0.5221200000000  0.5254380000000 1.0
C      1  0.4141190000000  0.5483190000000  0.5150260000000 1.0
C      1  0.4141600000000  0.5482780000000  0.4857120000000 1.0
C      1  0.4986990000000  0.4718750000000  0.4245160000000 1.0
C      1  0.4980390000000  0.4718450000000  0.5760230000000 1.0
C      1  0.4059600000000  0.5205020000000  0.4862330000000 1.0
C      1  0.4067040000000  0.5202750000000  0.5145940000000 1.0
C      1  0.5421850000000  0.4640590000000  0.5707490000000 1.0
C      1  0.5430040000000  0.4642800000000  0.4300740000000 1.0
C      1  0.5381410000000  0.4944040000000  0.5152420000000 1.0
C      1  0.5394130000000  0.4947890000000  0.4851040000000 1.0
C      1  0.4662300000000  0.5367750000000  0.4255440000000 1.0
C      1  0.4659540000000  0.5370920000000  0.5748790000000 1.0
END
