TITL C-133508-5418-1 0.0846929902527296 125000 -467.618198821956 0 0 69 (C1) n - 1
REM
REM in /rds/project/t2_vol4/rds-t2-cs072/BORA/CARBON/from-Arr/AIRSS/Generating-Clusters/GAP-ML-2020/Higher-Symm/SD-CG/HFTN-CG
REM
REM
REM
REM
REM
REM ./C.cell (b20cbc046b6831c77cfcea5457e17084)
REM AIRSS Version 0.9.1 bugfix July 2018 build 013d7b7c2542+ Fri, 06 Jul 2018 19:26:36 +0100
REM compiler GCC version 9.3.0
REM options -cpp -mtune=generic -march=x86-64 -g -O0
REM seed -1355392862 -1427286404 -58192659 1927007409 1970443802 -1339501204 189662057 45431050 1036845614 -1442175357 1803534675 -1505216790 960864578 -845817588 -1332031299 -1051948383 -58890163 1153806092 1967101452 1111027183 -1937525527 -1063804135 -1924256987 -111394101 -703876305 -1987793477 -1605641259 199749107 -562439549 437197927 -1517839710 1157622226 -435105707
REM
CELL 1.54180   50.00000   50.00000   50.00000   90.00000   90.00000   90.00000
LATT -1
SFAC C  
C      1  0.4882150000000  0.4898050000000  0.4263740000000 1.0
C      1  0.4870000000000  0.4921720000000  0.4909710000000 1.0
C      1  0.5305860000000  0.5070990000000  0.5176470000000 1.0
C      1  0.5293840000000  0.4387720000000  0.4636200000000 1.0
C      1  0.5260780000000  0.5065850000000  0.4719370000000 1.0
C      1  0.4462130000000  0.5009530000000  0.5567290000000 1.0
C      1  0.4539900000000  0.5395140000000  0.4923270000000 1.0
C      1  0.4629980000000  0.5568890000000  0.5154980000000 1.0
C      1  0.4819420000000  0.5047580000000  0.5177760000000 1.0
C      1  0.5417770000000  0.5529740000000  0.4863870000000 1.0
C      1  0.5267420000000  0.4627460000000  0.4999810000000 1.0
C      1  0.4880370000000  0.4636610000000  0.4367450000000 1.0
C      1  0.5671630000000  0.4928160000000  0.4841260000000 1.0
C      1  0.4676500000000  0.5082330000000  0.4349620000000 1.0
C      1  0.5421680000000  0.4717250000000  0.5499540000000 1.0
C      1  0.4994470000000  0.4675430000000  0.4848220000000 1.0
C      1  0.5529350000000  0.5272190000000  0.5250420000000 1.0
C      1  0.4289570000000  0.5388510000000  0.4758650000000 1.0
C      1  0.5273460000000  0.5455430000000  0.4482930000000 1.0
C      1  0.5314280000000  0.4792920000000  0.5755080000000 1.0
C      1  0.5386870000000  0.4911470000000  0.4941120000000 1.0
C      1  0.4895820000000  0.5642630000000  0.5113730000000 1.0
C      1  0.5687710000000  0.5214540000000  0.4784850000000 1.0
C      1  0.4332470000000  0.4963500000000  0.4903790000000 1.0
C      1  0.4514970000000  0.4593250000000  0.5277330000000 1.0
C      1  0.5286680000000  0.4867460000000  0.4498650000000 1.0
C      1  0.5073740000000  0.5468900000000  0.5287930000000 1.0
C      1  0.4373490000000  0.4695510000000  0.4829920000000 1.0
C      1  0.5128560000000  0.4931270000000  0.5861290000000 1.0
C      1  0.5764820000000  0.4868140000000  0.5117580000000 1.0
C      1  0.4921820000000  0.4908950000000  0.5427020000000 1.0
C      1  0.4534870000000  0.5457710000000  0.5400530000000 1.0
C      1  0.5233420000000  0.4596930000000  0.5285090000000 1.0
C      1  0.4406060000000  0.5202360000000  0.5360510000000 1.0
C      1  0.4780010000000  0.4426890000000  0.4894340000000 1.0
C      1  0.4635530000000  0.4523040000000  0.4458320000000 1.0
C      1  0.4505460000000  0.4726610000000  0.5508210000000 1.0
C      1  0.4291440000000  0.5128440000000  0.4670440000000 1.0
C      1  0.5140020000000  0.5024370000000  0.4290320000000 1.0
C      1  0.5248380000000  0.5521300000000  0.5642030000000 1.0
C      1  0.5610860000000  0.5390450000000  0.5001650000000 1.0
C      1  0.5000400000000  0.5165460000000  0.4824760000000 1.0
C      1  0.5106520000000  0.4626250000000  0.4559690000000 1.0
C      1  0.5363340000000  0.5475770000000  0.5402990000000 1.0
C      1  0.4798760000000  0.5390760000000  0.4729840000000 1.0
C      1  0.5063350000000  0.5223870000000  0.5116510000000 1.0
C      1  0.5236920000000  0.4331650000000  0.4909800000000 1.0
C      1  0.5450370000000  0.5290070000000  0.4640320000000 1.0
C      1  0.5667760000000  0.4805420000000  0.5370880000000 1.0
C      1  0.4953110000000  0.5622560000000  0.4829270000000 1.0
C      1  0.4982620000000  0.4297880000000  0.5061370000000 1.0
C      1  0.5571900000000  0.4758680000000  0.4586250000000 1.0
C      1  0.4515380000000  0.4525810000000  0.5009980000000 1.0
C      1  0.4987560000000  0.4449800000000  0.5312810000000 1.0
C      1  0.5205390000000  0.4876530000000  0.5366420000000 1.0
C      1  0.4508230000000  0.5123190000000  0.5095870000000 1.0
C      1  0.5553960000000  0.4489210000000  0.4566280000000 1.0
C      1  0.4811710000000  0.5317930000000  0.4437810000000 1.0
C      1  0.5735580000000  0.5065390000000  0.5314310000000 1.0
C      1  0.4440490000000  0.4705600000000  0.4552220000000 1.0
C      1  0.4438870000000  0.4981380000000  0.4468080000000 1.0
C      1  0.4695340000000  0.5425180000000  0.5627760000000 1.0
C      1  0.5083640000000  0.5302500000000  0.4351590000000 1.0
C      1  0.4983650000000  0.5395090000000  0.5575810000000 1.0
C      1  0.4647860000000  0.5151490000000  0.5729270000000 1.0
C      1  0.5205480000000  0.5622990000000  0.4710370000000 1.0
C      1  0.4927300000000  0.5078820000000  0.5676900000000 1.0
C      1  0.4722270000000  0.4328200000000  0.4635200000000 1.0
C      1  0.4788690000000  0.4637270000000  0.5437300000000 1.0
END
