TITL C-132118-1673-8 0.059958197578076 125000 -193.659939805581 0 0 30 (C1) n - 1
REM
REM in /rds/project/t2_vol4/rds-t2-cs072/BORA/CARBON/from-Arr/AIRSS/Generating-Clusters/GAP-ML-2020/Higher-Symm/SD-CG/HFTN-CG
REM
REM
REM
REM
REM
REM ./C.cell (b20cbc046b6831c77cfcea5457e17084)
REM AIRSS Version 0.9.1 bugfix July 2018 build 013d7b7c2542+ Fri, 06 Jul 2018 19:26:36 +0100
REM compiler GCC version 9.3.0
REM options -cpp -mtune=generic -march=x86-64 -g -O0
REM seed 1699062190 -987643245 1260638573 2033303883 -693138762 -1307532194 -1255194999 -546638057 1895127168 1819912436 -2041678241 481500674 161107728 189894747 -1864682913 1825916449 -1274999906 141297601 1010468181 -1140131718 444000427 -1825251610 -1980213490 1313826490 -732391326 -1877170460 1340985583 1508561511 581808770 1028406239 362951693 -478756188 1292970430
REM
CELL 1.54180   50.00000   50.00000   50.00000   90.00000   90.00000   90.00000
LATT -1
SFAC C  
C      1  0.4601820000000  0.5191250000000  0.5326780000000 1.0
C      1  0.5028590000000  0.5371330000000  0.5274830000000 1.0
C      1  0.4755450000000  0.4817390000000  0.4739940000000 1.0
C      1  0.4836320000000  0.4720490000000  0.5016450000000 1.0
C      1  0.4877400000000  0.5132770000000  0.5294990000000 1.0
C      1  0.5146500000000  0.5400090000000  0.4988510000000 1.0
C      1  0.4706150000000  0.5326570000000  0.4653830000000 1.0
C      1  0.5523070000000  0.5187400000000  0.5126640000000 1.0
C      1  0.5266190000000  0.4821650000000  0.5259550000000 1.0
C      1  0.5320890000000  0.5002380000000  0.4749810000000 1.0
C      1  0.5534660000000  0.5157730000000  0.4841420000000 1.0
C      1  0.5299830000000  0.4545530000000  0.5197930000000 1.0
C      1  0.4786120000000  0.4637730000000  0.4526440000000 1.0
C      1  0.5079580000000  0.5119520000000  0.4880700000000 1.0
C      1  0.5048720000000  0.4579490000000  0.4597530000000 1.0
C      1  0.5084340000000  0.4392810000000  0.5269200000000 1.0
C      1  0.4912260000000  0.5601390000000  0.4957530000000 1.0
C      1  0.4278310000000  0.4846880000000  0.5108570000000 1.0
C      1  0.5434490000000  0.5021180000000  0.5313590000000 1.0
C      1  0.4830020000000  0.5094130000000  0.4726480000000 1.0
C      1  0.5285000000000  0.4729570000000  0.4713500000000 1.0
C      1  0.4740820000000  0.5564020000000  0.4745370000000 1.0
C      1  0.4936630000000  0.4446350000000  0.5045560000000 1.0
C      1  0.4405160000000  0.5012070000000  0.5250220000000 1.0
C      1  0.4593270000000  0.5483740000000  0.5344350000000 1.0
C      1  0.5431480000000  0.5407790000000  0.4978400000000 1.0
C      1  0.5007520000000  0.4926730000000  0.5139550000000 1.0
C      1  0.5337100000000  0.4504550000000  0.4893580000000 1.0
C      1  0.5086470000000  0.4372160000000  0.4802370000000 1.0
C      1  0.4825870000000  0.5585310000000  0.5236370000000 1.0
END
