TITL C-131474-8480-2 -0.00999316386344815 125000 -74.3886872240837 0 0 12 (C1) n - 1
REM
REM in /rds/project/t2_vol4/rds-t2-cs072/BORA/CARBON/from-Arr/AIRSS/Generating-Clusters/GAP-ML-2020/Higher-Symm/SD-CG/HFTN-CG
REM
REM
REM
REM
REM
REM ./C.cell (b20cbc046b6831c77cfcea5457e17084)
REM AIRSS Version 0.9.1 bugfix July 2018 build 013d7b7c2542+ Fri, 06 Jul 2018 19:26:36 +0100
REM compiler GCC version 9.3.0
REM options -cpp -mtune=generic -march=x86-64 -g -O0
REM seed 1805552080 838163002 1467116497 944698234 593660825 -1385077635 254995202 867339700 -313100855 691817612 147373937 1038722265 -1533096168 1921115434 1415280849 -749594563 729156674 1397626112 -783379040 -1769676318 -1042404750 1650149251 -585930737 564806711 -1757349943 1205712980 442073885 887759991 -977285952 -914592387 -824830199 -2107183620 -1979065935
REM
CELL 1.54180   50.00000   50.00000   50.00000   90.00000   90.00000   90.00000
LATT -1
SFAC C  
C      1  0.4938160000000  0.5474330000000  0.4782110000000 1.0
C      1  0.4693550000000  0.5602130000000  0.4843730000000 1.0
C      1  0.4687740000000  0.5699030000000  0.5092290000000 1.0
C      1  0.4872120000000  0.5683750000000  0.5269060000000 1.0
C      1  0.5113780000000  0.5603560000000  0.5334250000000 1.0
C      1  0.5204710000000  0.5473540000000  0.5089010000000 1.0
C      1  0.5195370000000  0.5613970000000  0.4830160000000 1.0
C      1  0.5073250000000  0.5254500000000  0.4934320000000 1.0
C      1  0.5033750000000  0.4990400000000  0.4968780000000 1.0
C      1  0.5009640000000  0.4744020000000  0.4990850000000 1.0
C      1  0.4977570000000  0.4230430000000  0.5019090000000 1.0
C      1  0.4993580000000  0.4483040000000  0.5004840000000 1.0
END
