TITL C-132787-1232-2 107.792923924178 125000 -1099.15843689871 0 0 156 (C1) n - 1
REM
REM in /rds/project/t2_vol4/rds-t2-cs072/BORA/CARBON/from-Arr/AIRSS/Generating-Clusters/GAP-ML-2020/Higher-Symm/SD-CG/HFTN-CG
REM
REM
REM
REM
REM
REM ./C.cell (b20cbc046b6831c77cfcea5457e17084)
REM AIRSS Version 0.9.1 bugfix July 2018 build 013d7b7c2542+ Fri, 06 Jul 2018 19:26:36 +0100
REM compiler GCC version 9.3.0
REM options -cpp -mtune=generic -march=x86-64 -g -O0
REM seed 977370039 -1139833638 329822224 2147004368 -2069787670 188633333 1125279534 1520450959 -862966756 -1125708283 252607057 1091340918 -1746432703 250940385 1688868502 -261207287 1618660210 523005850 1902354764 124819243 1189705679 2007105989 -1613668653 2112460632 1649446627 1234010370 196333304 -676980950 -681003334 746768519 -1528729636 -1308388403 1400206711
REM
CELL 1.54180   50.00000   50.00000   50.00000   90.00000   90.00000   90.00000
LATT -1
SFAC C  
C      1  0.3979060000000  0.4958450000000  0.5386590000000 1.0
C      1  0.4506000000000  0.5125650000000  0.5263450000000 1.0
C      1  0.5147880000000  0.5016690000000  0.5052340000000 1.0
C      1  0.5686880000000  0.5017690000000  0.5118710000000 1.0
C      1  0.5898800000000  0.5621170000000  0.5256740000000 1.0
C      1  0.4999300000000  0.5069060000000  0.5495930000000 1.0
C      1  0.5237810000000  0.5956960000000  0.5103010000000 1.0
C      1  0.5554100000000  0.4108120000000  0.4469670000000 1.0
C      1  0.5846100000000  0.5878820000000  0.4892640000000 1.0
C      1  0.5410590000000  0.4415880000000  0.5441590000000 1.0
C      1  0.4469600000000  0.5582300000000  0.5497240000000 1.0
C      1  0.5850930000000  0.5013180000000  0.5626830000000 1.0
C      1  0.4236980000000  0.4244380000000  0.5470200000000 1.0
C      1  0.5751200000000  0.4871980000000  0.4261580000000 1.0
C      1  0.5810600000000  0.4439540000000  0.4478990000000 1.0
C      1  0.4605830000000  0.5341710000000  0.5391320000000 1.0
C      1  0.4874580000000  0.5074730000000  0.4977200000000 1.0
C      1  0.5529470000000  0.4779780000000  0.4100810000000 1.0
C      1  0.5051110000000  0.4926760000000  0.4028710000000 1.0
C      1  0.5500850000000  0.4953410000000  0.5347850000000 1.0
C      1  0.4569590000000  0.4114880000000  0.4981910000000 1.0
C      1  0.5048670000000  0.5558670000000  0.4803180000000 1.0
C      1  0.4658770000000  0.5795910000000  0.5506930000000 1.0
C      1  0.4205990000000  0.5635890000000  0.5399360000000 1.0
C      1  0.5117370000000  0.4741110000000  0.5172430000000 1.0
C      1  0.4131080000000  0.5043110000000  0.4662430000000 1.0
C      1  0.3972440000000  0.4897200000000  0.4875320000000 1.0
C      1  0.5353190000000  0.5399250000000  0.5261250000000 1.0
C      1  0.4718450000000  0.4898920000000  0.4319480000000 1.0
C      1  0.5288770000000  0.5395180000000  0.4743600000000 1.0
C      1  0.5589130000000  0.5166770000000  0.4894020000000 1.0
C      1  0.4881490000000  0.4893240000000  0.4736560000000 1.0
C      1  0.5349530000000  0.5582720000000  0.5704960000000 1.0
C      1  0.5854330000000  0.4489910000000  0.5608540000000 1.0
C      1  0.5478080000000  0.5428660000000  0.4980150000000 1.0
C      1  0.5711660000000  0.4330310000000  0.5435780000000 1.0
C      1  0.4119800000000  0.4466460000000  0.5344060000000 1.0
C      1  0.4740390000000  0.5310070000000  0.5893860000000 1.0
C      1  0.5843770000000  0.5317000000000  0.4476820000000 1.0
C      1  0.5509460000000  0.4736840000000  0.5814380000000 1.0
C      1  0.4889770000000  0.5754350000000  0.5666350000000 1.0
C      1  0.4690870000000  0.5284070000000  0.4608010000000 1.0
C      1  0.5444360000000  0.5225640000000  0.4228570000000 1.0
C      1  0.5647320000000  0.4253970000000  0.4971650000000 1.0
C      1  0.4164340000000  0.5718100000000  0.4930990000000 1.0
C      1  0.5064850000000  0.5749340000000  0.4565400000000 1.0
C      1  0.6051430000000  0.4899570000000  0.4982790000000 1.0
C      1  0.5834030000000  0.5580880000000  0.4556370000000 1.0
C      1  0.4224890000000  0.4808370000000  0.5732110000000 1.0
C      1  0.4582620000000  0.5038910000000  0.4094650000000 1.0
C      1  0.4697320000000  0.4195710000000  0.4539360000000 1.0
C      1  0.4619270000000  0.5943380000000  0.5240900000000 1.0
C      1  0.5710750000000  0.5150730000000  0.4294480000000 1.0
C      1  0.4646440000000  0.4999400000000  0.4588450000000 1.0
C      1  0.5063530000000  0.4510670000000  0.5754570000000 1.0
C      1  0.5086900000000  0.5547810000000  0.5299320000000 1.0
C      1  0.5962010000000  0.5623060000000  0.4811000000000 1.0
C      1  0.4899860000000  0.5542590000000  0.5858720000000 1.0
C      1  0.5216020000000  0.5171420000000  0.5930970000000 1.0
C      1  0.4060720000000  0.5186890000000  0.5548270000000 1.0
C      1  0.4096220000000  0.5337780000000  0.4676500000000 1.0
C      1  0.5765950000000  0.5866170000000  0.5161790000000 1.0
C      1  0.4848840000000  0.4441600000000  0.4505590000000 1.0
C      1  0.4085110000000  0.4718000000000  0.5492830000000 1.0
C      1  0.4885010000000  0.4803450000000  0.5368690000000 1.0
C      1  0.5582960000000  0.5124490000000  0.5637420000000 1.0
C      1  0.4352320000000  0.5728440000000  0.4714350000000 1.0
C      1  0.4702310000000  0.5462100000000  0.4363060000000 1.0
C      1  0.4028560000000  0.5419730000000  0.5391080000000 1.0
C      1  0.4658480000000  0.4902860000000  0.5179650000000 1.0
C      1  0.4758200000000  0.5857980000000  0.4999860000000 1.0
C      1  0.5226450000000  0.4224910000000  0.5277550000000 1.0
C      1  0.4873430000000  0.4591880000000  0.5952590000000 1.0
C      1  0.5907020000000  0.4873100000000  0.4719220000000 1.0
C      1  0.5067320000000  0.4046630000000  0.4802580000000 1.0
C      1  0.5292980000000  0.5100000000000  0.4797690000000 1.0
C      1  0.5839840000000  0.5451530000000  0.5473830000000 1.0
C      1  0.4829020000000  0.4866910000000  0.6013530000000 1.0
C      1  0.5993080000000  0.5154470000000  0.5141780000000 1.0
C      1  0.4876160000000  0.5299560000000  0.4180290000000 1.0
C      1  0.4811430000000  0.4613400000000  0.4810620000000 1.0
C      1  0.4556790000000  0.4725620000000  0.4948650000000 1.0
C      1  0.4117490000000  0.4425250000000  0.5055350000000 1.0
C      1  0.5605710000000  0.5792470000000  0.4512770000000 1.0
C      1  0.4011000000000  0.4612950000000  0.4854090000000 1.0
C      1  0.4682210000000  0.4169760000000  0.5232370000000 1.0
C      1  0.5688160000000  0.5984540000000  0.4690800000000 1.0
C      1  0.5782200000000  0.4734560000000  0.5702740000000 1.0
C      1  0.4182070000000  0.4959820000000  0.4371770000000 1.0
C      1  0.4408270000000  0.4700360000000  0.5923280000000 1.0
C      1  0.4795670000000  0.5726580000000  0.4507780000000 1.0
C      1  0.5281810000000  0.4466520000000  0.4882000000000 1.0
C      1  0.4239740000000  0.5098970000000  0.5751440000000 1.0
C      1  0.5405790000000  0.4670200000000  0.5268760000000 1.0
C      1  0.5340610000000  0.5428810000000  0.4427280000000 1.0
C      1  0.4608310000000  0.4496810000000  0.5875680000000 1.0
C      1  0.5281490000000  0.5969460000000  0.5378500000000 1.0
C      1  0.5783780000000  0.4772880000000  0.4988750000000 1.0
C      1  0.4507880000000  0.4227810000000  0.5449830000000 1.0
C      1  0.5025250000000  0.5734810000000  0.5049670000000 1.0
C      1  0.4367910000000  0.6060150000000  0.5206560000000 1.0
C      1  0.4950660000000  0.5085840000000  0.5838390000000 1.0
C      1  0.4820810000000  0.5346420000000  0.4845070000000 1.0
C      1  0.5124400000000  0.4353130000000  0.4432860000000 1.0
C      1  0.4475750000000  0.5178160000000  0.5921290000000 1.0
C      1  0.5132490000000  0.4956310000000  0.4579480000000 1.0
C      1  0.4446800000000  0.4513870000000  0.4293590000000 1.0
C      1  0.3929490000000  0.5329790000000  0.5132180000000 1.0
C      1  0.5175510000000  0.4456700000000  0.4152890000000 1.0
C      1  0.5180920000000  0.4051990000000  0.4531890000000 1.0
C      1  0.5722030000000  0.4236230000000  0.4678900000000 1.0
C      1  0.4014450000000  0.5475760000000  0.4910250000000 1.0
C      1  0.4259810000000  0.5520070000000  0.4529400000000 1.0
C      1  0.4887330000000  0.4504440000000  0.5502940000000 1.0
C      1  0.4736310000000  0.4608790000000  0.4270470000000 1.0
C      1  0.4219730000000  0.4674130000000  0.4376660000000 1.0
C      1  0.5499690000000  0.5974550000000  0.5207960000000 1.0
C      1  0.4625820000000  0.5807840000000  0.4735490000000 1.0
C      1  0.5440030000000  0.5013560000000  0.5857230000000 1.0
C      1  0.4648670000000  0.4389640000000  0.5624630000000 1.0
C      1  0.4344560000000  0.5152270000000  0.4213670000000 1.0
C      1  0.4993770000000  0.5040420000000  0.4305830000000 1.0
C      1  0.5330980000000  0.5716800000000  0.4437970000000 1.0
C      1  0.5457480000000  0.4503090000000  0.4120780000000 1.0
C      1  0.5333470000000  0.4996250000000  0.4074780000000 1.0
C      1  0.4889690000000  0.5333300000000  0.5399350000000 1.0
C      1  0.5385490000000  0.3890950000000  0.4428820000000 1.0
C      1  0.4409660000000  0.5414880000000  0.4314770000000 1.0
C      1  0.4778040000000  0.4074130000000  0.4785080000000 1.0
C      1  0.4208570000000  0.5832710000000  0.5185170000000 1.0
C      1  0.5546280000000  0.5417720000000  0.5541420000000 1.0
C      1  0.5303130000000  0.4518020000000  0.4605860000000 1.0
C      1  0.5015570000000  0.4522390000000  0.5007330000000 1.0
C      1  0.4808850000000  0.5136820000000  0.3952290000000 1.0
C      1  0.3920010000000  0.5042260000000  0.5117970000000 1.0
C      1  0.4975410000000  0.4635560000000  0.4071850000000 1.0
C      1  0.5190770000000  0.5453350000000  0.5890600000000 1.0
C      1  0.4548900000000  0.4921670000000  0.6035810000000 1.0
C      1  0.5624360000000  0.4335680000000  0.4282050000000 1.0
C      1  0.5258310000000  0.5121070000000  0.5304860000000 1.0
C      1  0.5801600000000  0.5136190000000  0.4685460000000 1.0
C      1  0.4425220000000  0.4894560000000  0.4747290000000 1.0
C      1  0.4945400000000  0.4320880000000  0.5257970000000 1.0
C      1  0.5336600000000  0.4525580000000  0.5715890000000 1.0
C      1  0.4099250000000  0.4526330000000  0.4598160000000 1.0
C      1  0.5163710000000  0.5754420000000  0.5542130000000 1.0
C      1  0.5783460000000  0.4197480000000  0.5204300000000 1.0
C      1  0.6001710000000  0.5459460000000  0.5046160000000 1.0
C      1  0.5549890000000  0.4571410000000  0.5021420000000 1.0
C      1  0.5877250000000  0.4714740000000  0.4472840000000 1.0
C      1  0.4294710000000  0.4229360000000  0.4917540000000 1.0
C      1  0.4242510000000  0.4283900000000  0.4641640000000 1.0
C      1  0.5304720000000  0.4178560000000  0.4997490000000 1.0
C      1  0.5975010000000  0.5192170000000  0.5439410000000 1.0
C      1  0.5340350000000  0.4777580000000  0.4543390000000 1.0
C      1  0.4444850000000  0.4274310000000  0.4453120000000 1.0
END
