TITL C-132775-1274-3 461.347843613259 125000 -432.544829257912 0 0 64 (C3) n - 1
REM
REM in /rds/project/t2_vol4/rds-t2-cs072/BORA/CARBON/from-Arr/AIRSS/Generating-Clusters/GAP-ML-2020/Higher-Symm/SD-CG/HFTN-CG
REM
REM
REM
REM
REM
REM ./C.cell (b20cbc046b6831c77cfcea5457e17084)
REM AIRSS Version 0.9.1 bugfix July 2018 build 013d7b7c2542+ Fri, 06 Jul 2018 19:26:36 +0100
REM compiler GCC version 9.3.0
REM options -cpp -mtune=generic -march=x86-64 -g -O0
REM seed 973868145 -1344805902 -2048022369 -1030092063 -1911515842 1538426622 -2044255531 -213796575 831599125 -440902832 840937195 1607207121 -1326670505 2026296716 170204093 -1597411325 1184024212 1949539364 520343482 1978653840 1543032030 -27674196 -906713427 245684496 747893133 17941783 1750864127 -696174003 -333014035 -1158790857 -319915888 497162616 2037606958
REM
CELL 1.54180   50.00000   50.00000   50.00000   90.00000   90.00000   90.00000
LATT -1
SFAC C  
C      1  0.4775840000000  0.4892550000000  0.5033370000000 1.0
C      1  0.5200790000000  0.4853940000000  0.5034730000000 1.0
C      1  0.5021740000000  0.5241260000000  0.5034540000000 1.0
C      1  0.4549370000000  0.5362670000000  0.4992230000000 1.0
C      1  0.4907120000000  0.4422710000000  0.4992440000000 1.0
C      1  0.5542270000000  0.5202510000000  0.4995340000000 1.0
C      1  0.5257920000000  0.5104380000000  0.5624510000000 1.0
C      1  0.4772850000000  0.5166310000000  0.5622970000000 1.0
C      1  0.4961750000000  0.4715260000000  0.5623130000000 1.0
C      1  0.4875700000000  0.5633270000000  0.5309860000000 1.0
C      1  0.4507770000000  0.4570430000000  0.5307550000000 1.0
C      1  0.5612170000000  0.4783210000000  0.5311420000000 1.0
C      1  0.5736900000000  0.4603360000000  0.5149380000000 1.0
C      1  0.4970040000000  0.5830990000000  0.5148110000000 1.0
C      1  0.4290310000000  0.4553060000000  0.5144550000000 1.0
C      1  0.5225560000000  0.4825060000000  0.5615260000000 1.0
C      1  0.5030980000000  0.5277930000000  0.5615090000000 1.0
C      1  0.4736070000000  0.4882980000000  0.5613710000000 1.0
C      1  0.5382910000000  0.4420910000000  0.4853680000000 1.0
C      1  0.5306760000000  0.5615260000000  0.4854660000000 1.0
C      1  0.4310500000000  0.4952140000000  0.4850680000000 1.0
C      1  0.4824160000000  0.4779120000000  0.4462630000000 1.0
C      1  0.5278190000000  0.4951750000000  0.4464310000000 1.0
C      1  0.4901670000000  0.5258650000000  0.4463380000000 1.0
C      1  0.4712990000000  0.5056510000000  0.4590890000000 1.0
C      1  0.5092810000000  0.4716950000000  0.4591790000000 1.0
C      1  0.5196960000000  0.5215670000000  0.4592650000000 1.0
C      1  0.5162860000000  0.4970170000000  0.4182160000000 1.0
C      1  0.4945040000000  0.5149190000000  0.4181620000000 1.0
C      1  0.4898910000000  0.4871040000000  0.4181180000000 1.0
C      1  0.4512500000000  0.4820050000000  0.5450550000000 1.0
C      1  0.5392800000000  0.4662690000000  0.5453290000000 1.0
C      1  0.5088920000000  0.5503730000000  0.5453160000000 1.0
C      1  0.4595190000000  0.5545140000000  0.4762940000000 1.0
C      1  0.4727540000000  0.4370850000000  0.4762160000000 1.0
C      1  0.5678320000000  0.5072600000000  0.4766030000000 1.0
C      1  0.4349030000000  0.5139800000000  0.5062800000000 1.0
C      1  0.5199890000000  0.4360730000000  0.5064810000000 1.0
C      1  0.5449150000000  0.5487140000000  0.5066800000000 1.0
C      1  0.4776130000000  0.5511380000000  0.4544870000000 1.0
C      1  0.4667580000000  0.4544140000000  0.4543510000000 1.0
C      1  0.5559510000000  0.4933750000000  0.4546860000000 1.0
C      1  0.4575690000000  0.5275590000000  0.5445230000000 1.0
C      1  0.4966730000000  0.4489640000000  0.5445710000000 1.0
C      1  0.5451850000000  0.5221260000000  0.5448070000000 1.0
C      1  0.5326530000000  0.5468530000000  0.4627600000000 1.0
C      1  0.4429020000000  0.5042340000000  0.4624200000000 1.0
C      1  0.5246870000000  0.4478150000000  0.4626320000000 1.0
C      1  0.5350370000000  0.5465190000000  0.5332960000000 1.0
C      1  0.4415860000000  0.5065580000000  0.5329460000000 1.0
C      1  0.5229190000000  0.4456070000000  0.5331520000000 1.0
C      1  0.5056900000000  0.5755620000000  0.4904090000000 1.0
C      1  0.4313580000000  0.4665650000000  0.4900520000000 1.0
C      1  0.5629190000000  0.4566890000000  0.4904760000000 1.0
C      1  0.4764920000000  0.4442810000000  0.5260210000000 1.0
C      1  0.5594400000000  0.5069660000000  0.5263600000000 1.0
C      1  0.4636790000000  0.5474590000000  0.5260850000000 1.0
C      1  0.5699670000000  0.4792120000000  0.4733000000000 1.0
C      1  0.4827610000000  0.5703820000000  0.4731050000000 1.0
C      1  0.4474100000000  0.4492760000000  0.4728640000000 1.0
C      1  0.4978780000000  0.4712630000000  0.4894850000000 1.0
C      1  0.5255940000000  0.5119480000000  0.4896190000000 1.0
C      1  0.4765020000000  0.5156080000000  0.4894600000000 1.0
C      1  0.4998890000000  0.4995740000000  0.5206960000000 1.0
END
