TITL C-132108-1257-8 -0.026631534878358 125000 -40.4523257099322 0 0 7 (C3v) n - 1
REM
REM in /rds/project/t2_vol4/rds-t2-cs072/BORA/CARBON/from-Arr/AIRSS/Generating-Clusters/GAP-ML-2020/Higher-Symm/SD-CG/HFTN-CG
REM
REM
REM
REM
REM
REM ./C.cell (b20cbc046b6831c77cfcea5457e17084)
REM AIRSS Version 0.9.1 bugfix July 2018 build 013d7b7c2542+ Fri, 06 Jul 2018 19:26:36 +0100
REM compiler GCC version 9.3.0
REM options -cpp -mtune=generic -march=x86-64 -g -O0
REM seed 116301307 819482349 -1237087555 33915928 -40537113 -443167937 2061132146 -1867553526 1355242154 -349276286 -1665243825 1967648235 1527568373 -265520997 63364848 -1228368505 813319855 488523776 1851131003 -1545658354 570302259 2065456614 -1349902155 911337859 -2101083553 -1620008297 -1392850861 -752335772 1656897257 1011175274 -482792814 -633085343 608554663
REM
CELL 1.54180   50.00000   50.00000   50.00000   90.00000   90.00000   90.00000
LATT -1
SFAC C  
C      1  0.5122220000000  0.5189540000000  0.5121920000000 1.0
C      1  0.5123970000000  0.4968900000000  0.4704890000000 1.0
C      1  0.5107710000000  0.4718290000000  0.5104300000000 1.0
C      1  0.5018050000000  0.5381830000000  0.5238330000000 1.0
C      1  0.5021230000000  0.4980480000000  0.4479740000000 1.0
C      1  0.4991660000000  0.4524610000000  0.5206280000000 1.0
C      1  0.5146490000000  0.4958010000000  0.4977630000000 1.0
END
