TITL C-132112-1198-2 -0.00692983084693765 125000 -65.4453719434859 0 0 10 (D(inf)h) n - 1
REM
REM in /rds/project/t2_vol4/rds-t2-cs072/BORA/CARBON/from-Arr/AIRSS/Generating-Clusters/GAP-ML-2020/Higher-Symm/SD-CG/HFTN-CG
REM
REM
REM
REM
REM
REM ./C.cell (b20cbc046b6831c77cfcea5457e17084)
REM AIRSS Version 0.9.1 bugfix July 2018 build 013d7b7c2542+ Fri, 06 Jul 2018 19:26:36 +0100
REM compiler GCC version 9.3.0
REM options -cpp -mtune=generic -march=x86-64 -g -O0
REM seed 1323224640 -1633486456 945989573 1433137416 1433628151 -541967940 1715422201 1682751312 -1307717827 -203939039 962143653 1081377828 -825525737 1656950407 1983251387 -1332379264 -80220859 -2107095747 1259174829 1169181881 1519982536 -1427880526 -2089937040 -1884076830 1902120267 2142663754 899761975 -397839911 2104226082 567872509 -1968258335 1684566148 -2019295556
REM
CELL 1.54180   50.00000   50.00000   50.00000   90.00000   90.00000   90.00000
LATT -1
SFAC C  
C      1  0.4999410000000  0.5126250000000  0.5003960000000 1.0
C      1  0.4999410000000  0.4873750000000  0.5003960000000 1.0
C      1  0.4999410000000  0.4361720000000  0.5003960000000 1.0
C      1  0.4999410000000  0.4613970000000  0.5003960000000 1.0
C      1  0.4999410000000  0.3846120000000  0.5003960000000 1.0
C      1  0.4999410000000  0.4101620000000  0.5003960000000 1.0
C      1  0.4999410000000  0.5898380000000  0.5003960000000 1.0
C      1  0.4999410000000  0.5386030000000  0.5003960000000 1.0
C      1  0.4999410000000  0.6153880000000  0.5003960000000 1.0
C      1  0.4999410000000  0.5638280000000  0.5003960000000 1.0
END
