TITL C-131492-9470-7 0.235464082999472 125000 -362.838559099557 0 0 53 (C1) n - 1
REM
REM in /rds/project/t2_vol4/rds-t2-cs072/BORA/CARBON/from-Arr/AIRSS/Generating-Clusters/GAP-ML-2020/Higher-Symm/SD-CG/HFTN-CG
REM
REM
REM
REM
REM
REM ./C.cell (b20cbc046b6831c77cfcea5457e17084)
REM AIRSS Version 0.9.1 bugfix July 2018 build 013d7b7c2542+ Fri, 06 Jul 2018 19:26:36 +0100
REM compiler GCC version 9.3.0
REM options -cpp -mtune=generic -march=x86-64 -g -O0
REM seed -1361290462 241823221 1275949287 1422969681 -608390973 -1735553100 -807550086 908380290 -1439487678 1055309265 1762150737 -529923953 -780910112 -244253692 -1011090474 -1926326059 -1923854688 -596032475 816755075 956717893 -1772090287 -1936187473 1993896235 -1762659701 -505051055 318039973 1263647336 -1054230878 463973806 -814091329 -903395806 1637647516 -1607719642
REM
CELL 1.54180   50.00000   50.00000   50.00000   90.00000   90.00000   90.00000
LATT -1
SFAC C  
C      1  0.5092360000000  0.4859700000000  0.5546710000000 1.0
C      1  0.4656740000000  0.4809390000000  0.5376540000000 1.0
C      1  0.4432790000000  0.4791380000000  0.4947290000000 1.0
C      1  0.4608150000000  0.4796510000000  0.4505240000000 1.0
C      1  0.5075120000000  0.4715830000000  0.4378920000000 1.0
C      1  0.5449750000000  0.4872280000000  0.4699040000000 1.0
C      1  0.5491570000000  0.4932650000000  0.5297690000000 1.0
C      1  0.4860680000000  0.5216260000000  0.4342720000000 1.0
C      1  0.5329170000000  0.5068790000000  0.4270240000000 1.0
C      1  0.5661970000000  0.5333940000000  0.5215180000000 1.0
C      1  0.5289310000000  0.5295830000000  0.5556600000000 1.0
C      1  0.4782640000000  0.5238520000000  0.5560150000000 1.0
C      1  0.4432680000000  0.5212870000000  0.5200280000000 1.0
C      1  0.4506880000000  0.5212600000000  0.4707140000000 1.0
C      1  0.5322830000000  0.5017640000000  0.5542420000000 1.0
C      1  0.4821430000000  0.4963120000000  0.5553700000000 1.0
C      1  0.4460830000000  0.4925080000000  0.5198890000000 1.0
C      1  0.4440320000000  0.4935280000000  0.4686090000000 1.0
C      1  0.4847550000000  0.4926640000000  0.4393410000000 1.0
C      1  0.5336030000000  0.4849520000000  0.4425920000000 1.0
C      1  0.5728850000000  0.5077950000000  0.5286000000000 1.0
C      1  0.5425700000000  0.5149010000000  0.4813300000000 1.0
C      1  0.5297990000000  0.5103070000000  0.5088200000000 1.0
C      1  0.5061180000000  0.4937360000000  0.5079010000000 1.0
C      1  0.4859400000000  0.5123850000000  0.5083190000000 1.0
C      1  0.4769620000000  0.5092320000000  0.4828750000000 1.0
C      1  0.4994460000000  0.5014690000000  0.4679450000000 1.0
C      1  0.5194880000000  0.5262340000000  0.4650280000000 1.0
C      1  0.5565860000000  0.5617290000000  0.4862310000000 1.0
C      1  0.5259040000000  0.5616420000000  0.5223580000000 1.0
C      1  0.5000100000000  0.5585610000000  0.5340740000000 1.0
C      1  0.4735790000000  0.5566060000000  0.5234900000000 1.0
C      1  0.4648630000000  0.5556200000000  0.4966380000000 1.0
C      1  0.4821140000000  0.5545710000000  0.4733860000000 1.0
C      1  0.5103400000000  0.5516930000000  0.4761000000000 1.0
C      1  0.4825620000000  0.4593050000000  0.5287570000000 1.0
C      1  0.4582770000000  0.4553170000000  0.4902620000000 1.0
C      1  0.4706820000000  0.4574680000000  0.4645460000000 1.0
C      1  0.4988840000000  0.4575040000000  0.4613400000000 1.0
C      1  0.5377990000000  0.4686010000000  0.4891170000000 1.0
C      1  0.5385770000000  0.4684910000000  0.5177670000000 1.0
C      1  0.5107710000000  0.4685830000000  0.5314910000000 1.0
C      1  0.5152760000000  0.5256580000000  0.4344160000000 1.0
C      1  0.5617900000000  0.5361720000000  0.4922150000000 1.0
C      1  0.5445450000000  0.5451270000000  0.5365790000000 1.0
C      1  0.5022030000000  0.5395220000000  0.5552510000000 1.0
C      1  0.4593430000000  0.5359670000000  0.5383160000000 1.0
C      1  0.4443880000000  0.5357200000000  0.4950480000000 1.0
C      1  0.4710080000000  0.5355110000000  0.4543310000000 1.0
C      1  0.5101320000000  0.4768510000000  0.4823590000000 1.0
C      1  0.5299290000000  0.5628810000000  0.4939770000000 1.0
C      1  0.4702500000000  0.4380850000000  0.5126410000000 1.0
C      1  0.4682510000000  0.4117100000000  0.5156570000000 1.0
END
