TITL C-131468-8397-7 294.381793046065 125000 -576.926094172817 0 0 84 (C2) n - 1
REM
REM in /rds/project/t2_vol4/rds-t2-cs072/BORA/CARBON/from-Arr/AIRSS/Generating-Clusters/GAP-ML-2020/Higher-Symm/SD-CG/HFTN-CG
REM
REM
REM
REM
REM
REM ./C.cell (b20cbc046b6831c77cfcea5457e17084)
REM AIRSS Version 0.9.1 bugfix July 2018 build 013d7b7c2542+ Fri, 06 Jul 2018 19:26:36 +0100
REM compiler GCC version 9.3.0
REM options -cpp -mtune=generic -march=x86-64 -g -O0
REM seed -1567264736 -1791322995 -233717948 -2057800930 515326059 592284864 1946987104 978344442 -1037311957 -553945864 -1870035013 -1215458118 -1240883839 -1287080969 1664340808 -1139754159 2120828996 -662824429 1319660973 -212973917 -934855693 -2059214213 -973905468 1658114676 -907309568 802481353 518203165 1076674555 -1321033855 -1732904071 201817987 -637864852 -1342770129
REM
CELL 1.54180   50.00000   50.00000   50.00000   90.00000   90.00000   90.00000
LATT -1
SFAC C  
C      1  0.4684500000000  0.4782350000000  0.4925440000000 1.0
C      1  0.5315510000000  0.5217650000000  0.4925480000000 1.0
C      1  0.5504040000000  0.5163430000000  0.4380250000000 1.0
C      1  0.4496010000000  0.4836630000000  0.4380190000000 1.0
C      1  0.5110960000000  0.5090550000000  0.5309890000000 1.0
C      1  0.4889020000000  0.4909420000000  0.5309870000000 1.0
C      1  0.4326050000000  0.4745200000000  0.4585180000000 1.0
C      1  0.5673990000000  0.5254840000000  0.4585260000000 1.0
C      1  0.4332290000000  0.4336940000000  0.5448560000000 1.0
C      1  0.5667680000000  0.5663010000000  0.5448680000000 1.0
C      1  0.5774160000000  0.5207620000000  0.5044990000000 1.0
C      1  0.4225830000000  0.4792380000000  0.5044910000000 1.0
C      1  0.5229110000000  0.4751190000000  0.4981490000000 1.0
C      1  0.4770890000000  0.5248820000000  0.4981500000000 1.0
C      1  0.4837400000000  0.4863340000000  0.4696660000000 1.0
C      1  0.5162630000000  0.5136690000000  0.4696680000000 1.0
C      1  0.4583560000000  0.5414260000000  0.5487970000000 1.0
C      1  0.5416410000000  0.4585690000000  0.5487960000000 1.0
C      1  0.4710100000000  0.4546240000000  0.5107600000000 1.0
C      1  0.5289890000000  0.5453750000000  0.5107670000000 1.0
C      1  0.4618830000000  0.4269510000000  0.5101630000000 1.0
C      1  0.5381160000000  0.5730480000000  0.5101740000000 1.0
C      1  0.5652530000000  0.5684070000000  0.5172280000000 1.0
C      1  0.4347450000000  0.4315910000000  0.5172160000000 1.0
C      1  0.4435030000000  0.5293770000000  0.4576980000000 1.0
C      1  0.5565000000000  0.4706280000000  0.4576990000000 1.0
C      1  0.4775770000000  0.4730570000000  0.4389540000000 1.0
C      1  0.5224270000000  0.5269490000000  0.4389590000000 1.0
C      1  0.5471950000000  0.5534830000000  0.5575700000000 1.0
C      1  0.4528000000000  0.4465120000000  0.5575610000000 1.0
C      1  0.5744580000000  0.5487670000000  0.4980510000000 1.0
C      1  0.4255420000000  0.4512330000000  0.4980400000000 1.0
C      1  0.4394470000000  0.5450240000000  0.5272470000000 1.0
C      1  0.5605510000000  0.4549730000000  0.5272470000000 1.0
C      1  0.4751500000000  0.4234770000000  0.4866380000000 1.0
C      1  0.5248510000000  0.5765240000000  0.4866480000000 1.0
C      1  0.5253060000000  0.4746660000000  0.4285320000000 1.0
C      1  0.4746990000000  0.5253410000000  0.4285320000000 1.0
C      1  0.4563970000000  0.4734580000000  0.5685940000000 1.0
C      1  0.5435980000000  0.5265350000000  0.5686000000000 1.0
C      1  0.5332130000000  0.4812700000000  0.5627820000000 1.0
C      1  0.4667820000000  0.5187240000000  0.5627820000000 1.0
C      1  0.5777740000000  0.5075740000000  0.4790930000000 1.0
C      1  0.4222280000000  0.4924280000000  0.4790860000000 1.0
C      1  0.4861980000000  0.5524360000000  0.5103090000000 1.0
C      1  0.5138010000000  0.4475630000000  0.5103050000000 1.0
C      1  0.4295050000000  0.5199560000000  0.4812940000000 1.0
C      1  0.5704960000000  0.4800450000000  0.4812980000000 1.0
C      1  0.5135590000000  0.4828680000000  0.4722290000000 1.0
C      1  0.4864430000000  0.5171350000000  0.4722300000000 1.0
C      1  0.4372800000000  0.4979310000000  0.5240640000000 1.0
C      1  0.5627180000000  0.5020660000000  0.5240700000000 1.0
C      1  0.4917790000000  0.4589250000000  0.5294130000000 1.0
C      1  0.5082190000000  0.5410720000000  0.5294180000000 1.0
C      1  0.5153490000000  0.5314490000000  0.5749380000000 1.0
C      1  0.4846450000000  0.4685430000000  0.5749330000000 1.0
C      1  0.5503190000000  0.4885550000000  0.4355260000000 1.0
C      1  0.4496860000000  0.5114510000000  0.4355230000000 1.0
C      1  0.4296420000000  0.5243540000000  0.5114840000000 1.0
C      1  0.5703570000000  0.4756450000000  0.5114870000000 1.0
C      1  0.4919880000000  0.5609120000000  0.4594630000000 1.0
C      1  0.5080150000000  0.4390920000000  0.4594570000000 1.0
C      1  0.4813350000000  0.4454050000000  0.4475560000000 1.0
C      1  0.5186700000000  0.5546010000000  0.4475630000000 1.0
C      1  0.4485990000000  0.4968340000000  0.5548230000000 1.0
C      1  0.5513960000000  0.5031610000000  0.5548280000000 1.0
C      1  0.4824170000000  0.4474370000000  0.5554790000000 1.0
C      1  0.5175790000000  0.5525580000000  0.5554860000000 1.0
C      1  0.4626810000000  0.5600550000000  0.5273550000000 1.0
C      1  0.5373170000000  0.4399420000000  0.5273520000000 1.0
C      1  0.4682970000000  0.5002320000000  0.5122000000000 1.0
C      1  0.5317020000000  0.4997670000000  0.5122030000000 1.0
C      1  0.5278670000000  0.4587240000000  0.4531430000000 1.0
C      1  0.4721370000000  0.5412810000000  0.4531450000000 1.0
C      1  0.4944110000000  0.5135360000000  0.5759330000000 1.0
C      1  0.5055830000000  0.4864570000000  0.5759320000000 1.0
C      1  0.4969130000000  0.5694330000000  0.4862060000000 1.0
C      1  0.5030880000000  0.4305680000000  0.4862000000000 1.0
C      1  0.4999470000000  0.5142170000000  0.4237190000000 1.0
C      1  0.5000590000000  0.4857900000000  0.4237180000000 1.0
C      1  0.5632880000000  0.5505830000000  0.4711570000000 1.0
C      1  0.4367150000000  0.4494200000000  0.4711470000000 1.0
C      1  0.5390330000000  0.5649110000000  0.4643520000000 1.0
C      1  0.4609700000000  0.4350920000000  0.4643430000000 1.0
END
