TITL C-133531-5389-11 239.318528346958 125000 -483.456422104779 0 0 70 (C1) n - 1
REM
REM in /rds/project/t2_vol4/rds-t2-cs072/BORA/CARBON/from-Arr/AIRSS/Generating-Clusters/GAP-ML-2020/Higher-Symm/SD-CG/HFTN-CG
REM
REM
REM
REM
REM
REM ./C.cell (b20cbc046b6831c77cfcea5457e17084)
REM AIRSS Version 0.9.1 bugfix July 2018 build 013d7b7c2542+ Fri, 06 Jul 2018 19:26:36 +0100
REM compiler GCC version 9.3.0
REM options -cpp -mtune=generic -march=x86-64 -g -O0
REM seed -1125735137 1878735837 -2041573374 -905362599 1449536887 -982378016 -2038036566 -476274663 1925709662 -265031233 1225247271 1760018709 307306544 -349989055 -145793295 -1428724668 573596055 1851367223 -1054301539 676879485 -1938185702 -651002559 -1258466957 -2065300055 1250757418 -1808450198 2055214446 -816059825 1992950618 1631833327 -1654907436 1480203874 -496051406
REM
CELL 1.54180   50.00000   50.00000   50.00000   90.00000   90.00000   90.00000
LATT -1
SFAC C  
C      1  0.4842560000000  0.5759250000000  0.5107250000000 1.0
C      1  0.5148560000000  0.5396180000000  0.5732750000000 1.0
C      1  0.5817960000000  0.4920290000000  0.4967720000000 1.0
C      1  0.5517580000000  0.5465040000000  0.5166630000000 1.0
C      1  0.4607110000000  0.5415360000000  0.4624060000000 1.0
C      1  0.5110460000000  0.4105600000000  0.5368800000000 1.0
C      1  0.4948520000000  0.5120550000000  0.4731500000000 1.0
C      1  0.4686410000000  0.4987150000000  0.4368470000000 1.0
C      1  0.5781500000000  0.4646890000000  0.5081270000000 1.0
C      1  0.5266150000000  0.4343700000000  0.5354880000000 1.0
C      1  0.5528540000000  0.4793380000000  0.4584960000000 1.0
C      1  0.5362680000000  0.4387350000000  0.5094480000000 1.0
C      1  0.5458100000000  0.4564840000000  0.4729910000000 1.0
C      1  0.5156830000000  0.5070950000000  0.5133900000000 1.0
C      1  0.4958340000000  0.4960640000000  0.5666080000000 1.0
C      1  0.4977360000000  0.4330220000000  0.4786700000000 1.0
C      1  0.5221900000000  0.4591000000000  0.5499940000000 1.0
C      1  0.5345460000000  0.5063200000000  0.5403850000000 1.0
C      1  0.4267890000000  0.4810980000000  0.4863490000000 1.0
C      1  0.5219540000000  0.5602780000000  0.5553500000000 1.0
C      1  0.5207540000000  0.5198990000000  0.4850490000000 1.0
C      1  0.5340960000000  0.4924690000000  0.4401790000000 1.0
C      1  0.4776930000000  0.4394680000000  0.4580170000000 1.0
C      1  0.4643820000000  0.5802580000000  0.4915430000000 1.0
C      1  0.4517510000000  0.5456830000000  0.5305800000000 1.0
C      1  0.4817360000000  0.5228980000000  0.4485640000000 1.0
C      1  0.4584150000000  0.4373100000000  0.5007800000000 1.0
C      1  0.4846510000000  0.4892130000000  0.4869010000000 1.0
C      1  0.4382750000000  0.5260530000000  0.5159770000000 1.0
C      1  0.4926810000000  0.5273640000000  0.5175210000000 1.0
C      1  0.5668190000000  0.4993780000000  0.4735000000000 1.0
C      1  0.4752850000000  0.5154020000000  0.4964250000000 1.0
C      1  0.5435070000000  0.4782390000000  0.5450340000000 1.0
C      1  0.4365890000000  0.5006800000000  0.5279760000000 1.0
C      1  0.4518740000000  0.4559300000000  0.5220620000000 1.0
C      1  0.4479960000000  0.5254770000000  0.4852670000000 1.0
C      1  0.5585740000000  0.5225210000000  0.5308610000000 1.0
C      1  0.5185540000000  0.5124260000000  0.5649740000000 1.0
C      1  0.4863740000000  0.4763040000000  0.4286460000000 1.0
C      1  0.4906550000000  0.5773290000000  0.4511920000000 1.0
C      1  0.4936250000000  0.4039950000000  0.5194270000000 1.0
C      1  0.4795350000000  0.4494790000000  0.4330570000000 1.0
C      1  0.4763350000000  0.5353630000000  0.5443340000000 1.0
C      1  0.5058090000000  0.4798510000000  0.5018850000000 1.0
C      1  0.4328350000000  0.5054290000000  0.4721480000000 1.0
C      1  0.4544740000000  0.4928620000000  0.5487700000000 1.0
C      1  0.4340020000000  0.4769420000000  0.5127140000000 1.0
C      1  0.5201200000000  0.5521630000000  0.4841240000000 1.0
C      1  0.5062470000000  0.5569410000000  0.5096570000000 1.0
C      1  0.4453950000000  0.4910040000000  0.4500400000000 1.0
C      1  0.5599490000000  0.4474140000000  0.4962040000000 1.0
C      1  0.5185220000000  0.4530120000000  0.4884170000000 1.0
C      1  0.5694030000000  0.4765620000000  0.5336620000000 1.0
C      1  0.5493460000000  0.5474140000000  0.4880610000000 1.0
C      1  0.5506650000000  0.5232750000000  0.4705340000000 1.0
C      1  0.5336610000000  0.5206000000000  0.4463370000000 1.0
C      1  0.5771320000000  0.5037970000000  0.5227810000000 1.0
C      1  0.4385250000000  0.4662300000000  0.4646680000000 1.0
C      1  0.4667720000000  0.4671300000000  0.5449560000000 1.0
C      1  0.4724260000000  0.5107230000000  0.5597830000000 1.0
C      1  0.5290350000000  0.5596750000000  0.5283420000000 1.0
C      1  0.4948330000000  0.4692980000000  0.5568950000000 1.0
C      1  0.4677940000000  0.5690970000000  0.4647150000000 1.0
C      1  0.4827440000000  0.4209530000000  0.5001670000000 1.0
C      1  0.4580320000000  0.5680380000000  0.5154520000000 1.0
C      1  0.4941060000000  0.5527890000000  0.5598550000000 1.0
C      1  0.5126660000000  0.4828850000000  0.4275980000000 1.0
C      1  0.4537130000000  0.4445320000000  0.4731900000000 1.0
C      1  0.5092110000000  0.5353450000000  0.4419940000000 1.0
C      1  0.5100800000000  0.5593650000000  0.4571710000000 1.0
END
