TITL C-132117-1609-1 -7.74117826644178 125000 -473.808502453367 0 0 67 (C1) n - 1
REM
REM in /rds/project/t2_vol4/rds-t2-cs072/BORA/CARBON/from-Arr/AIRSS/Generating-Clusters/GAP-ML-2020/Higher-Symm/SD-CG/HFTN-CG
REM
REM
REM
REM
REM
REM ./C.cell (b20cbc046b6831c77cfcea5457e17084)
REM AIRSS Version 0.9.1 bugfix July 2018 build 013d7b7c2542+ Fri, 06 Jul 2018 19:26:36 +0100
REM compiler GCC version 9.3.0
REM options -cpp -mtune=generic -march=x86-64 -g -O0
REM seed 1545068579 803211088 1055580865 2098075823 1810680248 1449989531 434979893 565659031 -1955382778 1359086559 -1220505706 -1700159991 -742435853 944347489 -399337798 541738491 -1974625480 430359450 -1623668188 -676339097 -495453113 -1292890874 -2015704557 903913440 -1670402576 -1500492128 395183709 188019098 864752014 -134057754 253192961 -493219051 1026861898
REM
CELL 1.54180   50.00000   50.00000   50.00000   90.00000   90.00000   90.00000
LATT -1
SFAC C  
C      1  0.5274180000000  0.5390560000000  0.4560200000000 1.0
C      1  0.4622020000000  0.5166570000000  0.5531860000000 1.0
C      1  0.5221660000000  0.4301830000000  0.5136380000000 1.0
C      1  0.5244320000000  0.4629590000000  0.5557260000000 1.0
C      1  0.4808390000000  0.4708850000000  0.4364040000000 1.0
C      1  0.4793350000000  0.5405460000000  0.5514720000000 1.0
C      1  0.4420850000000  0.4764400000000  0.4602680000000 1.0
C      1  0.5508040000000  0.4684350000000  0.5431110000000 1.0
C      1  0.5643780000000  0.5108970000000  0.4715510000000 1.0
C      1  0.5487000000000  0.5349280000000  0.4745620000000 1.0
C      1  0.4328720000000  0.5521160000000  0.5164070000000 1.0
C      1  0.4645030000000  0.4586380000000  0.4569150000000 1.0
C      1  0.4818880000000  0.5432320000000  0.4468640000000 1.0
C      1  0.5544480000000  0.5208860000000  0.5431010000000 1.0
C      1  0.4517040000000  0.4476340000000  0.5155500000000 1.0
C      1  0.4764510000000  0.4674540000000  0.5550630000000 1.0
C      1  0.5321520000000  0.4685730000000  0.4317700000000 1.0
C      1  0.5359740000000  0.5437970000000  0.5467680000000 1.0
C      1  0.5513070000000  0.4637600000000  0.4524270000000 1.0
C      1  0.4531750000000  0.4604950000000  0.5419160000000 1.0
C      1  0.4405680000000  0.5235760000000  0.4631340000000 1.0
C      1  0.4579370000000  0.5464860000000  0.4626760000000 1.0
C      1  0.5305550000000  0.5558460000000  0.5203200000000 1.0
C      1  0.5347780000000  0.4532620000000  0.4755130000000 1.0
C      1  0.5742970000000  0.4771180000000  0.5041240000000 1.0
C      1  0.4663510000000  0.5632360000000  0.4849280000000 1.0
C      1  0.5036510000000  0.5056770000000  0.5707130000000 1.0
C      1  0.5637530000000  0.5235190000000  0.5165640000000 1.0
C      1  0.4285390000000  0.5122890000000  0.4872000000000 1.0
C      1  0.4356340000000  0.4814760000000  0.5334780000000 1.0
C      1  0.4754620000000  0.4381030000000  0.5035310000000 1.0
C      1  0.5078020000000  0.4444600000000  0.4636310000000 1.0
C      1  0.5041600000000  0.5647380000000  0.5135040000000 1.0
C      1  0.4896840000000  0.5200360000000  0.4326770000000 1.0
C      1  0.5250750000000  0.5522310000000  0.5709450000000 1.0
C      1  0.5390540000000  0.4966470000000  0.4311440000000 1.0
C      1  0.4289780000000  0.4833110000000  0.4848430000000 1.0
C      1  0.4946660000000  0.5661920000000  0.4858370000000 1.0
C      1  0.5257250000000  0.4893500000000  0.5681400000000 1.0
C      1  0.4401190000000  0.5087670000000  0.5364270000000 1.0
C      1  0.5726700000000  0.5031140000000  0.4987590000000 1.0
C      1  0.5600580000000  0.4588240000000  0.5179930000000 1.0
C      1  0.4976410000000  0.4359600000000  0.5229120000000 1.0
C      1  0.4813460000000  0.4426220000000  0.4751830000000 1.0
C      1  0.4574800000000  0.5622230000000  0.5123160000000 1.0
C      1  0.5181950000000  0.5144290000000  0.4416390000000 1.0
C      1  0.5041120000000  0.5343060000000  0.5648270000000 1.0
C      1  0.4717500000000  0.4981130000000  0.4317240000000 1.0
C      1  0.5431730000000  0.4412520000000  0.5017740000000 1.0
C      1  0.4309890000000  0.5247340000000  0.5135790000000 1.0
C      1  0.4996220000000  0.4522740000000  0.5475520000000 1.0
C      1  0.5045610000000  0.5547600000000  0.4611070000000 1.0
C      1  0.5492420000000  0.5431760000000  0.5023810000000 1.0
C      1  0.4319640000000  0.4678750000000  0.5078790000000 1.0
C      1  0.5607900000000  0.4922940000000  0.4507970000000 1.0
C      1  0.4781250000000  0.4951820000000  0.5639390000000 1.0
C      1  0.4805370000000  0.5597430000000  0.5298580000000 1.0
C      1  0.5503600000000  0.4956030000000  0.5543010000000 1.0
C      1  0.5067490000000  0.4588120000000  0.4382230000000 1.0
C      1  0.4474200000000  0.5011760000000  0.4461730000000 1.0
C      1  0.5277240000000  0.4815190000000  0.4837190000000 1.0
C      1  0.4865950000000  0.5019000000000  0.4806970000000 1.0
C      1  0.4913730000000  0.5163510000000  0.5051820000000 1.0
C      1  0.4878780000000  0.4882900000000  0.5053410000000 1.0
C      1  0.5181760000000  0.4842090000000  0.5108470000000 1.0
C      1  0.5104840000000  0.4958190000000  0.4662800000000 1.0
C      1  0.5160740000000  0.5110820000000  0.5195790000000 1.0
END
