TITL C-131464-8590-6 -316.657447126094 125000 -520.775683064071 0 0 77 (C3) n - 1
REM
REM in /rds/project/t2_vol4/rds-t2-cs072/BORA/CARBON/from-Arr/AIRSS/Generating-Clusters/GAP-ML-2020/Higher-Symm/SD-CG/HFTN-CG
REM
REM
REM
REM
REM
REM ./C.cell (b20cbc046b6831c77cfcea5457e17084)
REM AIRSS Version 0.9.1 bugfix July 2018 build 013d7b7c2542+ Fri, 06 Jul 2018 19:26:36 +0100
REM compiler GCC version 9.3.0
REM options -cpp -mtune=generic -march=x86-64 -g -O0
REM seed -934366910 307770499 -1162766340 19807314 -1159418460 1684922251 1799312100 -695231897 -975328571 -1671508583 -301160302 -1736348268 -1747422312 -1162192237 -2000801671 1879087249 1650375915 1167988967 -1953037764 -1306288997 332171817 618359080 1899724750 -976444575 -258919795 -1425050646 -1370648389 -1324668051 -1509611696 -1812620685 577055256 -668221356 1369626605
REM
CELL 1.54180   50.00000   50.00000   50.00000   90.00000   90.00000   90.00000
LATT -1
SFAC C  
C      1  0.4990030000000  0.5835230000000  0.4836230000000 1.0
C      1  0.4280230000000  0.4557750000000  0.4836270000000 1.0
C      1  0.5741460000000  0.4581780000000  0.4832810000000 1.0
C      1  0.5004710000000  0.5595840000000  0.5547400000000 1.0
C      1  0.4481970000000  0.4687300000000  0.5547480000000 1.0
C      1  0.5530150000000  0.4688860000000  0.5544970000000 1.0
C      1  0.4929300000000  0.5855360000000  0.5093000000000 1.0
C      1  0.4293790000000  0.4494060000000  0.5092750000000 1.0
C      1  0.5790460000000  0.4624340000000  0.5089350000000 1.0
C      1  0.4957110000000  0.5356320000000  0.4381610000000 1.0
C      1  0.4710320000000  0.4770520000000  0.4381440000000 1.0
C      1  0.5341030000000  0.4849690000000  0.4380040000000 1.0
C      1  0.4755020000000  0.5122340000000  0.5566030000000 1.0
C      1  0.5016920000000  0.4707740000000  0.5564870000000 1.0
C      1  0.5245020000000  0.5141850000000  0.5564890000000 1.0
C      1  0.5125750000000  0.5413260000000  0.4870350000000 1.0
C      1  0.4577890000000  0.4886130000000  0.4870980000000 1.0
C      1  0.5308330000000  0.4675240000000  0.4868960000000 1.0
C      1  0.5084770000000  0.4623790000000  0.5286590000000 1.0
C      1  0.5283100000000  0.5243700000000  0.5286920000000 1.0
C      1  0.4647080000000  0.5105510000000  0.5288260000000 1.0
C      1  0.5436360000000  0.4923850000000  0.5658910000000 1.0
C      1  0.4848380000000  0.5396660000000  0.5660930000000 1.0
C      1  0.4732900000000  0.4651050000000  0.5660240000000 1.0
C      1  0.5249060000000  0.5605970000000  0.4486730000000 1.0
C      1  0.4348400000000  0.4898100000000  0.4487970000000 1.0
C      1  0.5411760000000  0.4472050000000  0.4484880000000 1.0
C      1  0.4758010000000  0.5110780000000  0.4822220000000 1.0
C      1  0.5023590000000  0.4719100000000  0.4821080000000 1.0
C      1  0.5230010000000  0.5144940000000  0.4821140000000 1.0
C      1  0.5377540000000  0.5101690000000  0.4539160000000 1.0
C      1  0.4721010000000  0.5261300000000  0.4540940000000 1.0
C      1  0.4911050000000  0.4612920000000  0.4539640000000 1.0
C      1  0.4976540000000  0.5636920000000  0.4421510000000 1.0
C      1  0.4457700000000  0.4646880000000  0.4421470000000 1.0
C      1  0.5574510000000  0.4692570000000  0.4418860000000 1.0
C      1  0.5255830000000  0.5673220000000  0.4775220000000 1.0
C      1  0.4287480000000  0.4869180000000  0.4776490000000 1.0
C      1  0.5467970000000  0.4432590000000  0.4773110000000 1.0
C      1  0.5567210000000  0.4587150000000  0.5268640000000 1.0
C      1  0.5073580000000  0.5679900000000  0.5271240000000 1.0
C      1  0.4374050000000  0.4706020000000  0.5271650000000 1.0
C      1  0.5495110000000  0.5455690000000  0.5288980000000 1.0
C      1  0.4357500000000  0.5183110000000  0.5291350000000 1.0
C      1  0.5162360000000  0.4334200000000  0.5288320000000 1.0
C      1  0.5371170000000  0.5044570000000  0.5081670000000 1.0
C      1  0.4775000000000  0.5282160000000  0.5083400000000 1.0
C      1  0.4867320000000  0.4647070000000  0.5082360000000 1.0
C      1  0.4207010000000  0.4950220000000  0.5235860000000 1.0
C      1  0.5439160000000  0.4320540000000  0.5232100000000 1.0
C      1  0.5368410000000  0.5702460000000  0.5234060000000 1.0
C      1  0.5357980000000  0.4247740000000  0.4964470000000 1.0
C      1  0.5471390000000  0.5669620000000  0.4966030000000 1.0
C      1  0.4183300000000  0.5056890000000  0.4968320000000 1.0
C      1  0.4317510000000  0.5309060000000  0.5038970000000 1.0
C      1  0.5072670000000  0.4237600000000  0.5035780000000 1.0
C      1  0.5622990000000  0.5427320000000  0.5036000000000 1.0
C      1  0.4834310000000  0.4368510000000  0.4954750000000 1.0
C      1  0.5628600000000  0.5155770000000  0.4953870000000 1.0
C      1  0.4549670000000  0.5450010000000  0.4956830000000 1.0
C      1  0.5133980000000  0.5401380000000  0.5682750000000 1.0
C      1  0.4586070000000  0.4895940000000  0.5683410000000 1.0
C      1  0.5297750000000  0.4674150000000  0.5681420000000 1.0
C      1  0.4630520000000  0.4826710000000  0.5145880000000 1.0
C      1  0.5334150000000  0.4749420000000  0.5144100000000 1.0
C      1  0.5049270000000  0.5397430000000  0.5145620000000 1.0
C      1  0.4463790000000  0.4462010000000  0.4633290000000 1.0
C      1  0.5732090000000  0.4789440000000  0.4630680000000 1.0
C      1  0.4814380000000  0.5724100000000  0.4634080000000 1.0
C      1  0.5250720000000  0.5326700000000  0.4397710000000 1.0
C      1  0.4589200000000  0.5039530000000  0.4398920000000 1.0
C      1  0.5168660000000  0.4610230000000  0.4396980000000 1.0
C      1  0.4728460000000  0.4402850000000  0.4687050000000 1.0
C      1  0.5651130000000  0.5048010000000  0.4685680000000 1.0
C      1  0.4631070000000  0.5524480000000  0.4688730000000 1.0
C      1  0.5005730000000  0.4990600000000  0.5598390000000 1.0
C      1  0.5003900000000  0.4991590000000  0.4834400000000 1.0
END
