TITL C-132773-1306-2 0.152916548136587 125000 -444.824277462987 0 0 66 (C1) n - 1
REM
REM in /rds/project/t2_vol4/rds-t2-cs072/BORA/CARBON/from-Arr/AIRSS/Generating-Clusters/GAP-ML-2020/Higher-Symm/SD-CG/HFTN-CG
REM
REM
REM
REM
REM
REM ./C.cell (b20cbc046b6831c77cfcea5457e17084)
REM AIRSS Version 0.9.1 bugfix July 2018 build 013d7b7c2542+ Fri, 06 Jul 2018 19:26:36 +0100
REM compiler GCC version 9.3.0
REM options -cpp -mtune=generic -march=x86-64 -g -O0
REM seed 2126731503 544750037 1881550951 2142272967 -646838334 -773855184 -2043822586 1704871396 1305549634 -1047415369 -1943900177 -211449762 -484586862 -521105822 717508568 -1607808835 -256343745 -1344743692 157196543 555469474 -453537663 1927573674 645606095 2059032267 -490339622 320790298 -58112273 2028334254 1920516790 746848120 2016323213 -36630565 1850178016
REM
CELL 1.54180   50.00000   50.00000   50.00000   90.00000   90.00000   90.00000
LATT -1
SFAC C  
C      1  0.5370620000000  0.4866620000000  0.4862370000000 1.0
C      1  0.5129460000000  0.5092140000000  0.5221690000000 1.0
C      1  0.4707350000000  0.4951730000000  0.5120230000000 1.0
C      1  0.4928800000000  0.4932920000000  0.4695530000000 1.0
C      1  0.5267490000000  0.4845880000000  0.5137270000000 1.0
C      1  0.5182680000000  0.5070360000000  0.4749670000000 1.0
C      1  0.4789510000000  0.5103140000000  0.4890280000000 1.0
C      1  0.4871520000000  0.5019930000000  0.5337660000000 1.0
C      1  0.4378910000000  0.5089430000000  0.5312420000000 1.0
C      1  0.4672310000000  0.5126950000000  0.4366180000000 1.0
C      1  0.5672230000000  0.5117090000000  0.4698040000000 1.0
C      1  0.5326940000000  0.5124440000000  0.5643790000000 1.0
C      1  0.4375890000000  0.5108430000000  0.4687340000000 1.0
C      1  0.4684140000000  0.5094570000000  0.5659670000000 1.0
C      1  0.5661740000000  0.5157100000000  0.5364200000000 1.0
C      1  0.5328560000000  0.5049750000000  0.4373700000000 1.0
C      1  0.5286760000000  0.4391770000000  0.5511740000000 1.0
C      1  0.4633220000000  0.4373290000000  0.5189170000000 1.0
C      1  0.4680160000000  0.4360950000000  0.4473050000000 1.0
C      1  0.5298730000000  0.4365560000000  0.4788800000000 1.0
C      1  0.5125060000000  0.4341800000000  0.4544640000000 1.0
C      1  0.4502670000000  0.4362530000000  0.4719670000000 1.0
C      1  0.4841740000000  0.4376150000000  0.5410290000000 1.0
C      1  0.5440950000000  0.4410080000000  0.5257660000000 1.0
C      1  0.4756580000000  0.5353240000000  0.4524160000000 1.0
C      1  0.5506350000000  0.5349940000000  0.4734500000000 1.0
C      1  0.5237580000000  0.5308200000000  0.5425910000000 1.0
C      1  0.4518980000000  0.5351150000000  0.5274860000000 1.0
C      1  0.4751490000000  0.5316400000000  0.5461430000000 1.0
C      1  0.5485370000000  0.5371060000000  0.5259660000000 1.0
C      1  0.5261020000000  0.5287530000000  0.4548570000000 1.0
C      1  0.4584930000000  0.5302610000000  0.4782030000000 1.0
C      1  0.4439780000000  0.4645260000000  0.4669060000000 1.0
C      1  0.5222930000000  0.4597340000000  0.4449170000000 1.0
C      1  0.5475620000000  0.4706520000000  0.5298590000000 1.0
C      1  0.4743180000000  0.4630490000000  0.5499830000000 1.0
C      1  0.4531720000000  0.4628240000000  0.5288750000000 1.0
C      1  0.5335980000000  0.4667980000000  0.5569010000000 1.0
C      1  0.5391420000000  0.4624280000000  0.4689660000000 1.0
C      1  0.4644250000000  0.4647790000000  0.4451630000000 1.0
C      1  0.4836590000000  0.4877120000000  0.4411670000000 1.0
C      1  0.5652970000000  0.4954620000000  0.4927280000000 1.0
C      1  0.5175050000000  0.4872850000000  0.5671700000000 1.0
C      1  0.4428560000000  0.4861370000000  0.5130020000000 1.0
C      1  0.4884660000000  0.4871600000000  0.5600540000000 1.0
C      1  0.5686930000000  0.4922670000000  0.5202060000000 1.0
C      1  0.5126990000000  0.4832590000000  0.4325930000000 1.0
C      1  0.4356330000000  0.4854910000000  0.4834330000000 1.0
C      1  0.4554880000000  0.5484100000000  0.5028510000000 1.0
C      1  0.5020110000000  0.5462660000000  0.4535580000000 1.0
C      1  0.5440970000000  0.5461450000000  0.4995250000000 1.0
C      1  0.4992860000000  0.5480270000000  0.5426160000000 1.0
C      1  0.4581950000000  0.4249610000000  0.4951740000000 1.0
C      1  0.5354730000000  0.4273270000000  0.5038370000000 1.0
C      1  0.5056520000000  0.4242710000000  0.5518770000000 1.0
C      1  0.4901490000000  0.4200310000000  0.4462520000000 1.0
C      1  0.4820790000000  0.5814200000000  0.4806490000000 1.0
C      1  0.5037340000000  0.5660300000000  0.4734480000000 1.0
C      1  0.4746460000000  0.5688790000000  0.5040150000000 1.0
C      1  0.4987750000000  0.5632730000000  0.5197890000000 1.0
C      1  0.4403750000000  0.5091050000000  0.4413730000000 1.0
C      1  0.5578120000000  0.4988690000000  0.4465670000000 1.0
C      1  0.5602960000000  0.5118700000000  0.5632710000000 1.0
C      1  0.4439510000000  0.5014070000000  0.5569210000000 1.0
C      1  0.5163380000000  0.5542590000000  0.4978250000000 1.0
C      1  0.5052200000000  0.5231090000000  0.4975820000000 1.0
END
