TITL C-132109-1242-3 0.15658796788431 125000 -514.279122176218 0 0 77 (C1) n - 1
REM
REM in /rds/project/t2_vol4/rds-t2-cs072/BORA/CARBON/from-Arr/AIRSS/Generating-Clusters/GAP-ML-2020/Higher-Symm/SD-CG/HFTN-CG
REM
REM
REM
REM
REM
REM ./C.cell (b20cbc046b6831c77cfcea5457e17084)
REM AIRSS Version 0.9.1 bugfix July 2018 build 013d7b7c2542+ Fri, 06 Jul 2018 19:26:36 +0100
REM compiler GCC version 9.3.0
REM options -cpp -mtune=generic -march=x86-64 -g -O0
REM seed -1314978284 -1270912757 1969450927 -253778748 2126321128 -1763628558 -1368227919 -1456009099 1359042588 1240394418 -713540726 1904639753 -1397067117 -787197848 1370663147 2074872132 -1255421256 -1739824730 1130627253 -560070793 -434471561 760666103 2040177631 1302875236 187682019 -1566881095 -1959486590 1168666634 -1432843014 -163940440 1705701117 1144918138 -1050779582
REM
CELL 1.54180   50.00000   50.00000   50.00000   90.00000   90.00000   90.00000
LATT -1
SFAC C  
C      1  0.4606630000000  0.4831470000000  0.5052460000000 1.0
C      1  0.4716180000000  0.5314540000000  0.5033550000000 1.0
C      1  0.5219200000000  0.5359890000000  0.5041420000000 1.0
C      1  0.5418540000000  0.4910880000000  0.5055430000000 1.0
C      1  0.5041010000000  0.4595150000000  0.5057880000000 1.0
C      1  0.4522220000000  0.5103520000000  0.4933760000000 1.0
C      1  0.4964500000000  0.5345560000000  0.4871720000000 1.0
C      1  0.5408510000000  0.5169640000000  0.4920880000000 1.0
C      1  0.5287530000000  0.4682000000000  0.4927120000000 1.0
C      1  0.4784600000000  0.4640310000000  0.4924000000000 1.0
C      1  0.4829990000000  0.4568060000000  0.4421020000000 1.0
C      1  0.4557090000000  0.5021700000000  0.4409140000000 1.0
C      1  0.4898830000000  0.5425990000000  0.4385080000000 1.0
C      1  0.5387410000000  0.5220750000000  0.4407840000000 1.0
C      1  0.5341320000000  0.4694800000000  0.4420410000000 1.0
C      1  0.5826780000000  0.4858100000000  0.4789530000000 1.0
C      1  0.5121860000000  0.4175100000000  0.4803590000000 1.0
C      1  0.4257290000000  0.4612600000000  0.4794580000000 1.0
C      1  0.4433630000000  0.5598690000000  0.4752890000000 1.0
C      1  0.5394160000000  0.5725830000000  0.4761330000000 1.0
C      1  0.4961710000000  0.5830360000000  0.5134040000000 1.0
C      1  0.5790290000000  0.5312990000000  0.5176890000000 1.0
C      1  0.5537660000000  0.4362200000000  0.5184550000000 1.0
C      1  0.4557170000000  0.4285800000000  0.5191060000000 1.0
C      1  0.4276940000000  0.5181030000000  0.5105020000000 1.0
C      1  0.5444200000000  0.4978890000000  0.5596150000000 1.0
C      1  0.5098120000000  0.4581610000000  0.5601750000000 1.0
C      1  0.4611630000000  0.4783270000000  0.5593650000000 1.0
C      1  0.4653230000000  0.5311410000000  0.5571960000000 1.0
C      1  0.5173040000000  0.5433210000000  0.5578160000000 1.0
C      1  0.4811340000000  0.5202740000000  0.5311360000000 1.0
C      1  0.5123720000000  0.5246880000000  0.5317270000000 1.0
C      1  0.5263640000000  0.4965080000000  0.5330860000000 1.0
C      1  0.5034160000000  0.4751190000000  0.5333060000000 1.0
C      1  0.4754980000000  0.4896020000000  0.5324570000000 1.0
C      1  0.4464580000000  0.5409610000000  0.4567840000000 1.0
C      1  0.5228500000000  0.5626630000000  0.4580370000000 1.0
C      1  0.5683140000000  0.4968460000000  0.4595970000000 1.0
C      1  0.5192990000000  0.4338800000000  0.4609420000000 1.0
C      1  0.4442120000000  0.4609680000000  0.4604450000000 1.0
C      1  0.4526660000000  0.5582170000000  0.5028480000000 1.0
C      1  0.5406380000000  0.5640250000000  0.5043890000000 1.0
C      1  0.5741390000000  0.4819910000000  0.5068440000000 1.0
C      1  0.5057660000000  0.4249300000000  0.5078670000000 1.0
C      1  0.4299640000000  0.4699850000000  0.5072240000000 1.0
C      1  0.4954320000000  0.5542620000000  0.4650210000000 1.0
C      1  0.5528040000000  0.5212910000000  0.4668800000000 1.0
C      1  0.5369040000000  0.4565990000000  0.4683760000000 1.0
C      1  0.4712110000000  0.4512030000000  0.4683690000000 1.0
C      1  0.4435300000000  0.5131040000000  0.4652950000000 1.0
C      1  0.4584220000000  0.4743110000000  0.4376210000000 1.0
C      1  0.4648310000000  0.5305920000000  0.4348260000000 1.0
C      1  0.5199490000000  0.5424610000000  0.4355430000000 1.0
C      1  0.5482420000000  0.4934360000000  0.4371930000000 1.0
C      1  0.5103380000000  0.4511830000000  0.4378470000000 1.0
C      1  0.4420190000000  0.5424120000000  0.5499050000000 1.0
C      1  0.5220810000000  0.5686030000000  0.5511680000000 1.0
C      1  0.5701510000000  0.5013650000000  0.5536820000000 1.0
C      1  0.5219420000000  0.4351780000000  0.5545820000000 1.0
C      1  0.4434450000000  0.4590670000000  0.5542830000000 1.0
C      1  0.5298480000000  0.4267330000000  0.5294090000000 1.0
C      1  0.4385810000000  0.4481650000000  0.5292920000000 1.0
C      1  0.4333250000000  0.5430860000000  0.5238870000000 1.0
C      1  0.5210350000000  0.5780820000000  0.5250310000000 1.0
C      1  0.5807250000000  0.5055860000000  0.5285340000000 1.0
C      1  0.5239510000000  0.5009800000000  0.5801580000000 1.0
C      1  0.5055370000000  0.4786010000000  0.5805870000000 1.0
C      1  0.4785080000000  0.4891900000000  0.5800400000000 1.0
C      1  0.4801040000000  0.5182490000000  0.5788410000000 1.0
C      1  0.5083010000000  0.5255150000000  0.5790980000000 1.0
C      1  0.5673470000000  0.5536330000000  0.5139820000000 1.0
C      1  0.5725720000000  0.4532650000000  0.5157950000000 1.0
C      1  0.4781800000000  0.4169230000000  0.5165820000000 1.0
C      1  0.4152420000000  0.4945650000000  0.5149640000000 1.0
C      1  0.4710750000000  0.5801400000000  0.5106300000000 1.0
C      1  0.4991260000000  0.5047740000000  0.4762520000000 1.0
C      1  0.4998910000000  0.4979400000000  0.4525060000000 1.0
END
