TITL C-132776-1262-5 315.887601585571 125000 -296.566560332161 0 0 44 (C2) n - 1
REM
REM in /rds/project/t2_vol4/rds-t2-cs072/BORA/CARBON/from-Arr/AIRSS/Generating-Clusters/GAP-ML-2020/Higher-Symm/SD-CG/HFTN-CG
REM
REM
REM
REM
REM
REM ./C.cell (b20cbc046b6831c77cfcea5457e17084)
REM AIRSS Version 0.9.1 bugfix July 2018 build 013d7b7c2542+ Fri, 06 Jul 2018 19:26:36 +0100
REM compiler GCC version 9.3.0
REM options -cpp -mtune=generic -march=x86-64 -g -O0
REM seed -1660728744 788474896 -1043370084 1701759843 -1211506226 290712010 -1078408175 499882263 876313335 544492266 -1490590595 208608644 908862532 1021222162 13382180 -968416966 -900708878 737353685 776127617 -1846845103 -1604671703 2131146476 2093295261 -2132011562 -1814096824 1980637072 158948761 34191078 -1514250408 -461258122 -1692521918 -10289978 1297652574
REM
CELL 1.54180   50.00000   50.00000   50.00000   90.00000   90.00000   90.00000
LATT -1
SFAC C  
C      1  0.5442870000000  0.5209030000000  0.4628070000000 1.0
C      1  0.5442860000000  0.4790950000000  0.5371940000000 1.0
C      1  0.4423840000000  0.4926180000000  0.4802710000000 1.0
C      1  0.4423840000000  0.5073840000000  0.5197280000000 1.0
C      1  0.5264390000000  0.4819190000000  0.4430840000000 1.0
C      1  0.5264390000000  0.5180800000000  0.5569170000000 1.0
C      1  0.5037630000000  0.5440270000000  0.4612340000000 1.0
C      1  0.5037610000000  0.4559720000000  0.5387660000000 1.0
C      1  0.5184520000000  0.4894010000000  0.4913160000000 1.0
C      1  0.5184520000000  0.5105980000000  0.5086850000000 1.0
C      1  0.5459590000000  0.5085230000000  0.5369780000000 1.0
C      1  0.5459590000000  0.4914750000000  0.4630230000000 1.0
C      1  0.5413610000000  0.5360470000000  0.4873390000000 1.0
C      1  0.5413600000000  0.4639510000000  0.5126610000000 1.0
C      1  0.5214580000000  0.4728580000000  0.5541360000000 1.0
C      1  0.5214590000000  0.5271410000000  0.4458640000000 1.0
C      1  0.5177310000000  0.5539080000000  0.4844580000000 1.0
C      1  0.5177290000000  0.4460910000000  0.5155420000000 1.0
C      1  0.4773900000000  0.5442820000000  0.5110800000000 1.0
C      1  0.4773880000000  0.4557190000000  0.4889200000000 1.0
C      1  0.5027590000000  0.4395060000000  0.4922840000000 1.0
C      1  0.5027620000000  0.5604940000000  0.5077160000000 1.0
C      1  0.4789310000000  0.4699370000000  0.5357570000000 1.0
C      1  0.4789330000000  0.5300640000000  0.4642420000000 1.0
C      1  0.5453010000000  0.4769150000000  0.4875400000000 1.0
C      1  0.5453020000000  0.5230840000000  0.5124610000000 1.0
C      1  0.5095060000000  0.5382110000000  0.5457510000000 1.0
C      1  0.5095050000000  0.4617880000000  0.4542500000000 1.0
C      1  0.4608630000000  0.4571060000000  0.4646000000000 1.0
C      1  0.4608650000000  0.5428960000000  0.5354000000000 1.0
C      1  0.4561260000000  0.4842280000000  0.4575800000000 1.0
C      1  0.4561260000000  0.5157740000000  0.5424190000000 1.0
C      1  0.4822460000000  0.5014300000000  0.4555510000000 1.0
C      1  0.4822460000000  0.4985710000000  0.5444490000000 1.0
C      1  0.4426020000000  0.5184670000000  0.4927250000000 1.0
C      1  0.4426010000000  0.4815360000000  0.5072740000000 1.0
C      1  0.5077270000000  0.5032970000000  0.4386030000000 1.0
C      1  0.5077260000000  0.4967020000000  0.5613970000000 1.0
C      1  0.4956540000000  0.5195100000000  0.5238100000000 1.0
C      1  0.4956540000000  0.4804900000000  0.4761900000000 1.0
C      1  0.5157600000000  0.5603520000000  0.5323050000000 1.0
C      1  0.5157580000000  0.4396470000000  0.4676960000000 1.0
C      1  0.4633040000000  0.5363750000000  0.4869380000000 1.0
C      1  0.4633020000000  0.4636270000000  0.5130620000000 1.0
END
