TITL C-133534-5376-6 -0.0246559292343638 125000 -29.7959810147839 0 0 5 (D(inf)h) n - 1
REM
REM in /rds/project/t2_vol4/rds-t2-cs072/BORA/CARBON/from-Arr/AIRSS/Generating-Clusters/GAP-ML-2020/Higher-Symm/SD-CG/HFTN-CG
REM
REM
REM
REM
REM
REM ./C.cell (b20cbc046b6831c77cfcea5457e17084)
REM AIRSS Version 0.9.1 bugfix July 2018 build 013d7b7c2542+ Fri, 06 Jul 2018 19:26:36 +0100
REM compiler GCC version 9.3.0
REM options -cpp -mtune=generic -march=x86-64 -g -O0
REM seed 357375211 892128040 1400880178 -1176860874 -1129479994 1873382010 30556965 -1429709093 -1796490222 1377027422 -1482507545 1102115982 1172395837 -1573114579 520793403 1987361176 -558826523 1434569511 1533756940 -1480969412 2139774344 -1324026256 -942249579 1164113170 1797833531 -923234048 1397746741 -217535104 -310514844 -1941848254 117935981 -727244041 -1660966589
REM
CELL 1.54180   50.00000   50.00000   50.00000   90.00000   90.00000   90.00000
LATT -1
SFAC C  
C      1  0.4738160000000  0.4961830000000  0.4947400000000 1.0
C      1  0.5499430000000  0.4961830000000  0.5095410000000 1.0
C      1  0.4484310000000  0.4961830000000  0.4898040000000 1.0
C      1  0.5245580000000  0.4961830000000  0.5046060000000 1.0
C      1  0.4991870000000  0.4961830000000  0.4996730000000 1.0
END
