TITL C-132789-1229-7 242.932537486344 125000 -733.606820036513 0 0 104 (C1) n - 1
REM
REM in /rds/project/t2_vol4/rds-t2-cs072/BORA/CARBON/from-Arr/AIRSS/Generating-Clusters/GAP-ML-2020/Higher-Symm/SD-CG/HFTN-CG
REM
REM
REM
REM
REM
REM ./C.cell (b20cbc046b6831c77cfcea5457e17084)
REM AIRSS Version 0.9.1 bugfix July 2018 build 013d7b7c2542+ Fri, 06 Jul 2018 19:26:36 +0100
REM compiler GCC version 9.3.0
REM options -cpp -mtune=generic -march=x86-64 -g -O0
REM seed 1596996702 1520893806 1651333582 -295218281 2080674171 -830789822 -7696871 572872681 -1594574086 1348904688 -327906381 -915467202 1641530038 -194546269 596345307 -384874951 609223835 763351307 1362010282 -1514882838 1361605135 138970168 -1088819226 -488258715 1222957163 -1564481224 595279424 -12820272 1073854589 1351380498 905628778 -99814490 -46377799
REM
CELL 1.54180   50.00000   50.00000   50.00000   90.00000   90.00000   90.00000
LATT -1
SFAC C  
C      1  0.4267450000000  0.4733840000000  0.4555910000000 1.0
C      1  0.4678570000000  0.5525190000000  0.5565130000000 1.0
C      1  0.4707850000000  0.4735440000000  0.5631840000000 1.0
C      1  0.4974180000000  0.4905760000000  0.4145560000000 1.0
C      1  0.4792110000000  0.5090640000000  0.4729570000000 1.0
C      1  0.5162990000000  0.4752760000000  0.5285210000000 1.0
C      1  0.4910850000000  0.4821200000000  0.5813950000000 1.0
C      1  0.4935120000000  0.4146440000000  0.4998870000000 1.0
C      1  0.4351130000000  0.4912310000000  0.4968580000000 1.0
C      1  0.5090530000000  0.5022270000000  0.5328510000000 1.0
C      1  0.5605030000000  0.5319690000000  0.5564100000000 1.0
C      1  0.4747050000000  0.5646700000000  0.5283200000000 1.0
C      1  0.5248780000000  0.5790840000000  0.5267550000000 1.0
C      1  0.5787080000000  0.5122800000000  0.4660300000000 1.0
C      1  0.4578280000000  0.4329920000000  0.5329760000000 1.0
C      1  0.4485500000000  0.5468620000000  0.4409080000000 1.0
C      1  0.4452500000000  0.4556460000000  0.4437400000000 1.0
C      1  0.5402610000000  0.5870150000000  0.4796710000000 1.0
C      1  0.5690280000000  0.5643910000000  0.5151890000000 1.0
C      1  0.4367330000000  0.4523890000000  0.5244030000000 1.0
C      1  0.5429750000000  0.5512100000000  0.4402540000000 1.0
C      1  0.4577500000000  0.4711280000000  0.4234250000000 1.0
C      1  0.5580490000000  0.5061380000000  0.5413530000000 1.0
C      1  0.4162950000000  0.4682510000000  0.5390820000000 1.0
C      1  0.5416780000000  0.4462560000000  0.4511160000000 1.0
C      1  0.5463410000000  0.5808000000000  0.5073310000000 1.0
C      1  0.5457810000000  0.4329760000000  0.5445190000000 1.0
C      1  0.4869590000000  0.4292640000000  0.4520840000000 1.0
C      1  0.5347710000000  0.5435040000000  0.5683980000000 1.0
C      1  0.4918600000000  0.5364300000000  0.4353610000000 1.0
C      1  0.5636630000000  0.5563290000000  0.5414820000000 1.0
C      1  0.4173750000000  0.4930810000000  0.5544040000000 1.0
C      1  0.4972210000000  0.5797300000000  0.5172770000000 1.0
C      1  0.5275780000000  0.5018430000000  0.4491150000000 1.0
C      1  0.5047200000000  0.4193630000000  0.4731190000000 1.0
C      1  0.5514030000000  0.4296070000000  0.4923330000000 1.0
C      1  0.5835950000000  0.5197530000000  0.4938640000000 1.0
C      1  0.5226900000000  0.4847300000000  0.4255340000000 1.0
C      1  0.5326920000000  0.4266450000000  0.4705930000000 1.0
C      1  0.4292240000000  0.4449190000000  0.4959430000000 1.0
C      1  0.4658270000000  0.4201510000000  0.5069110000000 1.0
C      1  0.4710790000000  0.5724910000000  0.4724010000000 1.0
C      1  0.5372490000000  0.5658520000000  0.5497300000000 1.0
C      1  0.4950350000000  0.4541190000000  0.5275510000000 1.0
C      1  0.4836360000000  0.4653740000000  0.4163390000000 1.0
C      1  0.4514350000000  0.5031470000000  0.4744940000000 1.0
C      1  0.4981930000000  0.4448270000000  0.4302030000000 1.0
C      1  0.4872240000000  0.5447100000000  0.5733010000000 1.0
C      1  0.4730730000000  0.5569310000000  0.4464640000000 1.0
C      1  0.5599550000000  0.4643420000000  0.4637990000000 1.0
C      1  0.5296610000000  0.5204390000000  0.5277390000000 1.0
C      1  0.5534530000000  0.4825980000000  0.5607230000000 1.0
C      1  0.4185940000000  0.5355130000000  0.5067080000000 1.0
C      1  0.4989800000000  0.4904830000000  0.4652670000000 1.0
C      1  0.4545060000000  0.4995450000000  0.4263160000000 1.0
C      1  0.4284910000000  0.5460160000000  0.4815620000000 1.0
C      1  0.5542600000000  0.5704070000000  0.4609380000000 1.0
C      1  0.4360230000000  0.5020740000000  0.4487950000000 1.0
C      1  0.5402250000000  0.4251340000000  0.5171890000000 1.0
C      1  0.5680940000000  0.4530180000000  0.4884260000000 1.0
C      1  0.5819720000000  0.5481820000000  0.4952030000000 1.0
C      1  0.5193570000000  0.4245050000000  0.5513580000000 1.0
C      1  0.4613760000000  0.4937210000000  0.5428760000000 1.0
C      1  0.5708800000000  0.4984170000000  0.5121040000000 1.0
C      1  0.4485920000000  0.5695260000000  0.5160400000000 1.0
C      1  0.5814980000000  0.5349780000000  0.4494210000000 1.0
C      1  0.5160970000000  0.5354610000000  0.4812050000000 1.0
C      1  0.5112820000000  0.4613950000000  0.5810730000000 1.0
C      1  0.4145650000000  0.5076870000000  0.5091770000000 1.0
C      1  0.4474200000000  0.5667930000000  0.4874160000000 1.0
C      1  0.5793040000000  0.4690430000000  0.5102940000000 1.0
C      1  0.4422650000000  0.5389800000000  0.5513030000000 1.0
C      1  0.4804140000000  0.5129180000000  0.4219440000000 1.0
C      1  0.5145940000000  0.5959180000000  0.4760520000000 1.0
C      1  0.5250640000000  0.4771680000000  0.5018790000000 1.0
C      1  0.5116820000000  0.5033040000000  0.5846360000000 1.0
C      1  0.4309710000000  0.5505970000000  0.5277240000000 1.0
C      1  0.4829010000000  0.5107550000000  0.5316970000000 1.0
C      1  0.5243770000000  0.4561390000000  0.4318730000000 1.0
C      1  0.5666110000000  0.5416280000000  0.4275030000000 1.0
C      1  0.5012130000000  0.4737170000000  0.4866140000000 1.0
C      1  0.5827530000000  0.4572240000000  0.5340620000000 1.0
C      1  0.4537000000000  0.4777980000000  0.5169280000000 1.0
C      1  0.5015700000000  0.4381780000000  0.5680160000000 1.0
C      1  0.4894110000000  0.5292730000000  0.4890570000000 1.0
C      1  0.5109510000000  0.5322910000000  0.5802880000000 1.0
C      1  0.5196920000000  0.5321140000000  0.4490000000000 1.0
C      1  0.5451950000000  0.4977550000000  0.4938850000000 1.0
C      1  0.5321250000000  0.4824410000000  0.5794810000000 1.0
C      1  0.4773790000000  0.4468240000000  0.5518100000000 1.0
C      1  0.5625990000000  0.4559590000000  0.5523680000000 1.0
C      1  0.4783320000000  0.5322160000000  0.5144700000000 1.0
C      1  0.4926070000000  0.5856000000000  0.4881180000000 1.0
C      1  0.5780500000000  0.5574640000000  0.4687690000000 1.0
C      1  0.4398630000000  0.5107590000000  0.5549710000000 1.0
C      1  0.4219350000000  0.4679720000000  0.4824640000000 1.0
C      1  0.5329180000000  0.5238580000000  0.4996490000000 1.0
C      1  0.4321010000000  0.5314950000000  0.4564470000000 1.0
C      1  0.4489920000000  0.4282010000000  0.4851410000000 1.0
C      1  0.5540530000000  0.4939260000000  0.4645050000000 1.0
C      1  0.4028420000000  0.4915650000000  0.5302670000000 1.0
C      1  0.4594870000000  0.4347510000000  0.4584820000000 1.0
C      1  0.5107560000000  0.4243530000000  0.5213250000000 1.0
C      1  0.4791220000000  0.4661410000000  0.5049450000000 1.0
END
