TITL C-132789-1229-9 142.8656777225 125000 -1242.51901918458 0 0 179 (C2v) n - 1
REM
REM in /rds/project/t2_vol4/rds-t2-cs072/BORA/CARBON/from-Arr/AIRSS/Generating-Clusters/GAP-ML-2020/Higher-Symm/SD-CG/HFTN-CG
REM
REM
REM
REM
REM
REM ./C.cell (b20cbc046b6831c77cfcea5457e17084)
REM AIRSS Version 0.9.1 bugfix July 2018 build 013d7b7c2542+ Fri, 06 Jul 2018 19:26:36 +0100
REM compiler GCC version 9.3.0
REM options -cpp -mtune=generic -march=x86-64 -g -O0
REM seed 354288321 428684148 512360355 1262570805 1474905658 1582341302 -994776564 -2000947341 -76900882 1994790960 2031947890 154895483 1555707073 280951384 -1747449119 -1150422291 116143217 -873345099 -1239877053 -114843842 -927171632 -1096700961 -1082297834 458993221 -329046400 -18591028 -1142772445 -955685007 1029023033 -217126830 -1548649230 -1381467194 178689250
REM
CELL 1.54180   50.00000   50.00000   50.00000   90.00000   90.00000   90.00000
LATT -1
SFAC C  
C      1  0.4476170000000  0.5100520000000  0.4831340000000 1.0
C      1  0.5522580000000  0.5100530000000  0.5164400000000 1.0
C      1  0.4476170000000  0.5100520000000  0.5164420000000 1.0
C      1  0.5522570000000  0.5100530000000  0.4831310000000 1.0
C      1  0.4423120000000  0.5993650000000  0.5149520000000 1.0
C      1  0.5575600000000  0.5993670000000  0.4846210000000 1.0
C      1  0.4423110000000  0.5993650000000  0.4846240000000 1.0
C      1  0.5575610000000  0.5993660000000  0.5149500000000 1.0
C      1  0.4074320000000  0.4337990000000  0.4699210000000 1.0
C      1  0.5924450000000  0.4338010000000  0.5296530000000 1.0
C      1  0.4074330000000  0.4337990000000  0.5296570000000 1.0
C      1  0.5924440000000  0.4338010000000  0.4699170000000 1.0
C      1  0.5542300000000  0.5615640000000  0.5145870000000 1.0
C      1  0.4456440000000  0.5615620000000  0.4849870000000 1.0
C      1  0.5542290000000  0.5615640000000  0.4849840000000 1.0
C      1  0.4456440000000  0.5615620000000  0.5145900000000 1.0
C      1  0.4846400000000  0.4513190000000  0.4474400000000 1.0
C      1  0.5152360000000  0.4513190000000  0.5521340000000 1.0
C      1  0.4846430000000  0.4513190000000  0.5521350000000 1.0
C      1  0.5152330000000  0.4513190000000  0.4474390000000 1.0
C      1  0.4284040000000  0.5765190000000  0.5333830000000 1.0
C      1  0.5714690000000  0.5765210000000  0.4661910000000 1.0
C      1  0.4284030000000  0.5765190000000  0.4661940000000 1.0
C      1  0.5714700000000  0.5765210000000  0.5333800000000 1.0
C      1  0.5570170000000  0.5055690000000  0.5802360000000 1.0
C      1  0.4428580000000  0.5055680000000  0.4193370000000 1.0
C      1  0.5570130000000  0.5055690000000  0.4193350000000 1.0
C      1  0.4428610000000  0.5055680000000  0.5802390000000 1.0
C      1  0.3981390000000  0.4552970000000  0.4851380000000 1.0
C      1  0.6017370000000  0.4552990000000  0.5144360000000 1.0
C      1  0.3981400000000  0.4552960000000  0.5144400000000 1.0
C      1  0.6017360000000  0.4552990000000  0.4851330000000 1.0
C      1  0.4223280000000  0.4223160000000  0.5470140000000 1.0
C      1  0.5775490000000  0.4223180000000  0.4525590000000 1.0
C      1  0.4223260000000  0.4223160000000  0.4525620000000 1.0
C      1  0.5775510000000  0.4223180000000  0.5470110000000 1.0
C      1  0.4638740000000  0.5933240000000  0.4406460000000 1.0
C      1  0.5359980000000  0.5933240000000  0.5589280000000 1.0
C      1  0.4638760000000  0.5933240000000  0.5589300000000 1.0
C      1  0.5359960000000  0.5933250000000  0.4406440000000 1.0
C      1  0.4748690000000  0.4780330000000  0.5630060000000 1.0
C      1  0.5250070000000  0.4780340000000  0.4365670000000 1.0
C      1  0.4748660000000  0.4780330000000  0.4365680000000 1.0
C      1  0.5250090000000  0.4780340000000  0.5630050000000 1.0
C      1  0.4295980000000  0.5361720000000  0.4849380000000 1.0
C      1  0.5702760000000  0.5361740000000  0.5146360000000 1.0
C      1  0.4295980000000  0.5361720000000  0.5146390000000 1.0
C      1  0.5702760000000  0.5361740000000  0.4849350000000 1.0
C      1  0.3954580000000  0.5305580000000  0.4664110000000 1.0
C      1  0.6044160000000  0.5305610000000  0.5331630000000 1.0
C      1  0.3954590000000  0.5305580000000  0.5331670000000 1.0
C      1  0.6044150000000  0.5305610000000  0.4664060000000 1.0
C      1  0.4854440000000  0.3988220000000  0.5268040000000 1.0
C      1  0.5144340000000  0.3988220000000  0.4727700000000 1.0
C      1  0.4854430000000  0.3988220000000  0.4727700000000 1.0
C      1  0.5144350000000  0.3988220000000  0.5268030000000 1.0
C      1  0.5574260000000  0.4286970000000  0.5652840000000 1.0
C      1  0.4424510000000  0.4286950000000  0.4342890000000 1.0
C      1  0.5574230000000  0.4286970000000  0.4342870000000 1.0
C      1  0.4424540000000  0.4286950000000  0.5652870000000 1.0
C      1  0.4447180000000  0.4809230000000  0.4371880000000 1.0
C      1  0.5551580000000  0.4809250000000  0.5623850000000 1.0
C      1  0.4447210000000  0.4809230000000  0.5623880000000 1.0
C      1  0.5551550000000  0.4809250000000  0.4371860000000 1.0
C      1  0.4857620000000  0.6049990000000  0.5477130000000 1.0
C      1  0.5141100000000  0.6049990000000  0.4518610000000 1.0
C      1  0.4857600000000  0.6049990000000  0.4518620000000 1.0
C      1  0.5141120000000  0.6049990000000  0.5477120000000 1.0
C      1  0.4076840000000  0.5546920000000  0.5274620000000 1.0
C      1  0.5921890000000  0.5546950000000  0.4721120000000 1.0
C      1  0.4076830000000  0.5546920000000  0.4721160000000 1.0
C      1  0.5921910000000  0.5546940000000  0.5274580000000 1.0
C      1  0.5624000000000  0.4843400000000  0.5302430000000 1.0
C      1  0.4374750000000  0.4843380000000  0.4693310000000 1.0
C      1  0.5623990000000  0.4843400000000  0.4693280000000 1.0
C      1  0.4374760000000  0.4843380000000  0.5302450000000 1.0
C      1  0.4860670000000  0.4697240000000  0.6136330000000 1.0
C      1  0.5138080000000  0.4697250000000  0.3859410000000 1.0
C      1  0.4860630000000  0.4697240000000  0.3859410000000 1.0
C      1  0.5138130000000  0.4697250000000  0.6136320000000 1.0
C      1  0.4728680000000  0.4206600000000  0.4860910000000 1.0
C      1  0.5270090000000  0.4206600000000  0.5134830000000 1.0
C      1  0.4728680000000  0.4206600000000  0.5134840000000 1.0
C      1  0.5270080000000  0.4206600000000  0.4860890000000 1.0
C      1  0.4702040000000  0.4461030000000  0.5263740000000 1.0
C      1  0.5296720000000  0.4461040000000  0.4731990000000 1.0
C      1  0.4702030000000  0.4461030000000  0.4732000000000 1.0
C      1  0.5296730000000  0.4461040000000  0.5263730000000 1.0
C      1  0.4375740000000  0.4545800000000  0.5780860000000 1.0
C      1  0.5623020000000  0.4545820000000  0.4214880000000 1.0
C      1  0.4375700000000  0.4545800000000  0.4214900000000 1.0
C      1  0.5623060000000  0.4545820000000  0.5780830000000 1.0
C      1  0.4529860000000  0.4642700000000  0.4855800000000 1.0
C      1  0.5468900000000  0.4642710000000  0.5139940000000 1.0
C      1  0.4529860000000  0.4642700000000  0.5139960000000 1.0
C      1  0.5468890000000  0.4642710000000  0.4855780000000 1.0
C      1  0.4862570000000  0.5443490000000  0.4708470000000 1.0
C      1  0.5136170000000  0.5443500000000  0.5287270000000 1.0
C      1  0.4862580000000  0.5443490000000  0.5287270000000 1.0
C      1  0.5136160000000  0.5443500000000  0.4708460000000 1.0
C      1  0.4046370000000  0.5193820000000  0.5582810000000 1.0
C      1  0.5952380000000  0.5193850000000  0.4412920000000 1.0
C      1  0.4046340000000  0.5193820000000  0.4412960000000 1.0
C      1  0.5952400000000  0.5193850000000  0.5582770000000 1.0
C      1  0.3910560000000  0.5077410000000  0.4858010000000 1.0
C      1  0.6088190000000  0.5077440000000  0.5137720000000 1.0
C      1  0.3910570000000  0.5077410000000  0.5137770000000 1.0
C      1  0.6088180000000  0.5077440000000  0.4857970000000 1.0
C      1  0.5957840000000  0.4834350000000  0.5268670000000 1.0
C      1  0.4040910000000  0.4834330000000  0.4727070000000 1.0
C      1  0.5957830000000  0.4834350000000  0.4727030000000 1.0
C      1  0.4040930000000  0.4834320000000  0.5268710000000 1.0
C      1  0.5284000000000  0.4455550000000  0.3887560000000 1.0
C      1  0.4714770000000  0.4455540000000  0.6108180000000 1.0
C      1  0.5284040000000  0.4455540000000  0.6108170000000 1.0
C      1  0.4714720000000  0.4455540000000  0.3887570000000 1.0
C      1  0.4706070000000  0.5966480000000  0.5242580000000 1.0
C      1  0.5292650000000  0.5966480000000  0.4753160000000 1.0
C      1  0.4706060000000  0.5966480000000  0.4753180000000 1.0
C      1  0.5292660000000  0.5966480000000  0.5242560000000 1.0
C      1  0.4862810000000  0.4993330000000  0.5454940000000 1.0
C      1  0.5135940000000  0.4993330000000  0.4540790000000 1.0
C      1  0.4862790000000  0.4993330000000  0.4540800000000 1.0
C      1  0.5135960000000  0.4993330000000  0.5454940000000 1.0
C      1  0.5326530000000  0.5132890000000  0.4075700000000 1.0
C      1  0.4672210000000  0.5132880000000  0.5920030000000 1.0
C      1  0.5326570000000  0.5132890000000  0.5920020000000 1.0
C      1  0.4672170000000  0.5132880000000  0.4075720000000 1.0
C      1  0.4284790000000  0.5284340000000  0.5734740000000 1.0
C      1  0.5713950000000  0.5284360000000  0.4261000000000 1.0
C      1  0.4284760000000  0.5284340000000  0.4261030000000 1.0
C      1  0.5713980000000  0.5284350000000  0.5734700000000 1.0
C      1  0.4471410000000  0.5512550000000  0.4238550000000 1.0
C      1  0.5527320000000  0.5512560000000  0.5757190000000 1.0
C      1  0.4471450000000  0.5512550000000  0.5757210000000 1.0
C      1  0.5527290000000  0.5512560000000  0.4238520000000 1.0
C      1  0.4013120000000  0.4928590000000  0.4449530000000 1.0
C      1  0.5985630000000  0.4928610000000  0.5546210000000 1.0
C      1  0.4013140000000  0.4928590000000  0.5546250000000 1.0
C      1  0.5985610000000  0.4928620000000  0.4449490000000 1.0
C      1  0.5536260000000  0.4532180000000  0.3958270000000 1.0
C      1  0.4462500000000  0.4532160000000  0.6037460000000 1.0
C      1  0.5536300000000  0.4532170000000  0.6037440000000 1.0
C      1  0.4462460000000  0.4532160000000  0.3958300000000 1.0
C      1  0.5155350000000  0.4896220000000  0.5907360000000 1.0
C      1  0.4843400000000  0.4896220000000  0.4088370000000 1.0
C      1  0.5155310000000  0.4896220000000  0.4088370000000 1.0
C      1  0.4843440000000  0.4896220000000  0.5907370000000 1.0
C      1  0.4722990000000  0.4214550000000  0.4303820000000 1.0
C      1  0.5275780000000  0.4214550000000  0.5691920000000 1.0
C      1  0.4723020000000  0.4214540000000  0.5691930000000 1.0
C      1  0.5275750000000  0.4214550000000  0.4303810000000 1.0
C      1  0.5141490000000  0.4000010000000  0.4437200000000 1.0
C      1  0.4857280000000  0.4000000000000  0.5558540000000 1.0
C      1  0.5141520000000  0.4000000000000  0.5558530000000 1.0
C      1  0.4857260000000  0.4000000000000  0.4437200000000 1.0
C      1  0.4437250000000  0.5753640000000  0.4394810000000 1.0
C      1  0.5561470000000  0.5753650000000  0.5600930000000 1.0
C      1  0.4437280000000  0.5753640000000  0.5600950000000 1.0
C      1  0.5561450000000  0.5753660000000  0.4394780000000 1.0
C      1  0.5268900000000  0.5409890000000  0.4114830000000 1.0
C      1  0.4729840000000  0.5409890000000  0.5880910000000 1.0
C      1  0.5268940000000  0.5409890000000  0.5880900000000 1.0
C      1  0.4729800000000  0.5409890000000  0.4114840000000 1.0
C      1  0.4757540000000  0.5164740000000  0.5252470000000 1.0
C      1  0.5241200000000  0.5164750000000  0.4743270000000 1.0
C      1  0.4757530000000  0.5164740000000  0.4743280000000 1.0
C      1  0.5241220000000  0.5164750000000  0.5252460000000 1.0
C      1  0.5142430000000  0.4258740000000  0.5954050000000 1.0
C      1  0.4856340000000  0.4258740000000  0.4041690000000 1.0
C      1  0.5142390000000  0.4258740000000  0.4041680000000 1.0
C      1  0.4856380000000  0.4258740000000  0.5954050000000 1.0
C      1  0.5249410000000  0.5677350000000  0.4846370000000 1.0
C      1  0.4749320000000  0.5677350000000  0.5149370000000 1.0
C      1  0.5249420000000  0.5677350000000  0.5149360000000 1.0
C      1  0.4749310000000  0.5677350000000  0.4846380000000 1.0
C      1  0.4999350000000  0.5471920000000  0.4080130000000 1.0
C      1  0.4999390000000  0.5471920000000  0.5915600000000 1.0
C      1  0.4999370000000  0.5119220000000  0.4997870000000 1.0
END
