TITL C-131486-8601-6 0.146620944689329 125000 -759.055745942381 0 0 107 (C1) n - 1
REM
REM in /rds/project/t2_vol4/rds-t2-cs072/BORA/CARBON/from-Arr/AIRSS/Generating-Clusters/GAP-ML-2020/Higher-Symm/SD-CG/HFTN-CG
REM
REM
REM
REM
REM
REM ./C.cell (b20cbc046b6831c77cfcea5457e17084)
REM AIRSS Version 0.9.1 bugfix July 2018 build 013d7b7c2542+ Fri, 06 Jul 2018 19:26:36 +0100
REM compiler GCC version 9.3.0
REM options -cpp -mtune=generic -march=x86-64 -g -O0
REM seed -270994204 173732073 -1559937882 -1798960737 1970723030 -1478782869 -1939763004 1547797340 751493981 1685419976 204210113 1242077519 -2082056716 1205816298 9391622 1447613183 1260872396 1750468345 -806674717 -1060586937 -275446105 1451993335 380671987 999688724 -1147780918 -1265525348 1577066435 960998878 822424117 232295035 1806524829 489228479 -458454723
REM
CELL 1.54180   50.00000   50.00000   50.00000   90.00000   90.00000   90.00000
LATT -1
SFAC C  
C      1  0.5557830000000  0.5807140000000  0.4892370000000 1.0
C      1  0.4599460000000  0.4699690000000  0.5756130000000 1.0
C      1  0.5807460000000  0.4818630000000  0.4524780000000 1.0
C      1  0.4704890000000  0.4749470000000  0.5224930000000 1.0
C      1  0.4754090000000  0.5157460000000  0.5786060000000 1.0
C      1  0.5809850000000  0.5512880000000  0.5174500000000 1.0
C      1  0.5308390000000  0.5820930000000  0.4741970000000 1.0
C      1  0.4837130000000  0.5261540000000  0.4978360000000 1.0
C      1  0.5538570000000  0.4447270000000  0.4756550000000 1.0
C      1  0.4854150000000  0.4976850000000  0.4354520000000 1.0
C      1  0.5048070000000  0.5840870000000  0.4873500000000 1.0
C      1  0.4358370000000  0.4783060000000  0.5608070000000 1.0
C      1  0.4929780000000  0.4599890000000  0.4781580000000 1.0
C      1  0.4674710000000  0.4175950000000  0.4793550000000 1.0
C      1  0.5740970000000  0.5652050000000  0.4743230000000 1.0
C      1  0.5105650000000  0.4703960000000  0.4990010000000 1.0
C      1  0.5203460000000  0.5658850000000  0.5519110000000 1.0
C      1  0.5443290000000  0.4518260000000  0.5616630000000 1.0
C      1  0.4471090000000  0.5655540000000  0.5144710000000 1.0
C      1  0.5399150000000  0.4913240000000  0.5286580000000 1.0
C      1  0.4672000000000  0.4595910000000  0.4306150000000 1.0
C      1  0.5432750000000  0.4421790000000  0.5347490000000 1.0
C      1  0.5258810000000  0.5130700000000  0.4310400000000 1.0
C      1  0.5624260000000  0.5544610000000  0.4513210000000 1.0
C      1  0.4770580000000  0.4273630000000  0.5535560000000 1.0
C      1  0.4793870000000  0.5752080000000  0.4745830000000 1.0
C      1  0.4836810000000  0.4215630000000  0.4550070000000 1.0
C      1  0.5210620000000  0.4245690000000  0.5306550000000 1.0
C      1  0.5419920000000  0.5099500000000  0.5048720000000 1.0
C      1  0.4648360000000  0.4220400000000  0.5280950000000 1.0
C      1  0.5459430000000  0.4944900000000  0.4249230000000 1.0
C      1  0.5355870000000  0.5674570000000  0.4496110000000 1.0
C      1  0.5444230000000  0.5225240000000  0.5731650000000 1.0
C      1  0.4969160000000  0.4785170000000  0.5226760000000 1.0
C      1  0.4347660000000  0.5451050000000  0.4726500000000 1.0
C      1  0.5835410000000  0.5278880000000  0.5339710000000 1.0
C      1  0.4172400000000  0.5224620000000  0.4823110000000 1.0
C      1  0.4606020000000  0.5134760000000  0.5008740000000 1.0
C      1  0.5707100000000  0.5028280000000  0.4359610000000 1.0
C      1  0.4263620000000  0.4569790000000  0.5443110000000 1.0
C      1  0.4171480000000  0.4988820000000  0.4647570000000 1.0
C      1  0.5351250000000  0.5792490000000  0.5303010000000 1.0
C      1  0.4384210000000  0.4337600000000  0.5289370000000 1.0
C      1  0.4683770000000  0.5452870000000  0.4362570000000 1.0
C      1  0.5105640000000  0.5350170000000  0.4210550000000 1.0
C      1  0.5099830000000  0.5848100000000  0.5153300000000 1.0
C      1  0.4972340000000  0.5311510000000  0.5696540000000 1.0
C      1  0.4086190000000  0.4620580000000  0.5219750000000 1.0
C      1  0.5363250000000  0.4945400000000  0.5798630000000 1.0
C      1  0.4312300000000  0.5066830000000  0.5554980000000 1.0
C      1  0.5598750000000  0.5735360000000  0.5166760000000 1.0
C      1  0.4854490000000  0.5647970000000  0.4481070000000 1.0
C      1  0.5093290000000  0.4803650000000  0.5735250000000 1.0
C      1  0.5913780000000  0.5231860000000  0.4720930000000 1.0
C      1  0.5861970000000  0.4828260000000  0.5005010000000 1.0
C      1  0.5115060000000  0.4203590000000  0.5037030000000 1.0
C      1  0.4447380000000  0.4321940000000  0.4671140000000 1.0
C      1  0.4838280000000  0.5252940000000  0.4227170000000 1.0
C      1  0.4494740000000  0.5494010000000  0.5526270000000 1.0
C      1  0.4228860000000  0.4464290000000  0.4794910000000 1.0
C      1  0.5049840000000  0.5216600000000  0.4791410000000 1.0
C      1  0.4187630000000  0.5213140000000  0.5326280000000 1.0
C      1  0.4116840000000  0.4744960000000  0.4782790000000 1.0
C      1  0.5034950000000  0.5204230000000  0.5434780000000 1.0
C      1  0.5933380000000  0.4943110000000  0.4754490000000 1.0
C      1  0.5859810000000  0.4987210000000  0.5243730000000 1.0
C      1  0.5127180000000  0.4931500000000  0.5418810000000 1.0
C      1  0.5173730000000  0.4511470000000  0.5701080000000 1.0
C      1  0.4606320000000  0.4862210000000  0.4996340000000 1.0
C      1  0.5561620000000  0.4763210000000  0.5686330000000 1.0
C      1  0.5011810000000  0.5366760000000  0.5201600000000 1.0
C      1  0.4506590000000  0.5245430000000  0.5667500000000 1.0
C      1  0.5075370000000  0.4381580000000  0.4588530000000 1.0
C      1  0.5079800000000  0.5046460000000  0.4554290000000 1.0
C      1  0.5463660000000  0.4932540000000  0.4826770000000 1.0
C      1  0.5885860000000  0.5462640000000  0.4897280000000 1.0
C      1  0.4689640000000  0.4750870000000  0.4746300000000 1.0
C      1  0.5760720000000  0.5285800000000  0.4485820000000 1.0
C      1  0.5248470000000  0.5312980000000  0.4987920000000 1.0
C      1  0.5411350000000  0.4642280000000  0.5155450000000 1.0
C      1  0.5280660000000  0.4294470000000  0.4790810000000 1.0
C      1  0.4652450000000  0.4438010000000  0.5716970000000 1.0
C      1  0.4929030000000  0.4694260000000  0.4246930000000 1.0
C      1  0.5608950000000  0.4662140000000  0.4949690000000 1.0
C      1  0.4660690000000  0.5676910000000  0.5373200000000 1.0
C      1  0.4422010000000  0.5394720000000  0.4453530000000 1.0
C      1  0.4816400000000  0.4880930000000  0.5811920000000 1.0
C      1  0.4523310000000  0.5653460000000  0.4863630000000 1.0
C      1  0.4292270000000  0.5231340000000  0.4268820000000 1.0
C      1  0.5119980000000  0.5600400000000  0.4358340000000 1.0
C      1  0.4201590000000  0.4397010000000  0.5070390000000 1.0
C      1  0.5051390000000  0.4299030000000  0.5540830000000 1.0
C      1  0.5188440000000  0.4890660000000  0.4781400000000 1.0
C      1  0.5413340000000  0.4660990000000  0.4323760000000 1.0
C      1  0.4337990000000  0.5003670000000  0.4416170000000 1.0
C      1  0.5155840000000  0.4547060000000  0.4341870000000 1.0
C      1  0.5618160000000  0.4589770000000  0.4515280000000 1.0
C      1  0.4597850000000  0.4847260000000  0.4460780000000 1.0
C      1  0.5679380000000  0.5195390000000  0.5571620000000 1.0
C      1  0.4949760000000  0.5668960000000  0.5337890000000 1.0
C      1  0.4307500000000  0.5472280000000  0.5305040000000 1.0
C      1  0.4039800000000  0.4833840000000  0.5043680000000 1.0
C      1  0.5231030000000  0.5430580000000  0.5696790000000 1.0
C      1  0.4084500000000  0.5117160000000  0.5080300000000 1.0
C      1  0.4617490000000  0.4358390000000  0.4433060000000 1.0
C      1  0.5669750000000  0.4916450000000  0.5462350000000 1.0
C      1  0.4813810000000  0.4170890000000  0.5039030000000 1.0
END
