TITL C-133524-5253-3 187.716325879995 125000 -480.377257323638 0 0 68 (C1) n - 1
REM
REM in /rds/project/t2_vol4/rds-t2-cs072/BORA/CARBON/from-Arr/AIRSS/Generating-Clusters/GAP-ML-2020/Higher-Symm/SD-CG/HFTN-CG
REM
REM
REM
REM
REM
REM ./C.cell (b20cbc046b6831c77cfcea5457e17084)
REM AIRSS Version 0.9.1 bugfix July 2018 build 013d7b7c2542+ Fri, 06 Jul 2018 19:26:36 +0100
REM compiler GCC version 9.3.0
REM options -cpp -mtune=generic -march=x86-64 -g -O0
REM seed 324223978 1456299077 -317800743 1906371418 -516051090 694848851 17481857 -1591551071 -60709302 -1382156446 1222658639 -331319715 2010129971 515675211 1574384320 -2117318218 1551061076 -448919582 -404940456 1627408976 -2140830528 -359767002 -1572757849 907229194 2018590582 1096390431 -890014631 508288335 191574015 1040847975 -1110531520 -778755650 262851680
REM
CELL 1.54180   50.00000   50.00000   50.00000   90.00000   90.00000   90.00000
LATT -1
SFAC C  
C      1  0.5159860000000  0.5045020000000  0.4268970000000 1.0
C      1  0.4945870000000  0.4639670000000  0.4358290000000 1.0
C      1  0.4739620000000  0.5068490000000  0.4325670000000 1.0
C      1  0.5130260000000  0.5263380000000  0.4972510000000 1.0
C      1  0.5273370000000  0.4856060000000  0.4983210000000 1.0
C      1  0.4866730000000  0.4934770000000  0.4941480000000 1.0
C      1  0.5300910000000  0.5360150000000  0.5594150000000 1.0
C      1  0.5164530000000  0.4551870000000  0.5550760000000 1.0
C      1  0.4532160000000  0.5077220000000  0.5545120000000 1.0
C      1  0.4494060000000  0.4467100000000  0.4896440000000 1.0
C      1  0.4841930000000  0.5697260000000  0.4912690000000 1.0
C      1  0.5637710000000  0.4901110000000  0.4829260000000 1.0
C      1  0.5313480000000  0.5521420000000  0.4593060000000 1.0
C      1  0.5220260000000  0.4627450000000  0.4487070000000 1.0
C      1  0.4552090000000  0.4895290000000  0.4491590000000 1.0
C      1  0.5407570000000  0.4662430000000  0.5449370000000 1.0
C      1  0.4496530000000  0.4808400000000  0.5447780000000 1.0
C      1  0.5084100000000  0.5529010000000  0.5498760000000 1.0
C      1  0.4688270000000  0.4327490000000  0.5068850000000 1.0
C      1  0.4610580000000  0.5587630000000  0.5054560000000 1.0
C      1  0.5698250000000  0.5115150000000  0.5020760000000 1.0
C      1  0.4587880000000  0.4408500000000  0.4625770000000 1.0
C      1  0.4834530000000  0.5606130000000  0.4639720000000 1.0
C      1  0.5542070000000  0.5022330000000  0.4581110000000 1.0
C      1  0.5067810000000  0.4350070000000  0.5376030000000 1.0
C      1  0.4416090000000  0.5268360000000  0.5365150000000 1.0
C      1  0.5533670000000  0.5390940000000  0.5428020000000 1.0
C      1  0.4456680000000  0.5442520000000  0.4852680000000 1.0
C      1  0.5652930000000  0.5356120000000  0.4876820000000 1.0
C      1  0.4888960000000  0.4221650000000  0.4872220000000 1.0
C      1  0.4297330000000  0.5122390000000  0.5154210000000 1.0
C      1  0.5473680000000  0.5601030000000  0.5252810000000 1.0
C      1  0.5254290000000  0.4331530000000  0.5162900000000 1.0
C      1  0.5451690000000  0.4532950000000  0.5190720000000 1.0
C      1  0.4342590000000  0.4841800000000  0.5195380000000 1.0
C      1  0.5198910000000  0.5682580000000  0.5276280000000 1.0
C      1  0.4761160000000  0.4182300000000  0.4622810000000 1.0
C      1  0.4605090000000  0.5458680000000  0.4622330000000 1.0
C      1  0.5521630000000  0.5309350000000  0.4624100000000 1.0
C      1  0.4663720000000  0.4628200000000  0.4464710000000 1.0
C      1  0.5048830000000  0.5493640000000  0.4487240000000 1.0
C      1  0.5351640000000  0.4884560000000  0.4416430000000 1.0
C      1  0.5020710000000  0.4766990000000  0.5134300000000 1.0
C      1  0.4882590000000  0.5166940000000  0.5112200000000 1.0
C      1  0.5296340000000  0.5093350000000  0.5166260000000 1.0
C      1  0.5486460000000  0.4654170000000  0.4914360000000 1.0
C      1  0.4368650000000  0.4721330000000  0.4932720000000 1.0
C      1  0.5105040000000  0.5750200000000  0.5006360000000 1.0
C      1  0.4942440000000  0.4707560000000  0.5639680000000 1.0
C      1  0.4770070000000  0.5185390000000  0.5654380000000 1.0
C      1  0.5273710000000  0.5086610000000  0.5660710000000 1.0
C      1  0.5327510000000  0.5687290000000  0.4826480000000 1.0
C      1  0.5315280000000  0.4481290000000  0.4719860000000 1.0
C      1  0.4383090000000  0.4940090000000  0.4728210000000 1.0
C      1  0.5578580000000  0.5125450000000  0.5304950000000 1.0
C      1  0.4783570000000  0.4388720000000  0.5332580000000 1.0
C      1  0.4596330000000  0.5488230000000  0.5327950000000 1.0
C      1  0.5546220000000  0.5592990000000  0.4985420000000 1.0
C      1  0.5167800000000  0.4304100000000  0.4896350000000 1.0
C      1  0.4327380000000  0.5188130000000  0.4879220000000 1.0
C      1  0.4812100000000  0.5445230000000  0.5525430000000 1.0
C      1  0.5475080000000  0.4929320000000  0.5510920000000 1.0
C      1  0.4704730000000  0.4614700000000  0.5502020000000 1.0
C      1  0.5042260000000  0.5012890000000  0.5312580000000 1.0
C      1  0.4974680000000  0.5263860000000  0.4343400000000 1.0
C      1  0.5098960000000  0.5022860000000  0.4791250000000 1.0
C      1  0.4995730000000  0.4994470000000  0.5645940000000 1.0
C      1  0.4936790000000  0.4880030000000  0.4216450000000 1.0
END
