TITL C-132120-2119-11 0.0599878968862269 125000 -530.074540479726 0 0 78 (C1) n - 1
REM
REM in /rds/project/t2_vol4/rds-t2-cs072/BORA/CARBON/from-Arr/AIRSS/Generating-Clusters/GAP-ML-2020/Higher-Symm/SD-CG/HFTN-CG
REM
REM
REM
REM
REM
REM ./C.cell (b20cbc046b6831c77cfcea5457e17084)
REM AIRSS Version 0.9.1 bugfix July 2018 build 013d7b7c2542+ Fri, 06 Jul 2018 19:26:36 +0100
REM compiler GCC version 9.3.0
REM options -cpp -mtune=generic -march=x86-64 -g -O0
REM seed 78733035 5423741 -488875765 -530646692 -1787120631 720303198 -488166523 983576215 1059345909 -58153634 -177526682 -784750973 -1931824979 -1277814821 -911919876 -1538285111 -1486018978 -1186988486 1137608614 -895043072 -333674457 1301394876 772363805 -564201611 -2031625467 568221028 -886712688 -1945365557 162554034 1316738477 890376236 1550158164 -1363110177
REM
CELL 1.54180   50.00000   50.00000   50.00000   90.00000   90.00000   90.00000
LATT -1
SFAC C  
C      1  0.5308460000000  0.5616030000000  0.4881490000000 1.0
C      1  0.5305680000000  0.4387310000000  0.4878500000000 1.0
C      1  0.4423650000000  0.4676890000000  0.5442490000000 1.0
C      1  0.4455210000000  0.5328520000000  0.5448450000000 1.0
C      1  0.4482600000000  0.5587210000000  0.5313430000000 1.0
C      1  0.4460600000000  0.4415110000000  0.5315780000000 1.0
C      1  0.4538010000000  0.4446700000000  0.5027280000000 1.0
C      1  0.4533160000000  0.5555280000000  0.5013470000000 1.0
C      1  0.5308760000000  0.4444230000000  0.4591510000000 1.0
C      1  0.5298590000000  0.5559880000000  0.4595020000000 1.0
C      1  0.5170620000000  0.4409150000000  0.5455590000000 1.0
C      1  0.5187330000000  0.5690770000000  0.5376320000000 1.0
C      1  0.4392730000000  0.4690820000000  0.4580960000000 1.0
C      1  0.4390140000000  0.5304450000000  0.4576860000000 1.0
C      1  0.4817550000000  0.5677410000000  0.5033240000000 1.0
C      1  0.4829140000000  0.4334640000000  0.5078020000000 1.0
C      1  0.5382380000000  0.5267250000000  0.4585080000000 1.0
C      1  0.5386910000000  0.4737080000000  0.4581520000000 1.0
C      1  0.4693910000000  0.4377970000000  0.5489920000000 1.0
C      1  0.4725400000000  0.5626510000000  0.5465890000000 1.0
C      1  0.5042430000000  0.5143970000000  0.4240370000000 1.0
C      1  0.5043400000000  0.4856650000000  0.4239900000000 1.0
C      1  0.5321630000000  0.4860130000000  0.4328280000000 1.0
C      1  0.5319410000000  0.5143520000000  0.4330490000000 1.0
C      1  0.4660600000000  0.4308850000000  0.4553640000000 1.0
C      1  0.4648590000000  0.5690710000000  0.4538720000000 1.0
C      1  0.5419620000000  0.4462380000000  0.5333350000000 1.0
C      1  0.5418970000000  0.5557700000000  0.5343540000000 1.0
C      1  0.5028310000000  0.5155740000000  0.5216930000000 1.0
C      1  0.5023670000000  0.4850090000000  0.5209910000000 1.0
C      1  0.5443660000000  0.4729930000000  0.5462690000000 1.0
C      1  0.5442740000000  0.5290270000000  0.5486750000000 1.0
C      1  0.4640450000000  0.4840950000000  0.4516780000000 1.0
C      1  0.4641270000000  0.5157100000000  0.4518450000000 1.0
C      1  0.5225230000000  0.5044590000000  0.5905700000000 1.0
C      1  0.5179250000000  0.4787940000000  0.5905510000000 1.0
C      1  0.4683290000000  0.4655800000000  0.5570200000000 1.0
C      1  0.4718960000000  0.5352180000000  0.5573860000000 1.0
C      1  0.4714630000000  0.4853480000000  0.4845780000000 1.0
C      1  0.4715940000000  0.5149840000000  0.4845880000000 1.0
C      1  0.4479180000000  0.5568140000000  0.4702620000000 1.0
C      1  0.4489780000000  0.4428360000000  0.4717650000000 1.0
C      1  0.5510130000000  0.5529350000000  0.5057930000000 1.0
C      1  0.5506540000000  0.4474140000000  0.5055780000000 1.0
C      1  0.4924180000000  0.4308800000000  0.5348010000000 1.0
C      1  0.4929300000000  0.5726680000000  0.5294070000000 1.0
C      1  0.4831170000000  0.5294020000000  0.4345490000000 1.0
C      1  0.4832210000000  0.4704990000000  0.4344330000000 1.0
C      1  0.5802190000000  0.5150570000000  0.5188680000000 1.0
C      1  0.5796550000000  0.4861930000000  0.5188220000000 1.0
C      1  0.4379190000000  0.5143470000000  0.5255500000000 1.0
C      1  0.4365690000000  0.4868360000000  0.5251930000000 1.0
C      1  0.5319800000000  0.5148060000000  0.5240250000000 1.0
C      1  0.5316560000000  0.4870940000000  0.5236920000000 1.0
C      1  0.5682180000000  0.4708680000000  0.4981950000000 1.0
C      1  0.5684580000000  0.5299850000000  0.4981030000000 1.0
C      1  0.5142800000000  0.4337460000000  0.4404980000000 1.0
C      1  0.5134970000000  0.5667290000000  0.4406270000000 1.0
C      1  0.5029660000000  0.4446830000000  0.4928340000000 1.0
C      1  0.5031700000000  0.5547810000000  0.4919860000000 1.0
C      1  0.5211210000000  0.5198900000000  0.5665760000000 1.0
C      1  0.5166060000000  0.4673150000000  0.5630280000000 1.0
C      1  0.4277990000000  0.5138710000000  0.4774440000000 1.0
C      1  0.4277160000000  0.4860220000000  0.4774740000000 1.0
C      1  0.5699940000000  0.4863750000000  0.5458290000000 1.0
C      1  0.5700630000000  0.5155230000000  0.5458740000000 1.0
C      1  0.4979100000000  0.5258040000000  0.4937650000000 1.0
C      1  0.4976520000000  0.4742720000000  0.4931820000000 1.0
C      1  0.4925440000000  0.4822430000000  0.5504500000000 1.0
C      1  0.4949190000000  0.5161640000000  0.5521320000000 1.0
C      1  0.5607840000000  0.5149150000000  0.4746080000000 1.0
C      1  0.5609450000000  0.4858390000000  0.4745920000000 1.0
C      1  0.4867040000000  0.4420000000000  0.4391700000000 1.0
C      1  0.4859250000000  0.5580620000000  0.4385110000000 1.0
C      1  0.4459210000000  0.4756130000000  0.4993910000000 1.0
C      1  0.4460100000000  0.5249830000000  0.4993320000000 1.0
C      1  0.5181440000000  0.4866930000000  0.4768910000000 1.0
C      1  0.5181190000000  0.5133430000000  0.4770140000000 1.0
END
