TITL C-132793-1230-1 -7.13134325396908 125000 -318.911836469201 0 0 45 (Cs) n - 1
REM
REM in /rds/project/t2_vol4/rds-t2-cs072/BORA/CARBON/from-Arr/AIRSS/Generating-Clusters/GAP-ML-2020/Higher-Symm/SD-CG/HFTN-CG
REM
REM
REM
REM
REM
REM ./C.cell (b20cbc046b6831c77cfcea5457e17084)
REM AIRSS Version 0.9.1 bugfix July 2018 build 013d7b7c2542+ Fri, 06 Jul 2018 19:26:36 +0100
REM compiler GCC version 9.3.0
REM options -cpp -mtune=generic -march=x86-64 -g -O0
REM seed -286319881 641345501 -1969799234 -1007352327 372495200 -1228651163 -390296534 -1485837336 -1811885567 173886279 -947428020 2090786791 -1306933845 718569686 -1777019086 -1176568830 675561835 1830022874 1157440702 859216027 -599848094 -1789767236 1633583465 -722109319 688951917 -343837826 -998511705 -1567112680 435977287 -735492575 1292398206 1368321132 -970420241
REM
CELL 1.54180   50.00000   50.00000   50.00000   90.00000   90.00000   90.00000
LATT -1
SFAC C  
C      1  0.5257340000000  0.5406660000000  0.5218500000000 1.0
C      1  0.5216230000000  0.5499890000000  0.4953480000000 1.0
C      1  0.5364260000000  0.5388590000000  0.4722760000000 1.0
C      1  0.5125590000000  0.5391920000000  0.4562760000000 1.0
C      1  0.4970550000000  0.5503320000000  0.4788780000000 1.0
C      1  0.4708030000000  0.5414320000000  0.4850250000000 1.0
C      1  0.4635310000000  0.5438100000000  0.5131860000000 1.0
C      1  0.4819480000000  0.5590760000000  0.5281580000000 1.0
C      1  0.5024950000000  0.5432660000000  0.5393060000000 1.0
C      1  0.4674780000000  0.4889330000000  0.4345080000000 1.0
C      1  0.4429980000000  0.4996290000000  0.4718330000000 1.0
C      1  0.4379170000000  0.4994850000000  0.5218930000000 1.0
C      1  0.4581960000000  0.4910110000000  0.5621730000000 1.0
C      1  0.5033150000000  0.4985730000000  0.5657330000000 1.0
C      1  0.5476890000000  0.4981680000000  0.5420130000000 1.0
C      1  0.5727100000000  0.4874640000000  0.5050520000000 1.0
C      1  0.5555570000000  0.4932690000000  0.4625020000000 1.0
C      1  0.5134570000000  0.4938570000000  0.4342790000000 1.0
C      1  0.5216770000000  0.4604980000000  0.4668410000000 1.0
C      1  0.4942750000000  0.4577170000000  0.4586670000000 1.0
C      1  0.4677750000000  0.4593960000000  0.4717810000000 1.0
C      1  0.4580310000000  0.4637410000000  0.4983910000000 1.0
C      1  0.4641360000000  0.4602090000000  0.5261200000000 1.0
C      1  0.4886930000000  0.4598660000000  0.5425820000000 1.0
C      1  0.5167260000000  0.4629220000000  0.5377380000000 1.0
C      1  0.5375540000000  0.4584220000000  0.5185590000000 1.0
C      1  0.5395890000000  0.4570840000000  0.4890440000000 1.0
C      1  0.5594520000000  0.4765080000000  0.5271780000000 1.0
C      1  0.5630450000000  0.4739690000000  0.4822350000000 1.0
C      1  0.5335400000000  0.4821570000000  0.4495960000000 1.0
C      1  0.4919920000000  0.4749600000000  0.4346030000000 1.0
C      1  0.4518360000000  0.4780100000000  0.4550370000000 1.0
C      1  0.4402840000000  0.4879520000000  0.4968570000000 1.0
C      1  0.4456720000000  0.4788700000000  0.5402040000000 1.0
C      1  0.4830370000000  0.4783490000000  0.5652530000000 1.0
C      1  0.5253500000000  0.4867650000000  0.5538820000000 1.0
C      1  0.5018280000000  0.5202410000000  0.4395810000000 1.0
C      1  0.4730510000000  0.5167290000000  0.4412920000000 1.0
C      1  0.4586570000000  0.5234980000000  0.4656300000000 1.0
C      1  0.4496880000000  0.5247620000000  0.5303740000000 1.0
C      1  0.4627650000000  0.5189940000000  0.5559400000000 1.0
C      1  0.4914870000000  0.5241790000000  0.5583950000000 1.0
C      1  0.5479390000000  0.5222520000000  0.5254820000000 1.0
C      1  0.5648540000000  0.5154480000000  0.5028330000000 1.0
C      1  0.5555770000000  0.5194920000000  0.4756130000000 1.0
END
