TITL C-132769-2488-6 -47.0313378096549 125000 -679.84054419335 0 0 96 (C4) n - 1
REM
REM in /rds/project/t2_vol4/rds-t2-cs072/BORA/CARBON/from-Arr/AIRSS/Generating-Clusters/GAP-ML-2020/Higher-Symm/SD-CG/HFTN-CG
REM
REM
REM
REM
REM
REM ./C.cell (b20cbc046b6831c77cfcea5457e17084)
REM AIRSS Version 0.9.1 bugfix July 2018 build 013d7b7c2542+ Fri, 06 Jul 2018 19:26:36 +0100
REM compiler GCC version 9.3.0
REM options -cpp -mtune=generic -march=x86-64 -g -O0
REM seed 783343052 -1809815788 -179191290 1712080933 2057737184 751277160 75558223 572460295 -94844821 -185327488 -1243554019 -471602347 -2049126894 749992028 51187562 -2141148504 479005617 1462732464 1116097400 982836043 -1073537251 1911102715 892390911 -931054135 2000854853 -1862110278 -1883691425 1255424354 -759043472 643551036 115908532 851588994 1784881813
REM
CELL 1.54180   50.00000   50.00000   50.00000   90.00000   90.00000   90.00000
LATT -1
SFAC C  
C      1  0.4856180000000  0.5650140000000  0.5592600000000 1.0
C      1  0.4475800000000  0.5653220000000  0.5316810000000 1.0
C      1  0.4407600000000  0.5650310000000  0.4856120000000 1.0
C      1  0.4683380000000  0.5653270000000  0.4475740000000 1.0
C      1  0.5144080000000  0.5650210000000  0.4407540000000 1.0
C      1  0.5524460000000  0.5653080000000  0.4683320000000 1.0
C      1  0.5592660000000  0.5650040000000  0.5144020000000 1.0
C      1  0.5316880000000  0.5653030000000  0.5524400000000 1.0
C      1  0.5326260000000  0.5823080000000  0.4803480000000 1.0
C      1  0.5368680000000  0.5821470000000  0.5090710000000 1.0
C      1  0.5196770000000  0.5823050000000  0.5326190000000 1.0
C      1  0.4909540000000  0.5821530000000  0.5368610000000 1.0
C      1  0.4674060000000  0.5823170000000  0.5196690000000 1.0
C      1  0.4631640000000  0.5821640000000  0.4909460000000 1.0
C      1  0.4803560000000  0.5823200000000  0.4673990000000 1.0
C      1  0.5090790000000  0.5821570000000  0.4631570000000 1.0
C      1  0.5320230000000  0.4864930000000  0.4974560000000 1.0
C      1  0.5243590000000  0.4757010000000  0.5208600000000 1.0
C      1  0.5025400000000  0.4864960000000  0.5320240000000 1.0
C      1  0.4791320000000  0.4757100000000  0.5243620000000 1.0
C      1  0.4679720000000  0.4865060000000  0.5025410000000 1.0
C      1  0.4756310000000  0.4757150000000  0.4791350000000 1.0
C      1  0.4974550000000  0.4865030000000  0.4679730000000 1.0
C      1  0.5208580000000  0.4757060000000  0.4756330000000 1.0
C      1  0.5105830000000  0.5520820000000  0.5676830000000 1.0
C      1  0.4597500000000  0.5518850000000  0.5548910000000 1.0
C      1  0.4323320000000  0.5521030000000  0.5105780000000 1.0
C      1  0.4451250000000  0.5518980000000  0.4597450000000 1.0
C      1  0.4894380000000  0.5521000000000  0.4323280000000 1.0
C      1  0.5402710000000  0.5518810000000  0.4451200000000 1.0
C      1  0.5676880000000  0.5520780000000  0.4894330000000 1.0
C      1  0.5548960000000  0.5518680000000  0.5402660000000 1.0
C      1  0.4744460000000  0.4390250000000  0.4443470000000 1.0
C      1  0.5211620000000  0.4394800000000  0.4426050000000 1.0
C      1  0.5556350000000  0.4390060000000  0.4744520000000 1.0
C      1  0.5573770000000  0.4394640000000  0.5211680000000 1.0
C      1  0.5255290000000  0.4390030000000  0.5556400000000 1.0
C      1  0.4788140000000  0.4394760000000  0.5573820000000 1.0
C      1  0.4443410000000  0.4390230000000  0.5255350000000 1.0
C      1  0.4425990000000  0.4394920000000  0.4788200000000 1.0
C      1  0.5831220000000  0.4884970000000  0.5229070000000 1.0
C      1  0.5415840000000  0.4867080000000  0.5776150000000 1.0
C      1  0.4770890000000  0.4885120000000  0.5831230000000 1.0
C      1  0.4223800000000  0.4867360000000  0.5415860000000 1.0
C      1  0.4168740000000  0.4885350000000  0.4770900000000 1.0
C      1  0.4584100000000  0.4867410000000  0.4223820000000 1.0
C      1  0.5229060000000  0.4885200000000  0.4168750000000 1.0
C      1  0.5776140000000  0.4867140000000  0.4584120000000 1.0
C      1  0.4989070000000  0.4763760000000  0.4167290000000 1.0
C      1  0.5582120000000  0.4767060000000  0.4426430000000 1.0
C      1  0.5832640000000  0.4763510000000  0.4989090000000 1.0
C      1  0.5573500000000  0.4766940000000  0.5582140000000 1.0
C      1  0.5010840000000  0.4763580000000  0.5832660000000 1.0
C      1  0.4417790000000  0.4767170000000  0.5573520000000 1.0
C      1  0.4167270000000  0.4763840000000  0.5010860000000 1.0
C      1  0.4426410000000  0.4767290000000  0.4417810000000 1.0
C      1  0.5416020000000  0.5236300000000  0.4472810000000 1.0
C      1  0.5678620000000  0.5238990000000  0.4916140000000 1.0
C      1  0.5527260000000  0.5236180000000  0.5416000000000 1.0
C      1  0.5083940000000  0.5239030000000  0.5678600000000 1.0
C      1  0.4584070000000  0.5236360000000  0.5527240000000 1.0
C      1  0.4321470000000  0.5239250000000  0.5083910000000 1.0
C      1  0.4472830000000  0.5236480000000  0.4584050000000 1.0
C      1  0.4916160000000  0.5239210000000  0.4321450000000 1.0
C      1  0.4578670000000  0.4985860000000  0.5679490000000 1.0
C      1  0.4188470000000  0.4999380000000  0.5189140000000 1.0
C      1  0.4320510000000  0.4986030000000  0.4578670000000 1.0
C      1  0.4810860000000  0.4999360000000  0.4188470000000 1.0
C      1  0.5421320000000  0.4985840000000  0.4320510000000 1.0
C      1  0.5811530000000  0.4999100000000  0.4810860000000 1.0
C      1  0.5679480000000  0.4985670000000  0.5421320000000 1.0
C      1  0.5189140000000  0.4999120000000  0.5811530000000 1.0
C      1  0.5364190000000  0.5162350000000  0.4966020000000 1.0
C      1  0.5285290000000  0.5246410000000  0.5235460000000 1.0
C      1  0.5034030000000  0.5162380000000  0.5364180000000 1.0
C      1  0.4764620000000  0.5246500000000  0.5285270000000 1.0
C      1  0.4635870000000  0.5162490000000  0.5034020000000 1.0
C      1  0.4714810000000  0.5246570000000  0.4764590000000 1.0
C      1  0.4966030000000  0.5162470000000  0.4635860000000 1.0
C      1  0.5235480000000  0.5246470000000  0.4714780000000 1.0
C      1  0.5352020000000  0.4228010000000  0.5130480000000 1.0
C      1  0.5155270000000  0.4225840000000  0.5341550000000 1.0
C      1  0.4869290000000  0.4228090000000  0.5352100000000 1.0
C      1  0.4658220000000  0.4225960000000  0.5155350000000 1.0
C      1  0.4647670000000  0.4228180000000  0.4869360000000 1.0
C      1  0.4844420000000  0.4225980000000  0.4658290000000 1.0
C      1  0.5130410000000  0.4228110000000  0.4647740000000 1.0
C      1  0.5341470000000  0.4225860000000  0.4844490000000 1.0
C      1  0.5478990000000  0.4497830000000  0.4482280000000 1.0
C      1  0.5702640000000  0.4500600000000  0.4969250000000 1.0
C      1  0.5517570000000  0.4497720000000  0.5479040000000 1.0
C      1  0.5030600000000  0.4500660000000  0.5702690000000 1.0
C      1  0.4520810000000  0.4497910000000  0.5517620000000 1.0
C      1  0.4297160000000  0.4500880000000  0.5030650000000 1.0
C      1  0.4482230000000  0.4498030000000  0.4520860000000 1.0
C      1  0.4969200000000  0.4500820000000  0.4297210000000 1.0
END
