TITL C-131467-8709-7 -0.211005907739707 125000 -875.429537099235 0 0 125 (C1) n - 1
REM
REM in /rds/project/t2_vol4/rds-t2-cs072/BORA/CARBON/from-Arr/AIRSS/Generating-Clusters/GAP-ML-2020/Higher-Symm/SD-CG/HFTN-CG
REM
REM
REM
REM
REM
REM ./C.cell (b20cbc046b6831c77cfcea5457e17084)
REM AIRSS Version 0.9.1 bugfix July 2018 build 013d7b7c2542+ Fri, 06 Jul 2018 19:26:36 +0100
REM compiler GCC version 9.3.0
REM options -cpp -mtune=generic -march=x86-64 -g -O0
REM seed -465277031 -1445173545 1639496738 1712842335 230079473 -624168251 -614400608 -1371536921 -828963745 -1633312741 1065547749 -1232001966 -1649130180 -2128819744 -2036155962 -1422224049 803721443 1952020886 939000626 -337367273 1463321758 -10456109 -1196247657 -1142618987 1926282849 603600545 1491417362 1926750146 1790913411 -2055525743 1929298928 696401565 1182742703
REM
CELL 1.54180   50.00000   50.00000   50.00000   90.00000   90.00000   90.00000
LATT -1
SFAC C  
C      1  0.5367240000000  0.5025920000000  0.4756450000000 1.0
C      1  0.4992370000000  0.4788830000000  0.5518740000000 1.0
C      1  0.4766570000000  0.5495530000000  0.4998830000000 1.0
C      1  0.4586370000000  0.5072680000000  0.5278600000000 1.0
C      1  0.4530920000000  0.4938990000000  0.4674860000000 1.0
C      1  0.5438640000000  0.4889470000000  0.5303150000000 1.0
C      1  0.4970840000000  0.4803070000000  0.4499190000000 1.0
C      1  0.5002420000000  0.5253690000000  0.5416270000000 1.0
C      1  0.4969040000000  0.5255780000000  0.4525540000000 1.0
C      1  0.5192540000000  0.5484120000000  0.4972690000000 1.0
C      1  0.5324360000000  0.4415650000000  0.5113360000000 1.0
C      1  0.4773910000000  0.4558380000000  0.4942430000000 1.0
C      1  0.4797790000000  0.5037310000000  0.5491580000000 1.0
C      1  0.5442810000000  0.4677850000000  0.5078620000000 1.0
C      1  0.4976570000000  0.5480380000000  0.4756050000000 1.0
C      1  0.5185380000000  0.5040850000000  0.4514280000000 1.0
C      1  0.4751960000000  0.5014840000000  0.4496400000000 1.0
C      1  0.5273160000000  0.4870030000000  0.5536750000000 1.0
C      1  0.4561990000000  0.4769320000000  0.4904940000000 1.0
C      1  0.5366970000000  0.5237590000000  0.4982140000000 1.0
C      1  0.4578750000000  0.5274530000000  0.5048390000000 1.0
C      1  0.4978930000000  0.5494010000000  0.5215280000000 1.0
C      1  0.5087330000000  0.4413510000000  0.5242790000000 1.0
C      1  0.4995520000000  0.4598590000000  0.4736810000000 1.0
C      1  0.5667930000000  0.4718640000000  0.4521440000000 1.0
C      1  0.4699870000000  0.4490240000000  0.5696960000000 1.0
C      1  0.4490940000000  0.5710190000000  0.4703580000000 1.0
C      1  0.4333770000000  0.4720470000000  0.5470800000000 1.0
C      1  0.4297480000000  0.5300770000000  0.4499030000000 1.0
C      1  0.5677200000000  0.5261200000000  0.5491910000000 1.0
C      1  0.5286100000000  0.4523790000000  0.4298810000000 1.0
C      1  0.5295140000000  0.5483590000000  0.5701430000000 1.0
C      1  0.4683360000000  0.5521020000000  0.4285700000000 1.0
C      1  0.5479260000000  0.5680630000000  0.5289720000000 1.0
C      1  0.5498100000000  0.4288260000000  0.4700780000000 1.0
C      1  0.4526380000000  0.4309600000000  0.5269400000000 1.0
C      1  0.4516420000000  0.4710270000000  0.5689610000000 1.0
C      1  0.5686230000000  0.4507480000000  0.4711050000000 1.0
C      1  0.4684600000000  0.5719540000000  0.4496700000000 1.0
C      1  0.5475490000000  0.4728260000000  0.4307430000000 1.0
C      1  0.4488190000000  0.5315410000000  0.4281320000000 1.0
C      1  0.5486540000000  0.5271070000000  0.5706140000000 1.0
C      1  0.4334210000000  0.4527560000000  0.5263750000000 1.0
C      1  0.5665260000000  0.5460750000000  0.5290760000000 1.0
C      1  0.4308850000000  0.5486900000000  0.4710300000000 1.0
C      1  0.5289710000000  0.5689550000000  0.5494200000000 1.0
C      1  0.4710010000000  0.4283580000000  0.5482920000000 1.0
C      1  0.5295390000000  0.4312780000000  0.4501040000000 1.0
C      1  0.5362330000000  0.5734570000000  0.5017210000000 1.0
C      1  0.5712110000000  0.4986730000000  0.5397540000000 1.0
C      1  0.5027850000000  0.5378190000000  0.5708040000000 1.0
C      1  0.4607020000000  0.5752750000000  0.4970290000000 1.0
C      1  0.4634320000000  0.4286740000000  0.4996790000000 1.0
C      1  0.5427380000000  0.4194590000000  0.4971520000000 1.0
C      1  0.4267260000000  0.5025340000000  0.4593550000000 1.0
C      1  0.4308960000000  0.4994400000000  0.5374360000000 1.0
C      1  0.5659870000000  0.4980300000000  0.4639920000000 1.0
C      1  0.4955820000000  0.5409190000000  0.4257060000000 1.0
C      1  0.4959050000000  0.4598630000000  0.5753340000000 1.0
C      1  0.5015490000000  0.4639640000000  0.4247270000000 1.0
C      1  0.5019420000000  0.5744680000000  0.5378690000000 1.0
C      1  0.5379510000000  0.5005650000000  0.5767200000000 1.0
C      1  0.5660160000000  0.5350000000000  0.5026680000000 1.0
C      1  0.4957500000000  0.5749000000000  0.4609550000000 1.0
C      1  0.5029560000000  0.4313050000000  0.4607020000000 1.0
C      1  0.4983980000000  0.4204290000000  0.5393460000000 1.0
C      1  0.4607540000000  0.5050450000000  0.4229060000000 1.0
C      1  0.5357280000000  0.5001320000000  0.4262360000000 1.0
C      1  0.4625010000000  0.4985100000000  0.5745510000000 1.0
C      1  0.4297160000000  0.5366960000000  0.4980160000000 1.0
C      1  0.5724340000000  0.4598340000000  0.4985770000000 1.0
C      1  0.4296420000000  0.4642850000000  0.4998040000000 1.0
C      1  0.5224190000000  0.4057910000000  0.5427100000000 1.0
C      1  0.4152750000000  0.5420210000000  0.5209490000000 1.0
C      1  0.5403130000000  0.5233970000000  0.4127920000000 1.0
C      1  0.4798470000000  0.4170860000000  0.4560580000000 1.0
C      1  0.4783730000000  0.5878730000000  0.5418760000000 1.0
C      1  0.5196850000000  0.5877770000000  0.4575250000000 1.0
C      1  0.5795130000000  0.5411370000000  0.4797550000000 1.0
C      1  0.5868810000000  0.4551570000000  0.5218000000000 1.0
C      1  0.4145950000000  0.4587650000000  0.4772190000000 1.0
C      1  0.4577890000000  0.5220970000000  0.5869730000000 1.0
C      1  0.4567410000000  0.4806920000000  0.4109140000000 1.0
C      1  0.5412060000000  0.4753270000000  0.5874030000000 1.0
C      1  0.5449060000000  0.4056090000000  0.5211380000000 1.0
C      1  0.5195820000000  0.5446990000000  0.4130980000000 1.0
C      1  0.4153290000000  0.5215590000000  0.5422070000000 1.0
C      1  0.4589130000000  0.4148230000000  0.4766170000000 1.0
C      1  0.5404860000000  0.5874970000000  0.4787460000000 1.0
C      1  0.4571890000000  0.5880300000000  0.5209790000000 1.0
C      1  0.4791920000000  0.5427810000000  0.5844830000000 1.0
C      1  0.5202860000000  0.4541510000000  0.5873520000000 1.0
C      1  0.4780760000000  0.4598670000000  0.4110440000000 1.0
C      1  0.5796260000000  0.5210180000000  0.4587900000000 1.0
C      1  0.4124780000000  0.4792570000000  0.4560370000000 1.0
C      1  0.5863960000000  0.4758390000000  0.5430270000000 1.0
C      1  0.4373750000000  0.5432970000000  0.5827870000000 1.0
C      1  0.5407390000000  0.5844860000000  0.4369050000000 1.0
C      1  0.5822300000000  0.4340530000000  0.5422120000000 1.0
C      1  0.5612050000000  0.5439950000000  0.4170140000000 1.0
C      1  0.5620180000000  0.4544180000000  0.5833130000000 1.0
C      1  0.4367270000000  0.4593700000000  0.4157230000000 1.0
C      1  0.4577820000000  0.5839640000000  0.5627570000000 1.0
C      1  0.4591320000000  0.4195310000000  0.4351640000000 1.0
C      1  0.5423350000000  0.4126920000000  0.5631570000000 1.0
C      1  0.4188570000000  0.4381110000000  0.4565760000000 1.0
C      1  0.4181780000000  0.5630560000000  0.5414770000000 1.0
C      1  0.5790680000000  0.5625710000000  0.4592880000000 1.0
C      1  0.5790960000000  0.5421930000000  0.4381040000000 1.0
C      1  0.4367900000000  0.5837300000000  0.5420620000000 1.0
C      1  0.5410270000000  0.4334690000000  0.5823660000000 1.0
C      1  0.4183670000000  0.5426520000000  0.5626050000000 1.0
C      1  0.5813750000000  0.4546740000000  0.5632140000000 1.0
C      1  0.4171620000000  0.4585270000000  0.4354820000000 1.0
C      1  0.5612910000000  0.5838020000000  0.4580130000000 1.0
C      1  0.4379840000000  0.4179410000000  0.4556870000000 1.0
C      1  0.5641480000000  0.4128580000000  0.5429170000000 1.0
C      1  0.4578600000000  0.4388320000000  0.4153240000000 1.0
C      1  0.5406910000000  0.5651320000000  0.4170270000000 1.0
C      1  0.4586840000000  0.5636980000000  0.5815920000000 1.0
C      1  0.5225680000000  0.4780580000000  0.4886510000000 1.0
C      1  0.4945660000000  0.4658320000000  0.5224960000000 1.0
C      1  0.4710950000000  0.4995880000000  0.5024830000000 1.0
C      1  0.5219160000000  0.5092840000000  0.5222240000000 1.0
C      1  0.5026990000000  0.4906750000000  0.5076910000000 1.0
END
