TITL C-133526-5289-10 0.158686771886451 125000 -1171.6867644375 0 0 168 (C1) n - 1
REM
REM in /rds/project/t2_vol4/rds-t2-cs072/BORA/CARBON/from-Arr/AIRSS/Generating-Clusters/GAP-ML-2020/Higher-Symm/SD-CG/HFTN-CG
REM
REM
REM
REM
REM
REM ./C.cell (b20cbc046b6831c77cfcea5457e17084)
REM AIRSS Version 0.9.1 bugfix July 2018 build 013d7b7c2542+ Fri, 06 Jul 2018 19:26:36 +0100
REM compiler GCC version 9.3.0
REM options -cpp -mtune=generic -march=x86-64 -g -O0
REM seed 1354777921 -2050995490 -2022439770 940925023 -1524486334 777892440 -2131426293 221558544 2041498244 -1943553835 -1038786046 712871495 1995404057 -434229289 -874687314 -1014252587 -1604829294 -1848941751 -661705026 -729165223 -223941147 1445840078 -701300557 1214818139 1016120174 -1485723703 -574164115 -2018006233 -1297820161 1207398326 -1368027529 -2123438438 -406656814
REM
CELL 1.54180   50.00000   50.00000   50.00000   90.00000   90.00000   90.00000
LATT -1
SFAC C  
C      1  0.4393410000000  0.4896770000000  0.4127990000000 1.0
C      1  0.4392970000000  0.5617800000000  0.4375190000000 1.0
C      1  0.4393360000000  0.5873510000000  0.5093050000000 1.0
C      1  0.4392480000000  0.5472290000000  0.5741310000000 1.0
C      1  0.4392900000000  0.4715430000000  0.5831320000000 1.0
C      1  0.4392910000000  0.4172730000000  0.5295300000000 1.0
C      1  0.4393410000000  0.4253700000000  0.4537010000000 1.0
C      1  0.6164910000000  0.5061520000000  0.5340070000000 1.0
C      1  0.6164310000000  0.4767730000000  0.5262470000000 1.0
C      1  0.6161820000000  0.4649670000000  0.4984460000000 1.0
C      1  0.6166330000000  0.4793060000000  0.4718460000000 1.0
C      1  0.6160960000000  0.5092280000000  0.4664910000000 1.0
C      1  0.6166600000000  0.5318040000000  0.4861820000000 1.0
C      1  0.6160000000000  0.5303910000000  0.5165640000000 1.0
C      1  0.4233260000000  0.5589820000000  0.5519970000000 1.0
C      1  0.4233240000000  0.4961410000000  0.5785910000000 1.0
C      1  0.4233040000000  0.4361440000000  0.5459800000000 1.0
C      1  0.4233760000000  0.4242920000000  0.4787150000000 1.0
C      1  0.4233620000000  0.4694280000000  0.4275100000000 1.0
C      1  0.4233600000000  0.5376000000000  0.4309620000000 1.0
C      1  0.4233740000000  0.5774620000000  0.4863100000000 1.0
C      1  0.5321700000000  0.4274290000000  0.5488420000000 1.0
C      1  0.5331870000000  0.4147630000000  0.4723390000000 1.0
C      1  0.5324160000000  0.4691860000000  0.4175280000000 1.0
C      1  0.5331910000000  0.5456170000000  0.4230760000000 1.0
C      1  0.5323860000000  0.5870340000000  0.4883160000000 1.0
C      1  0.5331970000000  0.5649530000000  0.5616680000000 1.0
C      1  0.5323710000000  0.4922020000000  0.5878570000000 1.0
C      1  0.4629740000000  0.5275500000000  0.5195480000000 1.0
C      1  0.4631910000000  0.5018600000000  0.5338980000000 1.0
C      1  0.4631960000000  0.4746750000000  0.5227070000000 1.0
C      1  0.4631490000000  0.4665450000000  0.4944560000000 1.0
C      1  0.4632900000000  0.4834440000000  0.4703990000000 1.0
C      1  0.4630130000000  0.5127990000000  0.4687320000000 1.0
C      1  0.4631950000000  0.5324830000000  0.4905760000000 1.0
C      1  0.3877240000000  0.5264400000000  0.5214380000000 1.0
C      1  0.3877410000000  0.4997160000000  0.5340560000000 1.0
C      1  0.3877360000000  0.4731830000000  0.5210370000000 1.0
C      1  0.3877470000000  0.4668170000000  0.4921710000000 1.0
C      1  0.3877900000000  0.4854120000000  0.4692090000000 1.0
C      1  0.3877540000000  0.5149780000000  0.4694220000000 1.0
C      1  0.3877790000000  0.5332310000000  0.4926670000000 1.0
C      1  0.4091460000000  0.5532840000000  0.4871320000000 1.0
C      1  0.4091270000000  0.5432120000000  0.5336690000000 1.0
C      1  0.4091000000000  0.5006420000000  0.5548450000000 1.0
C      1  0.4090810000000  0.4575290000000  0.5347410000000 1.0
C      1  0.4091370000000  0.4463710000000  0.4884840000000 1.0
C      1  0.4091490000000  0.4755000000000  0.4509190000000 1.0
C      1  0.4091630000000  0.5231310000000  0.4503410000000 1.0
C      1  0.5947620000000  0.5116240000000  0.5535300000000 1.0
C      1  0.5942820000000  0.4654390000000  0.5432200000000 1.0
C      1  0.5940940000000  0.4444300000000  0.4987530000000 1.0
C      1  0.5952210000000  0.4656020000000  0.4566170000000 1.0
C      1  0.5937750000000  0.5133320000000  0.4463180000000 1.0
C      1  0.5951530000000  0.5497260000000  0.4761210000000 1.0
C      1  0.5935120000000  0.5489280000000  0.5248870000000 1.0
C      1  0.5601470000000  0.4542530000000  0.5745720000000 1.0
C      1  0.5592550000000  0.4150960000000  0.5099830000000 1.0
C      1  0.5584990000000  0.4412220000000  0.4435710000000 1.0
C      1  0.5598060000000  0.5091960000000  0.4135830000000 1.0
C      1  0.5584150000000  0.5677330000000  0.4552500000000 1.0
C      1  0.5597840000000  0.5819980000000  0.5281100000000 1.0
C      1  0.5583230000000  0.5284960000000  0.5757900000000 1.0
C      1  0.5132820000000  0.5619460000000  0.4413130000000 1.0
C      1  0.5132360000000  0.5846070000000  0.5124600000000 1.0
C      1  0.5132520000000  0.5435680000000  0.5735430000000 1.0
C      1  0.5132700000000  0.4692600000000  0.5800100000000 1.0
C      1  0.5130500000000  0.4187120000000  0.5256190000000 1.0
C      1  0.5133930000000  0.4289740000000  0.4525460000000 1.0
C      1  0.5132750000000  0.4933040000000  0.4147660000000 1.0
C      1  0.4382360000000  0.4448530000000  0.5696590000000 1.0
C      1  0.4383020000000  0.4111900000000  0.5002690000000 1.0
C      1  0.4383200000000  0.4444360000000  0.4306810000000 1.0
C      1  0.4382770000000  0.5195370000000  0.4133750000000 1.0
C      1  0.4383160000000  0.5799540000000  0.4612490000000 1.0
C      1  0.4382640000000  0.5801280000000  0.5382860000000 1.0
C      1  0.4382490000000  0.5200580000000  0.5865830000000 1.0
C      1  0.5487430000000  0.5167030000000  0.5468010000000 1.0
C      1  0.5493780000000  0.4862730000000  0.5481600000000 1.0
C      1  0.5504850000000  0.4519760000000  0.5139180000000 1.0
C      1  0.5489170000000  0.4648030000000  0.4649410000000 1.0
C      1  0.5496250000000  0.4920990000000  0.4511760000000 1.0
C      1  0.5487540000000  0.5420000000000  0.4731210000000 1.0
C      1  0.5495380000000  0.5492680000000  0.5029750000000 1.0
C      1  0.4304770000000  0.4841870000000  0.4700870000000 1.0
C      1  0.4305020000000  0.5135110000000  0.4691000000000 1.0
C      1  0.4304070000000  0.5326270000000  0.4913650000000 1.0
C      1  0.4304570000000  0.5270390000000  0.5201550000000 1.0
C      1  0.4304440000000  0.5010670000000  0.5338160000000 1.0
C      1  0.4304720000000  0.4742370000000  0.5220130000000 1.0
C      1  0.4305470000000  0.4667480000000  0.4936600000000 1.0
C      1  0.5579260000000  0.4308850000000  0.5354910000000 1.0
C      1  0.5605970000000  0.4214620000000  0.4653550000000 1.0
C      1  0.5589070000000  0.4812390000000  0.4225640000000 1.0
C      1  0.5604050000000  0.5508030000000  0.4312990000000 1.0
C      1  0.5588660000000  0.5794640000000  0.4988970000000 1.0
C      1  0.5604060000000  0.5556710000000  0.5648190000000 1.0
C      1  0.5590320000000  0.4834350000000  0.5786150000000 1.0
C      1  0.5009940000000  0.4792160000000  0.5521000000000 1.0
C      1  0.5011290000000  0.4462870000000  0.5163370000000 1.0
C      1  0.5012140000000  0.4538100000000  0.4686890000000 1.0
C      1  0.5009680000000  0.4960710000000  0.4441630000000 1.0
C      1  0.5007510000000  0.5410890000000  0.4619410000000 1.0
C      1  0.5008220000000  0.5553860000000  0.5086740000000 1.0
C      1  0.5007030000000  0.5280190000000  0.5485990000000 1.0
C      1  0.5738710000000  0.5281630000000  0.4806770000000 1.0
C      1  0.5733230000000  0.5324520000000  0.5104660000000 1.0
C      1  0.5735460000000  0.5118960000000  0.5314120000000 1.0
C      1  0.5730410000000  0.4816390000000  0.5293210000000 1.0
C      1  0.5732450000000  0.4657330000000  0.5044280000000 1.0
C      1  0.5741660000000  0.4751800000000  0.4766310000000 1.0
C      1  0.5735230000000  0.5031550000000  0.4655600000000 1.0
C      1  0.4612320000000  0.4473070000000  0.4135040000000 1.0
C      1  0.4611200000000  0.5348260000000  0.4048360000000 1.0
C      1  0.4612340000000  0.5960840000000  0.4678350000000 1.0
C      1  0.4610890000000  0.5850850000000  0.5551120000000 1.0
C      1  0.4611450000000  0.5100740000000  0.6008790000000 1.0
C      1  0.4611040000000  0.4274190000000  0.5707200000000 1.0
C      1  0.4611480000000  0.3994610000000  0.4872750000000 1.0
C      1  0.5329800000000  0.5816910000000  0.5376510000000 1.0
C      1  0.5322080000000  0.5214940000000  0.5855810000000 1.0
C      1  0.5328270000000  0.4456130000000  0.5715420000000 1.0
C      1  0.5325370000000  0.4098710000000  0.5012920000000 1.0
C      1  0.5322410000000  0.4436090000000  0.4319280000000 1.0
C      1  0.5329660000000  0.5185290000000  0.4119870000000 1.0
C      1  0.5322310000000  0.5784010000000  0.4602100000000 1.0
C      1  0.5774690000000  0.4222440000000  0.4885220000000 1.0
C      1  0.5786060000000  0.4608990000000  0.4336830000000 1.0
C      1  0.5769310000000  0.5277900000000  0.4270260000000 1.0
C      1  0.5786010000000  0.5731850000000  0.4766070000000 1.0
C      1  0.5768930000000  0.5647070000000  0.5431970000000 1.0
C      1  0.5785180000000  0.5063290000000  0.5766040000000 1.0
C      1  0.5771110000000  0.4445030000000  0.5535900000000 1.0
C      1  0.5231520000000  0.5347110000000  0.5060960000000 1.0
C      1  0.5231820000000  0.5172830000000  0.5307030000000 1.0
C      1  0.5231010000000  0.4864210000000  0.5326020000000 1.0
C      1  0.5247850000000  0.4655720000000  0.5103900000000 1.0
C      1  0.5235910000000  0.4712950000000  0.4802980000000 1.0
C      1  0.5232930000000  0.4983530000000  0.4649880000000 1.0
C      1  0.5232090000000  0.5261580000000  0.4763000000000 1.0
C      1  0.4632500000000  0.5629020000000  0.5758260000000 1.0
C      1  0.4633550000000  0.4800480000000  0.5963710000000 1.0
C      1  0.4633020000000  0.4121700000000  0.5444320000000 1.0
C      1  0.4633580000000  0.4105530000000  0.4590000000000 1.0
C      1  0.4634500000000  0.4763340000000  0.4045930000000 1.0
C      1  0.4633030000000  0.5599340000000  0.4218770000000 1.0
C      1  0.4634510000000  0.5983290000000  0.4981230000000 1.0
C      1  0.4849660000000  0.4735820000000  0.4544100000000 1.0
C      1  0.4843680000000  0.5192080000000  0.4509090000000 1.0
C      1  0.4847000000000  0.5504540000000  0.4844780000000 1.0
C      1  0.4842890000000  0.5435870000000  0.5297330000000 1.0
C      1  0.4846850000000  0.5039280000000  0.5527630000000 1.0
C      1  0.4847760000000  0.4612180000000  0.5357840000000 1.0
C      1  0.4847110000000  0.4479170000000  0.4922940000000 1.0
C      1  0.4795860000000  0.5300980000000  0.6047580000000 1.0
C      1  0.4794190000000  0.4368480000000  0.5888550000000 1.0
C      1  0.4793740000000  0.3910360000000  0.5060080000000 1.0
C      1  0.4797050000000  0.4276250000000  0.4186840000000 1.0
C      1  0.4793460000000  0.5184920000000  0.3924620000000 1.0
C      1  0.4796710000000  0.5954340000000  0.4474510000000 1.0
C      1  0.4792970000000  0.6007970000000  0.5419300000000 1.0
C      1  0.4870830000000  0.4161190000000  0.4420630000000 1.0
C      1  0.4870050000000  0.4930990000000  0.3981930000000 1.0
C      1  0.4870730000000  0.5751930000000  0.4310200000000 1.0
C      1  0.4870010000000  0.6008680000000  0.5159120000000 1.0
C      1  0.4870110000000  0.5506230000000  0.5886970000000 1.0
C      1  0.4869220000000  0.4622350000000  0.5948810000000 1.0
C      1  0.4869450000000  0.4023770000000  0.5295080000000 1.0
END
