TITL C-132119-6817-10 -50.1997769707925 125000 -113.938949264997 0 0 18 (C2v) n - 1
REM
REM in /rds/project/t2_vol4/rds-t2-cs072/BORA/CARBON/from-Arr/AIRSS/Generating-Clusters/GAP-ML-2020/Higher-Symm/SD-CG/HFTN-CG
REM
REM
REM
REM
REM
REM ./C.cell (b20cbc046b6831c77cfcea5457e17084)
REM AIRSS Version 0.9.1 bugfix July 2018 build 013d7b7c2542+ Fri, 06 Jul 2018 19:26:36 +0100
REM compiler GCC version 9.3.0
REM options -cpp -mtune=generic -march=x86-64 -g -O0
REM seed -1789048365 1037217951 1547316593 -866835602 2121773557 570956351 -888739152 633888439 -1500895290 -1070018321 1326408138 -1297648417 1974843271 -855284395 1944004391 -1382740224 -1868849693 -1940639127 15307147 1452834631 487260975 -1514506771 1485780647 -2003134328 -1258017791 -1843899648 1633968925 1545029528 505521233 -779288061 -1053517438 -492951065 -549468557
REM
CELL 1.54180   50.00000   50.00000   50.00000   90.00000   90.00000   90.00000
LATT -1
SFAC C  
C      1  0.5057120000000  0.4305270000000  0.4718830000000 1.0
C      1  0.5055560000000  0.5688470000000  0.4705310000000 1.0
C      1  0.5034360000000  0.5694870000000  0.5361870000000 1.0
C      1  0.5035900000000  0.4311660000000  0.5375400000000 1.0
C      1  0.5209750000000  0.4151190000000  0.4592020000000 1.0
C      1  0.5207830000000  0.5840380000000  0.4575490000000 1.0
C      1  0.5178030000000  0.5849380000000  0.5498250000000 1.0
C      1  0.5179920000000  0.4160160000000  0.5514780000000 1.0
C      1  0.4959580000000  0.4484800000000  0.4894110000000 1.0
C      1  0.4958420000000  0.5512180000000  0.4884070000000 1.0
C      1  0.4948840000000  0.5515070000000  0.5180680000000 1.0
C      1  0.4949990000000  0.4487690000000  0.5190720000000 1.0
C      1  0.4866580000000  0.5234950000000  0.5181220000000 1.0
C      1  0.4867100000000  0.4767570000000  0.5185790000000 1.0
C      1  0.4876710000000  0.4764680000000  0.4888250000000 1.0
C      1  0.4876190000000  0.5232060000000  0.4883680000000 1.0
C      1  0.4859560000000  0.5002670000000  0.5328570000000 1.0
C      1  0.4878540000000  0.4996950000000  0.4740730000000 1.0
END
