TITL C-133527-5439-11 -69.0155825914549 125000 -97.1294684695647 0 0 15 (Cs) n - 1
REM
REM in /rds/project/t2_vol4/rds-t2-cs072/BORA/CARBON/from-Arr/AIRSS/Generating-Clusters/GAP-ML-2020/Higher-Symm/SD-CG/HFTN-CG
REM
REM
REM
REM
REM
REM ./C.cell (b20cbc046b6831c77cfcea5457e17084)
REM AIRSS Version 0.9.1 bugfix July 2018 build 013d7b7c2542+ Fri, 06 Jul 2018 19:26:36 +0100
REM compiler GCC version 9.3.0
REM options -cpp -mtune=generic -march=x86-64 -g -O0
REM seed -1017135836 606821006 -1370596768 -1628347286 -1400051416 -542646691 1113797334 -1399504513 -1307397656 572783473 1849400369 -646908496 -971068153 -95043792 1632826498 -1955098395 730707014 1721140093 386389720 -1364281331 1794709561 -867573278 -310944797 1384684240 1177682075 -1419147782 -1174070496 -763108375 -1658297077 -1614413467 462000005 -749515407 -704412739
REM
CELL 1.54180   50.00000   50.00000   50.00000   90.00000   90.00000   90.00000
LATT -1
SFAC C  
C      1  0.5626410000000  0.5151380000000  0.5137440000000 1.0
C      1  0.4444140000000  0.4883180000000  0.5187870000000 1.0
C      1  0.5626860000000  0.4888050000000  0.5137620000000 1.0
C      1  0.4443680000000  0.5152280000000  0.5187700000000 1.0
C      1  0.4580700000000  0.4716290000000  0.5049820000000 1.0
C      1  0.5506180000000  0.5373460000000  0.5082800000000 1.0
C      1  0.4579670000000  0.5319460000000  0.5049430000000 1.0
C      1  0.5507390000000  0.4665490000000  0.5083270000000 1.0
C      1  0.4803020000000  0.4759150000000  0.4870390000000 1.0
C      1  0.5273140000000  0.5445930000000  0.4977950000000 1.0
C      1  0.4802130000000  0.5277120000000  0.4870040000000 1.0
C      1  0.5274600000000  0.4592090000000  0.4978520000000 1.0
C      1  0.5039450000000  0.5416860000000  0.4897180000000 1.0
C      1  0.5040810000000  0.4620250000000  0.4897710000000 1.0
C      1  0.4802650000000  0.5018060000000  0.4752510000000 1.0
END
