TITL C-132112-1198-1 0.0401337333406817 125000 -357.568333632034 0 0 54 (C6) n - 1
REM
REM in /rds/project/t2_vol4/rds-t2-cs072/BORA/CARBON/from-Arr/AIRSS/Generating-Clusters/GAP-ML-2020/Higher-Symm/SD-CG/HFTN-CG
REM
REM
REM
REM
REM
REM ./C.cell (b20cbc046b6831c77cfcea5457e17084)
REM AIRSS Version 0.9.1 bugfix July 2018 build 013d7b7c2542+ Fri, 06 Jul 2018 19:26:36 +0100
REM compiler GCC version 9.3.0
REM options -cpp -mtune=generic -march=x86-64 -g -O0
REM seed -97107185 58929176 909918366 -112056171 -1163792488 2101409551 -1138226420 -960776478 -169532431 -827246071 570761168 1425399014 476780271 282916430 -1509110332 529774976 -127260439 -317520126 -135710849 -1866203182 1380087900 -199113151 702392816 2051256635 -1434474169 484467743 1858701447 45907596 1844594178 1223276536 718745912 -482681454 -1610056161
REM
CELL 1.54180   50.00000   50.00000   50.00000   90.00000   90.00000   90.00000
LATT -1
SFAC C  
C      1  0.4950940000000  0.5244160000000  0.4273160000000 1.0
C      1  0.5605140000000  0.5241470000000  0.4592790000000 1.0
C      1  0.5655430000000  0.5242600000000  0.5319170000000 1.0
C      1  0.5051530000000  0.5246430000000  0.5725900000000 1.0
C      1  0.4397330000000  0.5249110000000  0.5406270000000 1.0
C      1  0.4347040000000  0.5247980000000  0.4679890000000 1.0
C      1  0.4917140000000  0.4600590000000  0.4727350000000 1.0
C      1  0.5194340000000  0.4599320000000  0.4794050000000 1.0
C      1  0.5275190000000  0.4599440000000  0.5067460000000 1.0
C      1  0.5078830000000  0.4600820000000  0.5274180000000 1.0
C      1  0.4801630000000  0.4602090000000  0.5207480000000 1.0
C      1  0.4720790000000  0.4601980000000  0.4934070000000 1.0
C      1  0.4708190000000  0.5170420000000  0.5073240000000 1.0
C      1  0.4790810000000  0.5169440000000  0.4783000000000 1.0
C      1  0.5083470000000  0.5167830000000  0.4709430000000 1.0
C      1  0.5293520000000  0.5167180000000  0.4926110000000 1.0
C      1  0.5210900000000  0.5168150000000  0.5216350000000 1.0
C      1  0.4918230000000  0.5169770000000  0.5289920000000 1.0
C      1  0.5231310000000  0.4966890000000  0.4481390000000 1.0
C      1  0.5564760000000  0.4966090000000  0.4941190000000 1.0
C      1  0.5333290000000  0.4968240000000  0.5459860000000 1.0
C      1  0.4768380000000  0.4971210000000  0.5518730000000 1.0
C      1  0.4434930000000  0.4972010000000  0.5058930000000 1.0
C      1  0.4666400000000  0.4969850000000  0.4540260000000 1.0
C      1  0.5623260000000  0.4963650000000  0.5422980000000 1.0
C      1  0.4945300000000  0.4967700000000  0.5751440000000 1.0
C      1  0.4321870000000  0.4970030000000  0.5328520000000 1.0
C      1  0.4376390000000  0.4968320000000  0.4577150000000 1.0
C      1  0.5054360000000  0.4964270000000  0.4248690000000 1.0
C      1  0.5677790000000  0.4961940000000  0.4671610000000 1.0
C      1  0.5715340000000  0.4727430000000  0.5324320000000 1.0
C      1  0.5076570000000  0.4731530000000  0.5783100000000 1.0
C      1  0.4359870000000  0.4734520000000  0.5459290000000 1.0
C      1  0.4281940000000  0.4733420000000  0.4676710000000 1.0
C      1  0.4920710000000  0.4729320000000  0.4217930000000 1.0
C      1  0.5637410000000  0.4726330000000  0.4541740000000 1.0
C      1  0.5304540000000  0.5230610000000  0.5626970000000 1.0
C      1  0.4609510000000  0.5234020000000  0.5575990000000 1.0
C      1  0.4306130000000  0.5234350000000  0.4948580000000 1.0
C      1  0.4697790000000  0.5231280000000  0.4372150000000 1.0
C      1  0.5392820000000  0.5227870000000  0.4423130000000 1.0
C      1  0.5696190000000  0.5227540000000  0.5050530000000 1.0
C      1  0.5182760000000  0.4718590000000  0.5522090000000 1.0
C      1  0.4639000000000  0.4721140000000  0.5420810000000 1.0
C      1  0.4454820000000  0.4721070000000  0.4899260000000 1.0
C      1  0.4814400000000  0.4718460000000  0.4478990000000 1.0
C      1  0.5358160000000  0.4715910000000  0.4580260000000 1.0
C      1  0.5542340000000  0.4715980000000  0.5101810000000 1.0
C      1  0.4863640000000  0.5372010000000  0.5544550000000 1.0
C      1  0.4460550000000  0.5373300000000  0.5152200000000 1.0
C      1  0.4598780000000  0.5371560000000  0.4606950000000 1.0
C      1  0.5140100000000  0.5368540000000  0.4454030000000 1.0
C      1  0.5543190000000  0.5367250000000  0.4846380000000 1.0
C      1  0.5404960000000  0.5368990000000  0.5391640000000 1.0
END
