TITL C-132126-4361-1 0.0792306458722674 125000 -802.435533087629 0 0 116 (C1) n - 1
REM
REM in /rds/project/t2_vol4/rds-t2-cs072/BORA/CARBON/from-Arr/AIRSS/Generating-Clusters/GAP-ML-2020/Higher-Symm/SD-CG/HFTN-CG
REM
REM
REM
REM
REM
REM ./C.cell (b20cbc046b6831c77cfcea5457e17084)
REM AIRSS Version 0.9.1 bugfix July 2018 build 013d7b7c2542+ Fri, 06 Jul 2018 19:26:36 +0100
REM compiler GCC version 9.3.0
REM options -cpp -mtune=generic -march=x86-64 -g -O0
REM seed -1184910427 -193864920 -138385682 1050770013 -2125668012 893491218 1825390120 253566805 1979848697 -2113350964 2138311397 1320102076 776834455 -1657324348 -105377070 -745242399 -784998686 -556742190 -1454423290 448212717 1903218658 -70012461 -1970375470 -1078950917 209642288 1304763415 -1692054522 1006564252 426204803 -1301470492 1701657376 -1041919443 1828279906
REM
CELL 1.54180   50.00000   50.00000   50.00000   90.00000   90.00000   90.00000
LATT -1
SFAC C  
C      1  0.4736440000000  0.4350430000000  0.5525620000000 1.0
C      1  0.4327860000000  0.5517660000000  0.4765330000000 1.0
C      1  0.5521130000000  0.4715530000000  0.4324780000000 1.0
C      1  0.4698750000000  0.5695510000000  0.4513360000000 1.0
C      1  0.5311360000000  0.4305100000000  0.4498390000000 1.0
C      1  0.5267940000000  0.5673530000000  0.5499150000000 1.0
C      1  0.4378720000000  0.4497720000000  0.5243270000000 1.0
C      1  0.5615930000000  0.5483190000000  0.5223870000000 1.0
C      1  0.5686290000000  0.4477770000000  0.4748920000000 1.0
C      1  0.5536900000000  0.5272600000000  0.5658530000000 1.0
C      1  0.4430070000000  0.4717370000000  0.5670970000000 1.0
C      1  0.4483230000000  0.5296620000000  0.4343260000000 1.0
C      1  0.5333020000000  0.4293100000000  0.5520270000000 1.0
C      1  0.5682030000000  0.5455250000000  0.4659350000000 1.0
C      1  0.4484000000000  0.4728970000000  0.4223310000000 1.0
C      1  0.5260700000000  0.5606570000000  0.4486790000000 1.0
C      1  0.4736190000000  0.4375190000000  0.4470400000000 1.0
C      1  0.4664270000000  0.5719860000000  0.5540910000000 1.0
C      1  0.5752780000000  0.4512920000000  0.5335700000000 1.0
C      1  0.4252720000000  0.5518080000000  0.5325990000000 1.0
C      1  0.4323710000000  0.4537320000000  0.4666690000000 1.0
C      1  0.4411030000000  0.5293090000000  0.5715200000000 1.0
C      1  0.5482320000000  0.4719310000000  0.5731130000000 1.0
C      1  0.5521170000000  0.5279240000000  0.4221360000000 1.0
C      1  0.4614260000000  0.5204200000000  0.5184070000000 1.0
C      1  0.5181930000000  0.5075610000000  0.4480620000000 1.0
C      1  0.5204220000000  0.4622180000000  0.5247220000000 1.0
C      1  0.4659240000000  0.4862560000000  0.4790510000000 1.0
C      1  0.5324700000000  0.5117790000000  0.4750340000000 1.0
C      1  0.5399920000000  0.4761530000000  0.5084980000000 1.0
C      1  0.5110960000000  0.4855470000000  0.5446160000000 1.0
C      1  0.4858940000000  0.5271190000000  0.5642750000000 1.0
C      1  0.4777330000000  0.4915700000000  0.4519400000000 1.0
C      1  0.5146250000000  0.5319030000000  0.4894640000000 1.0
C      1  0.4844590000000  0.4633610000000  0.4875170000000 1.0
C      1  0.4846950000000  0.5356000000000  0.5325770000000 1.0
C      1  0.5492730000000  0.4995820000000  0.5226590000000 1.0
C      1  0.4905730000000  0.5186630000000  0.4506990000000 1.0
C      1  0.4906830000000  0.4600850000000  0.5157870000000 1.0
C      1  0.5286060000000  0.4850090000000  0.4853610000000 1.0
C      1  0.4700020000000  0.5129990000000  0.4917110000000 1.0
C      1  0.4600490000000  0.4938470000000  0.5279530000000 1.0
C      1  0.4829520000000  0.4800790000000  0.5348690000000 1.0
C      1  0.5244650000000  0.5086600000000  0.5325860000000 1.0
C      1  0.5049710000000  0.4803640000000  0.4484210000000 1.0
C      1  0.4866720000000  0.5308780000000  0.4772150000000 1.0
C      1  0.5108050000000  0.4668930000000  0.4733460000000 1.0
C      1  0.5099670000000  0.5273550000000  0.5186010000000 1.0
C      1  0.5191270000000  0.4298920000000  0.5250950000000 1.0
C      1  0.4257760000000  0.5247990000000  0.5175400000000 1.0
C      1  0.5259770000000  0.5129510000000  0.4190350000000 1.0
C      1  0.5151400000000  0.5633670000000  0.4777250000000 1.0
C      1  0.4837180000000  0.4333640000000  0.4759020000000 1.0
C      1  0.4826320000000  0.5678990000000  0.5270410000000 1.0
C      1  0.4353750000000  0.4803040000000  0.4824390000000 1.0
C      1  0.5649160000000  0.5185750000000  0.4804650000000 1.0
C      1  0.5851990000000  0.4744770000000  0.5169890000000 1.0
C      1  0.5198720000000  0.4861760000000  0.5739980000000 1.0
C      1  0.4646850000000  0.5135450000000  0.5762900000000 1.0
C      1  0.4739880000000  0.4883550000000  0.4207090000000 1.0
C      1  0.4876970000000  0.4300720000000  0.5250170000000 1.0
C      1  0.5676730000000  0.5222080000000  0.5102870000000 1.0
C      1  0.4760490000000  0.5190120000000  0.4236840000000 1.0
C      1  0.4843300000000  0.5642540000000  0.4773300000000 1.0
C      1  0.5152160000000  0.4334800000000  0.4754560000000 1.0
C      1  0.5123450000000  0.5761380000000  0.5261330000000 1.0
C      1  0.5819700000000  0.4718390000000  0.4871960000000 1.0
C      1  0.4217630000000  0.5275080000000  0.4879610000000 1.0
C      1  0.4340840000000  0.4775030000000  0.5138250000000 1.0
C      1  0.4658700000000  0.4851700000000  0.5804380000000 1.0
C      1  0.5294250000000  0.5169300000000  0.5791370000000 1.0
C      1  0.5281550000000  0.4821620000000  0.4157190000000 1.0
C      1  0.5698720000000  0.5671660000000  0.4816390000000 1.0
C      1  0.5698190000000  0.4881330000000  0.5758590000000 1.0
C      1  0.4847600000000  0.5780190000000  0.5735220000000 1.0
C      1  0.5730660000000  0.4295080000000  0.5178840000000 1.0
C      1  0.4229780000000  0.5748590000000  0.5180890000000 1.0
C      1  0.4296660000000  0.4318380000000  0.4817740000000 1.0
C      1  0.5741010000000  0.5120030000000  0.4229520000000 1.0
C      1  0.4262120000000  0.4888990000000  0.4234880000000 1.0
C      1  0.4186490000000  0.5134690000000  0.5723900000000 1.0
C      1  0.4943210000000  0.4420880000000  0.4266220000000 1.0
C      1  0.5064070000000  0.5582730000000  0.4272180000000 1.0
C      1  0.5145770000000  0.4298440000000  0.5718480000000 1.0
C      1  0.4413740000000  0.5700590000000  0.4976910000000 1.0
C      1  0.4218210000000  0.4907340000000  0.5575750000000 1.0
C      1  0.5095940000000  0.5641680000000  0.5720200000000 1.0
C      1  0.4444610000000  0.4296390000000  0.5048080000000 1.0
C      1  0.5547800000000  0.5691850000000  0.5041580000000 1.0
C      1  0.5587770000000  0.4294360000000  0.4948150000000 1.0
C      1  0.4292980000000  0.5092010000000  0.4420120000000 1.0
C      1  0.5711000000000  0.4912190000000  0.4410270000000 1.0
C      1  0.5745110000000  0.5081310000000  0.5580290000000 1.0
C      1  0.5166600000000  0.4263480000000  0.4274260000000 1.0
C      1  0.4847940000000  0.5751070000000  0.4297220000000 1.0
C      1  0.4918810000000  0.4447050000000  0.5727610000000 1.0
C      1  0.5015990000000  0.5311010000000  0.4144500000000 1.0
C      1  0.5303170000000  0.4247280000000  0.4980420000000 1.0
C      1  0.4918940000000  0.4727490000000  0.5823630000000 1.0
C      1  0.5266360000000  0.5766860000000  0.5017170000000 1.0
C      1  0.4719890000000  0.4215050000000  0.5013270000000 1.0
C      1  0.4699330000000  0.5729810000000  0.5009770000000 1.0
C      1  0.4188390000000  0.4972810000000  0.5293480000000 1.0
C      1  0.5087470000000  0.5361390000000  0.5785560000000 1.0
C      1  0.5003770000000  0.4714150000000  0.4201790000000 1.0
C      1  0.4229320000000  0.5051980000000  0.4708040000000 1.0
C      1  0.5782800000000  0.4940110000000  0.4698320000000 1.0
C      1  0.5784530000000  0.5010070000000  0.5290950000000 1.0
C      1  0.4462540000000  0.5525830000000  0.4511820000000 1.0
C      1  0.5538650000000  0.4484990000000  0.4500650000000 1.0
C      1  0.4480870000000  0.4484170000000  0.5510900000000 1.0
C      1  0.5500170000000  0.5501450000000  0.5481570000000 1.0
C      1  0.5510550000000  0.5488840000000  0.4425640000000 1.0
C      1  0.4427970000000  0.5536310000000  0.5558520000000 1.0
C      1  0.5553840000000  0.4495560000000  0.5556620000000 1.0
C      1  0.4491730000000  0.4509920000000  0.4426650000000 1.0
END
