TITL C-131472-8465-3 67.7431300878116 125000 -191.859804989322 0 0 29 (C2v) n - 1
REM
REM in /rds/project/t2_vol4/rds-t2-cs072/BORA/CARBON/from-Arr/AIRSS/Generating-Clusters/GAP-ML-2020/Higher-Symm/SD-CG/HFTN-CG
REM
REM
REM
REM
REM
REM ./C.cell (b20cbc046b6831c77cfcea5457e17084)
REM AIRSS Version 0.9.1 bugfix July 2018 build 013d7b7c2542+ Fri, 06 Jul 2018 19:26:36 +0100
REM compiler GCC version 9.3.0
REM options -cpp -mtune=generic -march=x86-64 -g -O0
REM seed 61874860 1951353169 1916634918 677195592 -1006476155 1917409580 -1262905704 -781733702 -1388971302 -2064216284 -519828088 -1750375609 -918786139 -417224652 1670459739 538256403 804219323 -1511902213 1842707231 -1540767702 1241303144 -240902907 985837035 1043247169 -14302740 1042200417 -1038120500 114903495 -1968878048 -1756750723 1813730866 1376565669 -388241488
REM
CELL 1.54180   50.00000   50.00000   50.00000   90.00000   90.00000   90.00000
LATT -1
SFAC C  
C      1  0.4686500000000  0.4785230000000  0.5275430000000 1.0
C      1  0.5189310000000  0.4787480000000  0.5381210000000 1.0
C      1  0.5429290000000  0.4789680000000  0.4958150000000 1.0
C      1  0.5094830000000  0.4778910000000  0.4582520000000 1.0
C      1  0.4637290000000  0.4786140000000  0.4791540000000 1.0
C      1  0.4683380000000  0.5264100000000  0.5280070000000 1.0
C      1  0.5186190000000  0.5266350000000  0.5385850000000 1.0
C      1  0.5426130000000  0.5275460000000  0.4962860000000 1.0
C      1  0.5091520000000  0.5289160000000  0.4587460000000 1.0
C      1  0.4634140000000  0.5271920000000  0.4796240000000 1.0
C      1  0.5270960000000  0.4630370000000  0.4775650000000 1.0
C      1  0.4857090000000  0.4628520000000  0.4688580000000 1.0
C      1  0.4526860000000  0.4744690000000  0.5046800000000 1.0
C      1  0.4943270000000  0.4635370000000  0.5306010000000 1.0
C      1  0.5427870000000  0.4748720000000  0.5236360000000 1.0
C      1  0.5265720000000  0.5436210000000  0.4783450000000 1.0
C      1  0.4851850000000  0.5434360000000  0.4696380000000 1.0
C      1  0.4523200000000  0.5306980000000  0.5052250000000 1.0
C      1  0.4938190000000  0.5416670000000  0.5313570000000 1.0
C      1  0.5424210000000  0.5311010000000  0.5241800000000 1.0
C      1  0.5108620000000  0.5034840000000  0.4511560000000 1.0
C      1  0.5156560000000  0.5025440000000  0.5515090000000 1.0
C      1  0.4660490000000  0.5023220000000  0.5410720000000 1.0
C      1  0.4583930000000  0.5029900000000  0.4669850000000 1.0
C      1  0.5525080000000  0.5034100000000  0.4867850000000 1.0
C      1  0.5034490000000  0.4485070000000  0.4875580000000 1.0
C      1  0.5027400000000  0.5576460000000  0.4886140000000 1.0
C      1  0.4973800000000  0.5632120000000  0.5139730000000 1.0
C      1  0.4981660000000  0.4423810000000  0.5128030000000 1.0
END
