TITL C-132770-1277-9 -43.6773185272715 125000 -242.692437865331 0 0 37 (C1) n - 1
REM
REM in /rds/project/t2_vol4/rds-t2-cs072/BORA/CARBON/from-Arr/AIRSS/Generating-Clusters/GAP-ML-2020/Higher-Symm/SD-CG/HFTN-CG
REM
REM
REM
REM
REM
REM ./C.cell (b20cbc046b6831c77cfcea5457e17084)
REM AIRSS Version 0.9.1 bugfix July 2018 build 013d7b7c2542+ Fri, 06 Jul 2018 19:26:36 +0100
REM compiler GCC version 9.3.0
REM options -cpp -mtune=generic -march=x86-64 -g -O0
REM seed 347987121 -167555039 115134084 -1007140911 749490866 1861684917 182641206 -2141205455 795951574 1308711894 -1143950095 775031864 -595813953 -364775973 -1763454984 -2107802394 -329232300 250958315 -1432708154 -829474614 -965894895 436482042 2076300636 -1251998388 715668443 81312429 -1080419925 -1416397158 522731810 -1440488870 -749210989 7510790 -2066732034
REM
CELL 1.54180   50.00000   50.00000   50.00000   90.00000   90.00000   90.00000
LATT -1
SFAC C  
C      1  0.4990190000000  0.4449790000000  0.4533860000000 1.0
C      1  0.5432130000000  0.4635680000000  0.4666710000000 1.0
C      1  0.5575710000000  0.5129250000000  0.4737140000000 1.0
C      1  0.5255080000000  0.5515200000000  0.4732030000000 1.0
C      1  0.4756130000000  0.5525290000000  0.4632790000000 1.0
C      1  0.4415090000000  0.5142250000000  0.4676950000000 1.0
C      1  0.4532180000000  0.4663220000000  0.4640550000000 1.0
C      1  0.4596380000000  0.5319760000000  0.4656790000000 1.0
C      1  0.4511610000000  0.4900530000000  0.4792190000000 1.0
C      1  0.4757160000000  0.4567230000000  0.4575020000000 1.0
C      1  0.5169880000000  0.4560850000000  0.4715900000000 1.0
C      1  0.5475800000000  0.4876570000000  0.4797120000000 1.0
C      1  0.5395780000000  0.5308940000000  0.4848160000000 1.0
C      1  0.4982790000000  0.5475980000000  0.4786090000000 1.0
C      1  0.5159080000000  0.4748440000000  0.5519910000000 1.0
C      1  0.5329420000000  0.4996570000000  0.5526410000000 1.0
C      1  0.5255890000000  0.5239160000000  0.5373560000000 1.0
C      1  0.5012310000000  0.5337700000000  0.5500080000000 1.0
C      1  0.4780900000000  0.5189500000000  0.5413000000000 1.0
C      1  0.4757150000000  0.4940960000000  0.5561070000000 1.0
C      1  0.4893760000000  0.4734260000000  0.5399150000000 1.0
C      1  0.5162460000000  0.4743990000000  0.5813470000000 1.0
C      1  0.5352110000000  0.4980450000000  0.5814410000000 1.0
C      1  0.5290260000000  0.5240600000000  0.5860510000000 1.0
C      1  0.5040300000000  0.5316960000000  0.5779270000000 1.0
C      1  0.4832300000000  0.5200510000000  0.5911930000000 1.0
C      1  0.4799510000000  0.4936890000000  0.5834740000000 1.0
C      1  0.4925870000000  0.4712890000000  0.5940940000000 1.0
C      1  0.4613380000000  0.4910220000000  0.5050970000000 1.0
C      1  0.4835420000000  0.4726480000000  0.5129750000000 1.0
C      1  0.5057120000000  0.4742300000000  0.4946110000000 1.0
C      1  0.5290970000000  0.4897430000000  0.5016480000000 1.0
C      1  0.5237450000000  0.5183900000000  0.5082800000000 1.0
C      1  0.4958030000000  0.5234880000000  0.4973070000000 1.0
C      1  0.4728820000000  0.5166790000000  0.5141570000000 1.0
C      1  0.5026700000000  0.5022900000000  0.4544250000000 1.0
C      1  0.4975150000000  0.4993980000000  0.4788750000000 1.0
END
