TITL C-131464-8590-4 0.155159202052405 125000 -392.275276872762 0 0 56 (D3d) n - 1
REM
REM in /rds/project/t2_vol4/rds-t2-cs072/BORA/CARBON/from-Arr/AIRSS/Generating-Clusters/GAP-ML-2020/Higher-Symm/SD-CG/HFTN-CG
REM
REM
REM
REM
REM
REM ./C.cell (b20cbc046b6831c77cfcea5457e17084)
REM AIRSS Version 0.9.1 bugfix July 2018 build 013d7b7c2542+ Fri, 06 Jul 2018 19:26:36 +0100
REM compiler GCC version 9.3.0
REM options -cpp -mtune=generic -march=x86-64 -g -O0
REM seed -1953376803 -853912330 -75988860 1521630466 1933233050 -363350090 -768149089 393552410 -713178614 -1364341875 -1424567668 -166962781 883444517 -386578670 -1817840071 991417211 1580157526 -1049067339 -605592472 -625741846 2098717162 1866914749 -1770876258 211203456 -491105327 1655773448 -1595938121 11181931 -1704750538 -774281267 354696241 -1072175288 1443689491
REM
CELL 1.54180   50.00000   50.00000   50.00000   90.00000   90.00000   90.00000
LATT -1
SFAC C  
C      1  0.5617740000000  0.4550990000000  0.5274460000000 1.0
C      1  0.5617010000000  0.4985770000000  0.4473960000000 1.0
C      1  0.5619480000000  0.5464760000000  0.5255670000000 1.0
C      1  0.4403210000000  0.5452450000000  0.5276130000000 1.0
C      1  0.4405510000000  0.5012120000000  0.4475230000000 1.0
C      1  0.4406250000000  0.4535990000000  0.5251840000000 1.0
C      1  0.4405330000000  0.5447070000000  0.4726450000000 1.0
C      1  0.4406060000000  0.5012290000000  0.5526950000000 1.0
C      1  0.4403590000000  0.4533300000000  0.4745240000000 1.0
C      1  0.5619860000000  0.4545610000000  0.4724780000000 1.0
C      1  0.5617560000000  0.4985940000000  0.5525680000000 1.0
C      1  0.5616810000000  0.5462070000000  0.4749070000000 1.0
C      1  0.5380470000000  0.5333670000000  0.4712610000000 1.0
C      1  0.5381280000000  0.5085800000000  0.5437600000000 1.0
C      1  0.5381780000000  0.4571390000000  0.4851840000000 1.0
C      1  0.4641600000000  0.4656380000000  0.4704160000000 1.0
C      1  0.4642500000000  0.4916690000000  0.5434030000000 1.0
C      1  0.4641590000000  0.5420820000000  0.4857050000000 1.0
C      1  0.4642600000000  0.4664390000000  0.5288300000000 1.0
C      1  0.4641790000000  0.4912260000000  0.4563320000000 1.0
C      1  0.4641290000000  0.5426680000000  0.5149070000000 1.0
C      1  0.5381460000000  0.5341680000000  0.5296750000000 1.0
C      1  0.5380570000000  0.5081370000000  0.4566880000000 1.0
C      1  0.5381480000000  0.4577240000000  0.5143860000000 1.0
C      1  0.4171640000000  0.5320450000000  0.4746880000000 1.0
C      1  0.4172740000000  0.5058090000000  0.5406760000000 1.0
C      1  0.4172330000000  0.4616730000000  0.4848380000000 1.0
C      1  0.5851020000000  0.4676770000000  0.4745590000000 1.0
C      1  0.5851320000000  0.4940510000000  0.5405870000000 1.0
C      1  0.5850150000000  0.5380990000000  0.4848880000000 1.0
C      1  0.5851430000000  0.4677610000000  0.5254030000000 1.0
C      1  0.5850330000000  0.4939970000000  0.4594150000000 1.0
C      1  0.5850740000000  0.5381330000000  0.5152540000000 1.0
C      1  0.4172050000000  0.5321290000000  0.5255320000000 1.0
C      1  0.4171750000000  0.5057550000000  0.4595040000000 1.0
C      1  0.4172920000000  0.4617070000000  0.5152030000000 1.0
C      1  0.5137450000000  0.5393420000000  0.5145250000000 1.0
C      1  0.5137740000000  0.4685060000000  0.5262040000000 1.0
C      1  0.5137180000000  0.4924210000000  0.4596650000000 1.0
C      1  0.4886080000000  0.4611790000000  0.5137390000000 1.0
C      1  0.4885330000000  0.5321450000000  0.5269670000000 1.0
C      1  0.4885430000000  0.5068650000000  0.4597740000000 1.0
C      1  0.4885620000000  0.4604640000000  0.4855660000000 1.0
C      1  0.4885330000000  0.5313000000000  0.4738870000000 1.0
C      1  0.4885890000000  0.5073850000000  0.5404270000000 1.0
C      1  0.5136990000000  0.5386270000000  0.4863520000000 1.0
C      1  0.5137740000000  0.4676610000000  0.4731240000000 1.0
C      1  0.5137640000000  0.4929410000000  0.5403180000000 1.0
C      1  0.5975810000000  0.4730600000000  0.4999740000000 1.0
C      1  0.4047260000000  0.5267460000000  0.5001170000000 1.0
C      1  0.5974130000000  0.5133920000000  0.4767600000000 1.0
C      1  0.5975650000000  0.5134370000000  0.5232950000000 1.0
C      1  0.4047420000000  0.4863690000000  0.4767960000000 1.0
C      1  0.4048940000000  0.4864140000000  0.5233320000000 1.0
C      1  0.6062700000000  0.4999780000000  0.4999900000000 1.0
C      1  0.3960370000000  0.4998280000000  0.5001010000000 1.0
END
