TITL C-131488-8894-9 0.206683868428321 125000 -739.118238986004 0 0 109 (C1) n - 1
REM
REM in /rds/project/t2_vol4/rds-t2-cs072/BORA/CARBON/from-Arr/AIRSS/Generating-Clusters/GAP-ML-2020/Higher-Symm/SD-CG/HFTN-CG
REM
REM
REM
REM
REM
REM ./C.cell (b20cbc046b6831c77cfcea5457e17084)
REM AIRSS Version 0.9.1 bugfix July 2018 build 013d7b7c2542+ Fri, 06 Jul 2018 19:26:36 +0100
REM compiler GCC version 9.3.0
REM options -cpp -mtune=generic -march=x86-64 -g -O0
REM seed 221060513 304404675 -1767972546 -464404715 -1354124322 -211582957 -1880777491 -588480155 1407819995 -556180147 1857803984 292341819 -672412949 -1862287593 461695441 158372434 1024217319 -11150221 -322349312 -2031914911 2594828 1910245467 1611821500 -348602347 36987243 -585019368 -1712818323 552596984 212777453 1412461193 -804379388 -480346285 -1363758984
REM
CELL 1.54180   50.00000   50.00000   50.00000   90.00000   90.00000   90.00000
LATT -1
SFAC C  
C      1  0.4640130000000  0.5565870000000  0.4667310000000 1.0
C      1  0.4636390000000  0.4391430000000  0.5303050000000 1.0
C      1  0.4547610000000  0.5578700000000  0.5206790000000 1.0
C      1  0.4626590000000  0.4381330000000  0.4620930000000 1.0
C      1  0.5160010000000  0.5141430000000  0.4411930000000 1.0
C      1  0.5175680000000  0.4843040000000  0.5604480000000 1.0
C      1  0.5155750000000  0.5145880000000  0.5592540000000 1.0
C      1  0.5160250000000  0.4835660000000  0.4419920000000 1.0
C      1  0.5140980000000  0.5150250000000  0.5284480000000 1.0
C      1  0.5143350000000  0.4835490000000  0.4730180000000 1.0
C      1  0.5145310000000  0.5152970000000  0.4718300000000 1.0
C      1  0.5152570000000  0.4828190000000  0.5295630000000 1.0
C      1  0.5314300000000  0.4368020000000  0.5534130000000 1.0
C      1  0.5274940000000  0.5627440000000  0.4464530000000 1.0
C      1  0.5341360000000  0.4388740000000  0.4422370000000 1.0
C      1  0.5304740000000  0.5607370000000  0.5558690000000 1.0
C      1  0.4689120000000  0.5111680000000  0.4436190000000 1.0
C      1  0.4709530000000  0.4826300000000  0.5585330000000 1.0
C      1  0.4703520000000  0.5110360000000  0.5567900000000 1.0
C      1  0.4685810000000  0.4824140000000  0.4403650000000 1.0
C      1  0.4917440000000  0.5126430000000  0.5987370000000 1.0
C      1  0.4938370000000  0.4864840000000  0.4002040000000 1.0
C      1  0.4929290000000  0.5119300000000  0.4012080000000 1.0
C      1  0.4941850000000  0.4873240000000  0.5988720000000 1.0
C      1  0.4806360000000  0.4247610000000  0.5585160000000 1.0
C      1  0.4745000000000  0.5709850000000  0.4429670000000 1.0
C      1  0.4884460000000  0.4268120000000  0.4508270000000 1.0
C      1  0.4864060000000  0.5784370000000  0.5515400000000 1.0
C      1  0.5233820000000  0.5924190000000  0.4896100000000 1.0
C      1  0.5258840000000  0.4084880000000  0.5093540000000 1.0
C      1  0.5228450000000  0.5925200000000  0.5181450000000 1.0
C      1  0.5237240000000  0.4088460000000  0.4807350000000 1.0
C      1  0.5819950000000  0.4873250000000  0.4615520000000 1.0
C      1  0.5815580000000  0.5144410000000  0.5382300000000 1.0
C      1  0.5811970000000  0.4848920000000  0.5385190000000 1.0
C      1  0.5800480000000  0.5167780000000  0.4613020000000 1.0
C      1  0.4982920000000  0.5561150000000  0.4364900000000 1.0
C      1  0.5019590000000  0.4410690000000  0.5646340000000 1.0
C      1  0.5015810000000  0.5576120000000  0.5634540000000 1.0
C      1  0.5056810000000  0.4422390000000  0.4350980000000 1.0
C      1  0.4924200000000  0.5266000000000  0.4289750000000 1.0
C      1  0.4949700000000  0.4699200000000  0.5725560000000 1.0
C      1  0.4925640000000  0.5281820000000  0.5714240000000 1.0
C      1  0.4945880000000  0.4703660000000  0.4274630000000 1.0
C      1  0.5670250000000  0.5314590000000  0.4842600000000 1.0
C      1  0.5686950000000  0.4694320000000  0.5156330000000 1.0
C      1  0.5674770000000  0.5309710000000  0.5164110000000 1.0
C      1  0.5684530000000  0.4702180000000  0.4834530000000 1.0
C      1  0.5411750000000  0.4254350000000  0.5270640000000 1.0
C      1  0.5383240000000  0.5745820000000  0.4722720000000 1.0
C      1  0.5418350000000  0.4264010000000  0.4672530000000 1.0
C      1  0.5395240000000  0.5738890000000  0.5316750000000 1.0
C      1  0.4631810000000  0.4126670000000  0.5396780000000 1.0
C      1  0.4592030000000  0.5845180000000  0.4646750000000 1.0
C      1  0.4533880000000  0.4162810000000  0.4780490000000 1.0
C      1  0.4605120000000  0.5801270000000  0.5358170000000 1.0
C      1  0.4156600000000  0.5206230000000  0.4734100000000 1.0
C      1  0.4150590000000  0.4929430000000  0.5279310000000 1.0
C      1  0.4160250000000  0.5222470000000  0.5277880000000 1.0
C      1  0.4097560000000  0.4924510000000  0.4679690000000 1.0
C      1  0.5509970000000  0.5449430000000  0.5670150000000 1.0
C      1  0.5543980000000  0.4553980000000  0.4307680000000 1.0
C      1  0.5500990000000  0.5508960000000  0.4369680000000 1.0
C      1  0.5535550000000  0.4492930000000  0.5633200000000 1.0
C      1  0.4730260000000  0.5984100000000  0.5155140000000 1.0
C      1  0.4732550000000  0.4014220000000  0.4881790000000 1.0
C      1  0.4726760000000  0.5992390000000  0.4872100000000 1.0
C      1  0.4758020000000  0.3969350000000  0.5162680000000 1.0
C      1  0.4975470000000  0.5968980000000  0.5308710000000 1.0
C      1  0.4971590000000  0.4075840000000  0.4704880000000 1.0
C      1  0.4981490000000  0.5895320000000  0.4791090000000 1.0
C      1  0.5000950000000  0.4104920000000  0.5190830000000 1.0
C      1  0.5710720000000  0.4750480000000  0.4381580000000 1.0
C      1  0.5696650000000  0.5265380000000  0.5613520000000 1.0
C      1  0.5672800000000  0.4728460000000  0.5619070000000 1.0
C      1  0.5650710000000  0.5282640000000  0.4381510000000 1.0
C      1  0.4654420000000  0.5187370000000  0.5305320000000 1.0
C      1  0.4505530000000  0.4638260000000  0.4529330000000 1.0
C      1  0.4636730000000  0.5253490000000  0.4690720000000 1.0
C      1  0.4615090000000  0.4689570000000  0.5346480000000 1.0
C      1  0.4906260000000  0.5267990000000  0.4845920000000 1.0
C      1  0.4917570000000  0.4702460000000  0.5171940000000 1.0
C      1  0.4896730000000  0.5254940000000  0.5151580000000 1.0
C      1  0.4913110000000  0.4738390000000  0.4881280000000 1.0
C      1  0.4391860000000  0.4812470000000  0.5201540000000 1.0
C      1  0.4414490000000  0.5187810000000  0.4880840000000 1.0
C      1  0.4326830000000  0.4766520000000  0.4705440000000 1.0
C      1  0.4416470000000  0.5319490000000  0.5178160000000 1.0
C      1  0.5613300000000  0.4408250000000  0.4841020000000 1.0
C      1  0.5590840000000  0.5599130000000  0.5153590000000 1.0
C      1  0.5611790000000  0.4402730000000  0.5126930000000 1.0
C      1  0.5584630000000  0.5602510000000  0.4867770000000 1.0
C      1  0.5411580000000  0.4845700000000  0.4857780000000 1.0
C      1  0.5406110000000  0.5153010000000  0.5151690000000 1.0
C      1  0.5413620000000  0.4842670000000  0.5153180000000 1.0
C      1  0.5404960000000  0.5155670000000  0.4855790000000 1.0
C      1  0.4825960000000  0.4467430000000  0.4847240000000 1.0
C      1  0.4838150000000  0.5540620000000  0.5123330000000 1.0
C      1  0.4868800000000  0.4399570000000  0.5128050000000 1.0
C      1  0.4886990000000  0.5573530000000  0.4844020000000 1.0
C      1  0.3903660000000  0.5247110000000  0.4868600000000 1.0
C      1  0.3888180000000  0.4931140000000  0.5149050000000 1.0
C      1  0.3905220000000  0.5239560000000  0.5154720000000 1.0
C      1  0.3864830000000  0.4945410000000  0.4851280000000 1.0
C      1  0.5448250000000  0.4871310000000  0.5725760000000 1.0
C      1  0.5430730000000  0.5128030000000  0.4280450000000 1.0
C      1  0.5436660000000  0.4837900000000  0.4283220000000 1.0
C      1  0.5434840000000  0.5162430000000  0.5723880000000 1.0
C      1  0.4419190000000  0.4902900000000  0.4938540000000 1.0
END
