TITL C-132127-3459-3 -0.0731017790313031 125000 -326.899373577333 0 0 49 (C3) n - 1
REM
REM in /rds/project/t2_vol4/rds-t2-cs072/BORA/CARBON/from-Arr/AIRSS/Generating-Clusters/GAP-ML-2020/Higher-Symm/SD-CG/HFTN-CG
REM
REM
REM
REM
REM
REM ./C.cell (b20cbc046b6831c77cfcea5457e17084)
REM AIRSS Version 0.9.1 bugfix July 2018 build 013d7b7c2542+ Fri, 06 Jul 2018 19:26:36 +0100
REM compiler GCC version 9.3.0
REM options -cpp -mtune=generic -march=x86-64 -g -O0
REM seed 1323042410 939575305 -20521255 1161450471 739974859 2032242342 -325944366 -1590198363 1589269876 1814754986 316700996 958717696 -909010201 -379931516 2067773245 -997651208 -397597149 -26856228 -1801877844 -1229905259 1389491822 701442028 658292566 1074047927 127001497 1920411253 -670066994 1529096393 1595643659 1006465990 1453427273 1552983629 1100496267
REM
CELL 1.54180   50.00000   50.00000   50.00000   90.00000   90.00000   90.00000
LATT -1
SFAC C  
C      1  0.4756370000000  0.4568000000000  0.4453050000000 1.0
C      1  0.4752950000000  0.5417140000000  0.4456350000000 1.0
C      1  0.5490030000000  0.4995540000000  0.4452440000000 1.0
C      1  0.4559840000000  0.5172980000000  0.5104290000000 1.0
C      1  0.5380320000000  0.5282810000000  0.5102190000000 1.0
C      1  0.5065190000000  0.4517350000000  0.5100190000000 1.0
C      1  0.4502040000000  0.4980380000000  0.4653610000000 1.0
C      1  0.5238830000000  0.5430590000000  0.4653080000000 1.0
C      1  0.5260320000000  0.4567410000000  0.4649670000000 1.0
C      1  0.4403270000000  0.4706300000000  0.5029120000000 1.0
C      1  0.5053860000000  0.5651970000000  0.5030780000000 1.0
C      1  0.5547540000000  0.4615720000000  0.5025240000000 1.0
C      1  0.4455440000000  0.4611790000000  0.5289980000000 1.0
C      1  0.4948020000000  0.5653230000000  0.5292500000000 1.0
C      1  0.5603640000000  0.4705930000000  0.5286800000000 1.0
C      1  0.5422190000000  0.5087500000000  0.4891410000000 1.0
C      1  0.4873430000000  0.4579400000000  0.4891130000000 1.0
C      1  0.4707790000000  0.5308680000000  0.4894470000000 1.0
C      1  0.4718360000000  0.5036820000000  0.5358030000000 1.0
C      1  0.5185180000000  0.5212810000000  0.5357280000000 1.0
C      1  0.5104180000000  0.4720540000000  0.5355620000000 1.0
C      1  0.4425420000000  0.4963940000000  0.4936160000000 1.0
C      1  0.5265160000000  0.5504270000000  0.4935670000000 1.0
C      1  0.5313220000000  0.4506880000000  0.4931650000000 1.0
C      1  0.5614760000000  0.5171230000000  0.5290510000000 1.0
C      1  0.4852850000000  0.4369510000000  0.5289750000000 1.0
C      1  0.4539500000000  0.5430190000000  0.5294840000000 1.0
C      1  0.5383300000000  0.4784270000000  0.5449310000000 1.0
C      1  0.4634740000000  0.4762930000000  0.5451540000000 1.0
C      1  0.4990540000000  0.5421870000000  0.5453000000000 1.0
C      1  0.4651100000000  0.5219980000000  0.4632570000000 1.0
C      1  0.5371630000000  0.5181770000000  0.4630200000000 1.0
C      1  0.4978270000000  0.4576880000000  0.4629070000000 1.0
C      1  0.4784190000000  0.5592800000000  0.4907210000000 1.0
C      1  0.5630130000000  0.4879240000000  0.4901830000000 1.0
C      1  0.4589190000000  0.4503410000000  0.4903590000000 1.0
C      1  0.4534720000000  0.4741370000000  0.4508590000000 1.0
C      1  0.5014350000000  0.5522230000000  0.4510140000000 1.0
C      1  0.5450780000000  0.4716440000000  0.4505660000000 1.0
C      1  0.5739790000000  0.4947320000000  0.5177570000000 1.0
C      1  0.4595530000000  0.4373530000000  0.5178880000000 1.0
C      1  0.4670760000000  0.5651380000000  0.5183610000000 1.0
C      1  0.4523810000000  0.4485530000000  0.4622340000000 1.0
C      1  0.4799160000000  0.5659240000000  0.4626050000000 1.0
C      1  0.5677950000000  0.4833940000000  0.4620130000000 1.0
C      1  0.4715950000000  0.5311270000000  0.5487730000000 1.0
C      1  0.5425090000000  0.5077270000000  0.5484630000000 1.0
C      1  0.4867870000000  0.4580140000000  0.5484420000000 1.0
C      1  0.5002440000000  0.4990220000000  0.5313880000000 1.0
END
