TITL C-131469-8510-3 -0.103788615386219 125000 -415.379388392219 0 0 63 (C1) n - 1
REM
REM in /rds/project/t2_vol4/rds-t2-cs072/BORA/CARBON/from-Arr/AIRSS/Generating-Clusters/GAP-ML-2020/Higher-Symm/SD-CG/HFTN-CG
REM
REM
REM
REM
REM
REM ./C.cell (b20cbc046b6831c77cfcea5457e17084)
REM AIRSS Version 0.9.1 bugfix July 2018 build 013d7b7c2542+ Fri, 06 Jul 2018 19:26:36 +0100
REM compiler GCC version 9.3.0
REM options -cpp -mtune=generic -march=x86-64 -g -O0
REM seed -253597379 -1050405836 1950535659 -1129216159 -1960549066 -165451975 -2108127975 1295347037 815802199 -1370770023 533722220 1671205781 -596521600 1017845614 -1660830168 -1301450131 -504327277 1563020538 339665351 -1254194782 -1662506068 -327653571 732972241 -179838174 -1310312554 441208830 -471281852 -503448017 194145533 1589624064 2043185798 223044391 -250791016
REM
CELL 1.54180   50.00000   50.00000   50.00000   90.00000   90.00000   90.00000
LATT -1
SFAC C  
C      1  0.4746750000000  0.5163020000000  0.5004060000000 1.0
C      1  0.5192160000000  0.5153800000000  0.4786540000000 1.0
C      1  0.5157220000000  0.5158490000000  0.5281460000000 1.0
C      1  0.4763890000000  0.4582970000000  0.4637240000000 1.0
C      1  0.5474730000000  0.4563670000000  0.4992190000000 1.0
C      1  0.4820470000000  0.4572000000000  0.5432430000000 1.0
C      1  0.4739970000000  0.5019430000000  0.4440150000000 1.0
C      1  0.5673330000000  0.4999890000000  0.5068440000000 1.0
C      1  0.4672130000000  0.5012170000000  0.5562620000000 1.0
C      1  0.5165400000000  0.5435540000000  0.5705090000000 1.0
C      1  0.4394860000000  0.5461330000000  0.4798170000000 1.0
C      1  0.5561700000000  0.5432210000000  0.4577570000000 1.0
C      1  0.4496400000000  0.5378820000000  0.5040120000000 1.0
C      1  0.5295990000000  0.5362400000000  0.4551230000000 1.0
C      1  0.5316620000000  0.5361370000000  0.5485880000000 1.0
C      1  0.5146470000000  0.4876220000000  0.5265900000000 1.0
C      1  0.4756650000000  0.4880160000000  0.5006550000000 1.0
C      1  0.5177360000000  0.4869800000000  0.4798370000000 1.0
C      1  0.5542960000000  0.4654560000000  0.5428690000000 1.0
C      1  0.4418680000000  0.4676710000000  0.5269020000000 1.0
C      1  0.5102070000000  0.4659170000000  0.4353540000000 1.0
C      1  0.5062890000000  0.5440480000000  0.4433480000000 1.0
C      1  0.5537770000000  0.5431340000000  0.5342110000000 1.0
C      1  0.4513760000000  0.5445950000000  0.5303640000000 1.0
C      1  0.5687470000000  0.5329870000000  0.4794580000000 1.0
C      1  0.4913690000000  0.5335610000000  0.5707030000000 1.0
C      1  0.4511310000000  0.5354800000000  0.4579050000000 1.0
C      1  0.5410590000000  0.4680000000000  0.4729330000000 1.0
C      1  0.5082990000000  0.4675180000000  0.5503440000000 1.0
C      1  0.4577220000000  0.4690510000000  0.4829940000000 1.0
C      1  0.4788240000000  0.4433030000000  0.5189100000000 1.0
C      1  0.4993920000000  0.4409970000000  0.4736540000000 1.0
C      1  0.5276540000000  0.4423800000000  0.5140990000000 1.0
C      1  0.4587900000000  0.4751390000000  0.5475790000000 1.0
C      1  0.4847700000000  0.4750310000000  0.4414980000000 1.0
C      1  0.5627960000000  0.4734680000000  0.5175900000000 1.0
C      1  0.4536260000000  0.4526760000000  0.5073210000000 1.0
C      1  0.5215310000000  0.4536150000000  0.4568550000000 1.0
C      1  0.5308400000000  0.4506710000000  0.5416880000000 1.0
C      1  0.4823560000000  0.5306270000000  0.4521590000000 1.0
C      1  0.5573490000000  0.5293130000000  0.5091270000000 1.0
C      1  0.4708200000000  0.5302460000000  0.5461060000000 1.0
C      1  0.5728800000000  0.5036200000000  0.4785760000000 1.0
C      1  0.4894750000000  0.5043040000000  0.5747510000000 1.0
C      1  0.4473700000000  0.5062090000000  0.4546830000000 1.0
C      1  0.4897700000000  0.5280900000000  0.5231310000000 1.0
C      1  0.4922940000000  0.5275990000000  0.4801560000000 1.0
C      1  0.5279460000000  0.5276570000000  0.5037980000000 1.0
C      1  0.5085870000000  0.4855180000000  0.5734920000000 1.0
C      1  0.4381700000000  0.4877450000000  0.4718080000000 1.0
C      1  0.5616290000000  0.4855720000000  0.4621750000000 1.0
C      1  0.4983700000000  0.6004760000000  0.4992930000000 1.0
C      1  0.4923230000000  0.6511370000000  0.4967750000000 1.0
C      1  0.4968830000000  0.3662100000000  0.4994260000000 1.0
C      1  0.5025130000000  0.4791110000000  0.5023420000000 1.0
C      1  0.5036850000000  0.5487010000000  0.5022050000000 1.0
C      1  0.4963880000000  0.3442460000000  0.5117760000000 1.0
C      1  0.5039470000000  0.5760850000000  0.5022940000000 1.0
C      1  0.4897290000000  0.6767020000000  0.4956940000000 1.0
C      1  0.4950170000000  0.6254670000000  0.4979000000000 1.0
C      1  0.5020480000000  0.4476410000000  0.5024970000000 1.0
C      1  0.4981790000000  0.4117250000000  0.4759830000000 1.0
C      1  0.4974760000000  0.3903200000000  0.4884140000000 1.0
END
