TITL C-132793-1230-5 0.247302396466242 125000 -49.1116168284604 0 0 8 (Cs) n - 1
REM
REM in /rds/project/t2_vol4/rds-t2-cs072/BORA/CARBON/from-Arr/AIRSS/Generating-Clusters/GAP-ML-2020/Higher-Symm/SD-CG/HFTN-CG
REM
REM
REM
REM
REM
REM ./C.cell (b20cbc046b6831c77cfcea5457e17084)
REM AIRSS Version 0.9.1 bugfix July 2018 build 013d7b7c2542+ Fri, 06 Jul 2018 19:26:36 +0100
REM compiler GCC version 9.3.0
REM options -cpp -mtune=generic -march=x86-64 -g -O0
REM seed 1930105582 1909100348 1225267410 -828813479 305129730 -382977538 1869372643 573528726 266747657 -1286466339 393487449 -882056251 1818793368 -863607235 1882285895 -1406307391 -503126089 2142454319 1202437977 1953301178 1996139002 1393295096 396237305 -1455532173 1185601261 -839866450 -1407647856 -754999651 1908097526 1894693019 800113606 595501005 2111662453
REM
CELL 1.54180   50.00000   50.00000   50.00000   90.00000   90.00000   90.00000
LATT -1
SFAC C  
C      1  0.4790200000000  0.4813710000000  0.4883920000000 1.0
C      1  0.4799200000000  0.4742350000000  0.5135050000000 1.0
C      1  0.5233680000000  0.5133200000000  0.4890050000000 1.0
C      1  0.5246050000000  0.5205470000000  0.5135760000000 1.0
C      1  0.4862240000000  0.4965070000000  0.4692510000000 1.0
C      1  0.4913050000000  0.4926320000000  0.5281440000000 1.0
C      1  0.5104120000000  0.5075360000000  0.4676470000000 1.0
C      1  0.5051470000000  0.5138530000000  0.5304810000000 1.0
END
