TITL C-132788-1284-8 -0.0806823024049584 125000 -317.297566402922 0 0 45 (C1) n - 1
REM
REM in /rds/project/t2_vol4/rds-t2-cs072/BORA/CARBON/from-Arr/AIRSS/Generating-Clusters/GAP-ML-2020/Higher-Symm/SD-CG/HFTN-CG
REM
REM
REM
REM
REM
REM ./C.cell (b20cbc046b6831c77cfcea5457e17084)
REM AIRSS Version 0.9.1 bugfix July 2018 build 013d7b7c2542+ Fri, 06 Jul 2018 19:26:36 +0100
REM compiler GCC version 9.3.0
REM options -cpp -mtune=generic -march=x86-64 -g -O0
REM seed 676443651 316523260 -1600021012 1707869836 114263276 17690254 -1388546208 1667681563 -893043221 -1555761705 583496022 1574986576 1757479425 375422026 -497696870 321501575 -1928839990 -1399029193 678874136 -710635258 -268743043 1588881194 464634540 2141792997 -394460331 -1434460788 -592577193 -660425191 -86691301 2064318516 260626473 378573540 908202266
REM
CELL 1.54180   50.00000   50.00000   50.00000   90.00000   90.00000   90.00000
LATT -1
SFAC C  
C      1  0.4787120000000  0.4444140000000  0.5062140000000 1.0
C      1  0.4848420000000  0.4420360000000  0.4777540000000 1.0
C      1  0.4827210000000  0.4616400000000  0.4559090000000 1.0
C      1  0.4756000000000  0.4905140000000  0.4532760000000 1.0
C      1  0.4768660000000  0.5544780000000  0.4617610000000 1.0
C      1  0.4782520000000  0.5673050000000  0.4890650000000 1.0
C      1  0.4790410000000  0.5364180000000  0.5441310000000 1.0
C      1  0.4840470000000  0.5145380000000  0.5622660000000 1.0
C      1  0.4784630000000  0.4872620000000  0.5541510000000 1.0
C      1  0.5376340000000  0.5391190000000  0.5120300000000 1.0
C      1  0.5418200000000  0.5231350000000  0.5354280000000 1.0
C      1  0.5418820000000  0.4941840000000  0.5411820000000 1.0
C      1  0.5383740000000  0.4700940000000  0.5260690000000 1.0
C      1  0.5420870000000  0.4572260000000  0.5005140000000 1.0
C      1  0.5439890000000  0.4646200000000  0.4719720000000 1.0
C      1  0.5394210000000  0.4894320000000  0.4571610000000 1.0
C      1  0.5356540000000  0.5172580000000  0.4624860000000 1.0
C      1  0.5377330000000  0.5373080000000  0.4832270000000 1.0
C      1  0.5245550000000  0.5356620000000  0.5559560000000 1.0
C      1  0.5239310000000  0.4912360000000  0.5646870000000 1.0
C      1  0.5149160000000  0.4560400000000  0.5388390000000 1.0
C      1  0.5239830000000  0.4339590000000  0.5010520000000 1.0
C      1  0.5273590000000  0.4440990000000  0.4572070000000 1.0
C      1  0.5189400000000  0.4831970000000  0.4368530000000 1.0
C      1  0.5128800000000  0.5257820000000  0.4450350000000 1.0
C      1  0.5207180000000  0.5592980000000  0.4741490000000 1.0
C      1  0.5170000000000  0.5596370000000  0.5190080000000 1.0
C      1  0.5043410000000  0.5514520000000  0.5424430000000 1.0
C      1  0.5118890000000  0.5158470000000  0.5712890000000 1.0
C      1  0.5032800000000  0.4725270000000  0.5579180000000 1.0
C      1  0.5032920000000  0.4392650000000  0.5201380000000 1.0
C      1  0.5118750000000  0.4300490000000  0.4759580000000 1.0
C      1  0.5083020000000  0.4578300000000  0.4411450000000 1.0
C      1  0.4981600000000  0.5028590000000  0.4383610000000 1.0
C      1  0.5033720000000  0.5505320000000  0.4535580000000 1.0
C      1  0.5054140000000  0.5696320000000  0.4956170000000 1.0
C      1  0.4596200000000  0.4830260000000  0.5336940000000 1.0
C      1  0.4575190000000  0.4602740000000  0.5153260000000 1.0
C      1  0.4395860000000  0.4671920000000  0.4939410000000 1.0
C      1  0.4439720000000  0.4945980000000  0.4919050000000 1.0
C      1  0.4575780000000  0.5063510000000  0.4693850000000 1.0
C      1  0.4593170000000  0.5343530000000  0.4721050000000 1.0
C      1  0.4602700000000  0.5472890000000  0.4988760000000 1.0
C      1  0.4607380000000  0.5316820000000  0.5222290000000 1.0
C      1  0.4500530000000  0.5053520000000  0.5187340000000 1.0
END
