TITL C-132771-2488-7 -46.3597157337768 125000 -699.332042833835 0 0 101 (C1) n - 1
REM
REM in /rds/project/t2_vol4/rds-t2-cs072/BORA/CARBON/from-Arr/AIRSS/Generating-Clusters/GAP-ML-2020/Higher-Symm/SD-CG/HFTN-CG
REM
REM
REM
REM
REM
REM ./C.cell (b20cbc046b6831c77cfcea5457e17084)
REM AIRSS Version 0.9.1 bugfix July 2018 build 013d7b7c2542+ Fri, 06 Jul 2018 19:26:36 +0100
REM compiler GCC version 9.3.0
REM options -cpp -mtune=generic -march=x86-64 -g -O0
REM seed -488342025 -494433146 -1829818889 -2037821451 -1219908058 756565981 -755740089 911588277 -1390409761 971440167 -1505896787 580454153 1791613179 -485856728 -1415472934 2101425459 2097154584 -1217837257 -1583260397 -801229573 -1265980476 -16771291 874092229 1478420467 1136819044 -975095765 746956556 -160817196 1896375892 -2099467602 713128923 1078343693 -1052445959
REM
CELL 1.54180   50.00000   50.00000   50.00000   90.00000   90.00000   90.00000
LATT -1
SFAC C  
C      1  0.4260730000000  0.5524710000000  0.5315190000000 1.0
C      1  0.5332050000000  0.4293640000000  0.5501080000000 1.0
C      1  0.5537520000000  0.5302670000000  0.4292920000000 1.0
C      1  0.4333010000000  0.4515560000000  0.4756740000000 1.0
C      1  0.5708560000000  0.4514320000000  0.5298420000000 1.0
C      1  0.5697680000000  0.5500810000000  0.4700550000000 1.0
C      1  0.5272520000000  0.5668000000000  0.4532990000000 1.0
C      1  0.4684940000000  0.5677950000000  0.5514000000000 1.0
C      1  0.4695340000000  0.4306690000000  0.4531210000000 1.0
C      1  0.5511690000000  0.4697590000000  0.5706590000000 1.0
C      1  0.4527640000000  0.4734020000000  0.4357410000000 1.0
C      1  0.4492970000000  0.5276550000000  0.5688200000000 1.0
C      1  0.4282110000000  0.5311800000000  0.5508590000000 1.0
C      1  0.5308660000000  0.5478920000000  0.4327630000000 1.0
C      1  0.5516740000000  0.4315240000000  0.5287480000000 1.0
C      1  0.4327210000000  0.4724590000000  0.4557230000000 1.0
C      1  0.5730420000000  0.5305250000000  0.4490340000000 1.0
C      1  0.5690490000000  0.4719470000000  0.5495950000000 1.0
C      1  0.5321970000000  0.4486200000000  0.5702770000000 1.0
C      1  0.4692900000000  0.5473190000000  0.5706290000000 1.0
C      1  0.4720340000000  0.4525370000000  0.4352420000000 1.0
C      1  0.5472840000000  0.5669990000000  0.4730230000000 1.0
C      1  0.4495700000000  0.4290810000000  0.4741750000000 1.0
C      1  0.4474770000000  0.5704040000000  0.5317410000000 1.0
C      1  0.4814140000000  0.5002940000000  0.4062580000000 1.0
C      1  0.4059120000000  0.4797730000000  0.5040550000000 1.0
C      1  0.4999230000000  0.4020990000000  0.4806620000000 1.0
C      1  0.4776750000000  0.4952220000000  0.5926110000000 1.0
C      1  0.5233420000000  0.4988990000000  0.4030120000000 1.0
C      1  0.5192540000000  0.4975250000000  0.5965190000000 1.0
C      1  0.3991210000000  0.5212200000000  0.5024230000000 1.0
C      1  0.5968190000000  0.5216680000000  0.5002890000000 1.0
C      1  0.5972540000000  0.4806960000000  0.5007480000000 1.0
C      1  0.4998320000000  0.5943890000000  0.5233530000000 1.0
C      1  0.4992360000000  0.5949780000000  0.4820180000000 1.0
C      1  0.5027340000000  0.4036060000000  0.5215810000000 1.0
C      1  0.4808040000000  0.4011970000000  0.5031050000000 1.0
C      1  0.4018380000000  0.4997130000000  0.4833910000000 1.0
C      1  0.5021790000000  0.4801510000000  0.4070350000000 1.0
C      1  0.4791780000000  0.5977040000000  0.5028710000000 1.0
C      1  0.5220470000000  0.4055980000000  0.4990980000000 1.0
C      1  0.5199160000000  0.5933060000000  0.5027160000000 1.0
C      1  0.4020800000000  0.5010490000000  0.5233230000000 1.0
C      1  0.5940700000000  0.5020960000000  0.5210140000000 1.0
C      1  0.5995530000000  0.5004690000000  0.4799110000000 1.0
C      1  0.4976220000000  0.5168210000000  0.5969780000000 1.0
C      1  0.4989260000000  0.4759430000000  0.5951170000000 1.0
C      1  0.5026210000000  0.5202740000000  0.4016480000000 1.0
C      1  0.4399420000000  0.5200060000000  0.4649700000000 1.0
C      1  0.4752640000000  0.4480610000000  0.5089030000000 1.0
C      1  0.5152290000000  0.4717410000000  0.4511370000000 1.0
C      1  0.4474220000000  0.5127050000000  0.5128640000000 1.0
C      1  0.5525400000000  0.4956970000000  0.4720880000000 1.0
C      1  0.5414190000000  0.4998690000000  0.5218290000000 1.0
C      1  0.4623570000000  0.5556570000000  0.4893380000000 1.0
C      1  0.5140270000000  0.5457830000000  0.5049960000000 1.0
C      1  0.5239780000000  0.4574930000000  0.5003600000000 1.0
C      1  0.5027210000000  0.5223290000000  0.5484270000000 1.0
C      1  0.5101300000000  0.5173230000000  0.4475850000000 1.0
C      1  0.5013870000000  0.4747650000000  0.5465840000000 1.0
C      1  0.4556570000000  0.4685830000000  0.5134710000000 1.0
C      1  0.4633630000000  0.5178680000000  0.4498790000000 1.0
C      1  0.4897230000000  0.4492080000000  0.4828250000000 1.0
C      1  0.4419990000000  0.5348380000000  0.4906500000000 1.0
C      1  0.5481770000000  0.4765930000000  0.4983960000000 1.0
C      1  0.5490750000000  0.5193800000000  0.4888020000000 1.0
C      1  0.4812400000000  0.4979440000000  0.5431560000000 1.0
C      1  0.5234850000000  0.4986160000000  0.5469060000000 1.0
C      1  0.5325740000000  0.4950260000000  0.4485670000000 1.0
C      1  0.5054410000000  0.5472500000000  0.5324890000000 1.0
C      1  0.5015030000000  0.4531020000000  0.5253050000000 1.0
C      1  0.4892910000000  0.5487620000000  0.4798170000000 1.0
C      1  0.5071870000000  0.4252880000000  0.5381330000000 1.0
C      1  0.5438770000000  0.5027320000000  0.4214490000000 1.0
C      1  0.4165270000000  0.5431960000000  0.5045970000000 1.0
C      1  0.5009970000000  0.5722220000000  0.4648560000000 1.0
C      1  0.4949640000000  0.5724240000000  0.5404790000000 1.0
C      1  0.4943570000000  0.4248200000000  0.4658680000000 1.0
C      1  0.5369570000000  0.4949670000000  0.5750330000000 1.0
C      1  0.4629800000000  0.4995160000000  0.4276880000000 1.0
C      1  0.4625960000000  0.5003500000000  0.5689490000000 1.0
C      1  0.4292910000000  0.4638410000000  0.5019920000000 1.0
C      1  0.5752380000000  0.4638990000000  0.5040070000000 1.0
C      1  0.5739760000000  0.5362980000000  0.4948640000000 1.0
C      1  0.5074140000000  0.5349210000000  0.4244000000000 1.0
C      1  0.5373560000000  0.4288840000000  0.5021340000000 1.0
C      1  0.4258570000000  0.5070970000000  0.5358100000000 1.0
C      1  0.5052140000000  0.4600860000000  0.5735170000000 1.0
C      1  0.4952950000000  0.5341670000000  0.5752640000000 1.0
C      1  0.4989830000000  0.4632790000000  0.4296260000000 1.0
C      1  0.5345410000000  0.5696390000000  0.4990110000000 1.0
C      1  0.4620090000000  0.4213900000000  0.5010130000000 1.0
C      1  0.4588510000000  0.5781970000000  0.5055140000000 1.0
C      1  0.4221720000000  0.4981990000000  0.4639710000000 1.0
C      1  0.5799530000000  0.5033070000000  0.4608590000000 1.0
C      1  0.5709940000000  0.4985570000000  0.5362030000000 1.0
C      1  0.4892180000000  0.5206120000000  0.4668770000000 1.0
C      1  0.4706170000000  0.4959720000000  0.5140590000000 1.0
C      1  0.5239320000000  0.5176400000000  0.5017890000000 1.0
C      1  0.5060430000000  0.4714780000000  0.4793710000000 1.0
C      1  0.4957100000000  0.4998550000000  0.4902390000000 1.0
END
