TITL C-133527-5439-2 -0.103723535433411 125000 -679.981611265461 0 0 96 (C1) n - 1
REM
REM in /rds/project/t2_vol4/rds-t2-cs072/BORA/CARBON/from-Arr/AIRSS/Generating-Clusters/GAP-ML-2020/Higher-Symm/SD-CG/HFTN-CG
REM
REM
REM
REM
REM
REM ./C.cell (b20cbc046b6831c77cfcea5457e17084)
REM AIRSS Version 0.9.1 bugfix July 2018 build 013d7b7c2542+ Fri, 06 Jul 2018 19:26:36 +0100
REM compiler GCC version 9.3.0
REM options -cpp -mtune=generic -march=x86-64 -g -O0
REM seed 141542740 113597121 962996067 -2005954614 505992593 1669001816 -180584757 22384681 1758493945 724442638 -2014173532 -1617032517 -1354094544 -546144882 687966367 -1106778202 889000550 -560923011 405242333 1038496303 -425300773 1009654407 -463818284 1603583526 -291663643 -1910967292 -1710247962 319548253 -1784191141 701695128 -1175686189 1278447899 1157771465
REM
CELL 1.54180   50.00000   50.00000   50.00000   90.00000   90.00000   90.00000
LATT -1
SFAC C  
C      1  0.5578080000000  0.5508120000000  0.4527350000000 1.0
C      1  0.4252220000000  0.4523330000000  0.4868290000000 1.0
C      1  0.4694690000000  0.5670330000000  0.5445840000000 1.0
C      1  0.5112940000000  0.5033350000000  0.4219370000000 1.0
C      1  0.4932810000000  0.5587720000000  0.5588690000000 1.0
C      1  0.5184510000000  0.4565220000000  0.5259360000000 1.0
C      1  0.4900590000000  0.4481050000000  0.5647020000000 1.0
C      1  0.4871290000000  0.5210770000000  0.4232300000000 1.0
C      1  0.5700640000000  0.4626370000000  0.5240280000000 1.0
C      1  0.5481600000000  0.4668670000000  0.4524610000000 1.0
C      1  0.5131410000000  0.5584260000000  0.4414300000000 1.0
C      1  0.4718240000000  0.4326970000000  0.4950910000000 1.0
C      1  0.4273350000000  0.4514460000000  0.4577350000000 1.0
C      1  0.4293150000000  0.4779360000000  0.5346830000000 1.0
C      1  0.4814620000000  0.4636920000000  0.4199060000000 1.0
C      1  0.5167480000000  0.4872090000000  0.4922860000000 1.0
C      1  0.4983270000000  0.4733410000000  0.5111590000000 1.0
C      1  0.5735170000000  0.5357020000000  0.4683420000000 1.0
C      1  0.5800900000000  0.5425260000000  0.4955060000000 1.0
C      1  0.4639240000000  0.5118130000000  0.4955960000000 1.0
C      1  0.4858920000000  0.4688200000000  0.4657070000000 1.0
C      1  0.5745390000000  0.4706440000000  0.4965610000000 1.0
C      1  0.5097880000000  0.5786010000000  0.4621940000000 1.0
C      1  0.5237580000000  0.5827480000000  0.5279320000000 1.0
C      1  0.5585310000000  0.4783940000000  0.5459130000000 1.0
C      1  0.4818130000000  0.5780940000000  0.4696970000000 1.0
C      1  0.4742270000000  0.4899480000000  0.5799560000000 1.0
C      1  0.4664290000000  0.5170750000000  0.5727800000000 1.0
C      1  0.5434970000000  0.5498680000000  0.5569830000000 1.0
C      1  0.4748050000000  0.4640500000000  0.4918040000000 1.0
C      1  0.5155420000000  0.5002280000000  0.5436860000000 1.0
C      1  0.4798760000000  0.5157920000000  0.5193760000000 1.0
C      1  0.5587490000000  0.4550440000000  0.4775940000000 1.0
C      1  0.4272290000000  0.4786910000000  0.5053610000000 1.0
C      1  0.4605430000000  0.4213250000000  0.4390360000000 1.0
C      1  0.5017940000000  0.4427610000000  0.4555190000000 1.0
C      1  0.5448560000000  0.4226490000000  0.5383750000000 1.0
C      1  0.5549750000000  0.4945380000000  0.4474470000000 1.0
C      1  0.4280280000000  0.5068590000000  0.5374520000000 1.0
C      1  0.5663390000000  0.5616880000000  0.5125520000000 1.0
C      1  0.5140060000000  0.5138120000000  0.5721700000000 1.0
C      1  0.4620350000000  0.5084420000000  0.4263160000000 1.0
C      1  0.4436470000000  0.4286970000000  0.4854870000000 1.0
C      1  0.5599420000000  0.4361780000000  0.5205660000000 1.0
C      1  0.5076260000000  0.4747930000000  0.4227240000000 1.0
C      1  0.5739560000000  0.5071420000000  0.4649770000000 1.0
C      1  0.4225440000000  0.5118200000000  0.5097840000000 1.0
C      1  0.4992510000000  0.4259620000000  0.4805300000000 1.0
C      1  0.4437910000000  0.4585520000000  0.5508150000000 1.0
C      1  0.4701660000000  0.4272920000000  0.5246350000000 1.0
C      1  0.4628150000000  0.5758690000000  0.5173070000000 1.0
C      1  0.5022290000000  0.4887210000000  0.5836050000000 1.0
C      1  0.4457440000000  0.5411050000000  0.4635910000000 1.0
C      1  0.5121410000000  0.4648200000000  0.5716800000000 1.0
C      1  0.4793940000000  0.5872510000000  0.4973650000000 1.0
C      1  0.5250510000000  0.5869230000000  0.4858590000000 1.0
C      1  0.5259500000000  0.5195770000000  0.5207030000000 1.0
C      1  0.4470830000000  0.4370510000000  0.5343760000000 1.0
C      1  0.5005780000000  0.4929230000000  0.4696310000000 1.0
C      1  0.5205300000000  0.5670860000000  0.5518810000000 1.0
C      1  0.5027650000000  0.5334840000000  0.5119960000000 1.0
C      1  0.4427170000000  0.5244210000000  0.5561970000000 1.0
C      1  0.5478740000000  0.4338530000000  0.4936350000000 1.0
C      1  0.4809660000000  0.4383870000000  0.4347650000000 1.0
C      1  0.4378260000000  0.4726430000000  0.4428750000000 1.0
C      1  0.4427600000000  0.5548210000000  0.5147020000000 1.0
C      1  0.5235130000000  0.4580430000000  0.4408000000000 1.0
C      1  0.5355330000000  0.5126580000000  0.4338750000000 1.0
C      1  0.5056970000000  0.5926670000000  0.5069870000000 1.0
C      1  0.4677190000000  0.5577600000000  0.4548040000000 1.0
C      1  0.4899130000000  0.4927790000000  0.5305630000000 1.0
C      1  0.4923150000000  0.4298690000000  0.5422220000000 1.0
C      1  0.4398860000000  0.4245540000000  0.4563350000000 1.0
C      1  0.5858990000000  0.5186140000000  0.5094800000000 1.0
C      1  0.5443690000000  0.5788490000000  0.5069590000000 1.0
C      1  0.4863650000000  0.5158760000000  0.4752010000000 1.0
C      1  0.5358870000000  0.5049730000000  0.5002610000000 1.0
C      1  0.4879000000000  0.5473040000000  0.4354330000000 1.0
C      1  0.5362870000000  0.5412990000000  0.4395250000000 1.0
C      1  0.4586800000000  0.4800240000000  0.4237910000000 1.0
C      1  0.4907180000000  0.5331440000000  0.5719980000000 1.0
C      1  0.4660910000000  0.4637820000000  0.5689000000000 1.0
C      1  0.5775200000000  0.5232320000000  0.5369980000000 1.0
C      1  0.4375970000000  0.4938300000000  0.4609090000000 1.0
C      1  0.5658340000000  0.5497710000000  0.5388650000000 1.0
C      1  0.4464390000000  0.5489790000000  0.5430870000000 1.0
C      1  0.5833070000000  0.4964840000000  0.4901480000000 1.0
C      1  0.5630980000000  0.5059200000000  0.5539570000000 1.0
C      1  0.5177390000000  0.4256400000000  0.5283830000000 1.0
C      1  0.5018870000000  0.5373680000000  0.4846280000000 1.0
C      1  0.5421660000000  0.5227740000000  0.5674180000000 1.0
C      1  0.4403980000000  0.5333820000000  0.4941860000000 1.0
C      1  0.4446840000000  0.5176860000000  0.4479040000000 1.0
C      1  0.5210200000000  0.4227300000000  0.4974150000000 1.0
C      1  0.5293600000000  0.4725050000000  0.5485550000000 1.0
C      1  0.4509640000000  0.4857820000000  0.4892710000000 1.0
END
