TITL C-132772-1497-5 978.78660702871 125000 -748.686557652631 0 0 113 (C2v) n - 1
REM
REM in /rds/project/t2_vol4/rds-t2-cs072/BORA/CARBON/from-Arr/AIRSS/Generating-Clusters/GAP-ML-2020/Higher-Symm/SD-CG/HFTN-CG
REM
REM
REM
REM
REM
REM ./C.cell (b20cbc046b6831c77cfcea5457e17084)
REM AIRSS Version 0.9.1 bugfix July 2018 build 013d7b7c2542+ Fri, 06 Jul 2018 19:26:36 +0100
REM compiler GCC version 9.3.0
REM options -cpp -mtune=generic -march=x86-64 -g -O0
REM seed 98241360 1157169029 2007388662 1093751853 332912081 676123413 451770913 318966538 -1912345014 -721500261 -1802868677 -1957054629 270669975 235856035 1981948917 -146758315 -123119744 -595807276 -1822625288 -420213735 -1623904966 -1119253972 -163147664 59431103 2017500016 1146795011 1333222010 -1669195996 -1767074438 -1198380292 -1917646929 558180922 752074051
REM
CELL 1.54180   50.00000   50.00000   50.00000   90.00000   90.00000   90.00000
LATT -1
SFAC C  
C      1  0.5143130000000  0.5142150000000  0.5503740000000 1.0
C      1  0.4847770000000  0.5142160000000  0.4494750000000 1.0
C      1  0.5153930000000  0.4842500000000  0.5550380000000 1.0
C      1  0.4836870000000  0.4842520000000  0.4448120000000 1.0
C      1  0.5143310000000  0.5142120000000  0.4494800000000 1.0
C      1  0.4847590000000  0.5142190000000  0.5503690000000 1.0
C      1  0.5154130000000  0.4842460000000  0.4448180000000 1.0
C      1  0.4836680000000  0.4842550000000  0.5550320000000 1.0
C      1  0.4619450000000  0.5247970000000  0.4050370000000 1.0
C      1  0.5371480000000  0.5247910000000  0.5948120000000 1.0
C      1  0.4612350000000  0.4991500000000  0.4035130000000 1.0
C      1  0.5378490000000  0.4991440000000  0.5963370000000 1.0
C      1  0.4619110000000  0.5248020000000  0.5947980000000 1.0
C      1  0.5371820000000  0.5247850000000  0.4050500000000 1.0
C      1  0.4612010000000  0.4991550000000  0.5963230000000 1.0
C      1  0.5378840000000  0.4991380000000  0.4035270000000 1.0
C      1  0.4753950000000  0.4716010000000  0.5300190000000 1.0
C      1  0.5236810000000  0.4715920000000  0.4698330000000 1.0
C      1  0.4783230000000  0.5239460000000  0.5226270000000 1.0
C      1  0.5207690000000  0.5239380000000  0.4772220000000 1.0
C      1  0.4754060000000  0.4715990000000  0.4698240000000 1.0
C      1  0.5236700000000  0.4715930000000  0.5300270000000 1.0
C      1  0.4783320000000  0.5239450000000  0.4772140000000 1.0
C      1  0.5207610000000  0.5239390000000  0.5226340000000 1.0
C      1  0.5458280000000  0.4826050000000  0.4844910000000 1.0
C      1  0.4532520000000  0.4826200000000  0.5153600000000 1.0
C      1  0.5469160000000  0.5142330000000  0.4854410000000 1.0
C      1  0.4521740000000  0.5142480000000  0.5144070000000 1.0
C      1  0.5458220000000  0.4826050000000  0.5153760000000 1.0
C      1  0.4532570000000  0.4826190000000  0.4844740000000 1.0
C      1  0.5469100000000  0.5142340000000  0.5144240000000 1.0
C      1  0.4521790000000  0.5142480000000  0.4854240000000 1.0
C      1  0.5584540000000  0.4195750000000  0.4671000000000 1.0
C      1  0.4406060000000  0.4195950000000  0.5327540000000 1.0
C      1  0.5652090000000  0.5779230000000  0.4712180000000 1.0
C      1  0.4339010000000  0.5779460000000  0.5286270000000 1.0
C      1  0.5584420000000  0.4195760000000  0.5327750000000 1.0
C      1  0.4406180000000  0.4195930000000  0.4670790000000 1.0
C      1  0.5651980000000  0.5779250000000  0.5286510000000 1.0
C      1  0.4339110000000  0.5779440000000  0.4711940000000 1.0
C      1  0.5388250000000  0.5791410000000  0.5363500000000 1.0
C      1  0.4602850000000  0.5791520000000  0.4634950000000 1.0
C      1  0.5329170000000  0.4106560000000  0.5382520000000 1.0
C      1  0.4661400000000  0.4106640000000  0.4616030000000 1.0
C      1  0.5388380000000  0.5791390000000  0.4635090000000 1.0
C      1  0.4602720000000  0.5791530000000  0.5363360000000 1.0
C      1  0.5329310000000  0.4106540000000  0.4616150000000 1.0
C      1  0.4661260000000  0.4106660000000  0.5382400000000 1.0
C      1  0.5301520000000  0.5577370000000  0.5532520000000 1.0
C      1  0.4689520000000  0.5577430000000  0.4465940000000 1.0
C      1  0.5139020000000  0.4272890000000  0.5542420000000 1.0
C      1  0.4851610000000  0.4272910000000  0.4456120000000 1.0
C      1  0.5301710000000  0.5577330000000  0.4466050000000 1.0
C      1  0.4689330000000  0.5577460000000  0.5532420000000 1.0
C      1  0.5139210000000  0.4272870000000  0.4456170000000 1.0
C      1  0.4851410000000  0.4272940000000  0.5542370000000 1.0
C      1  0.4839900000000  0.5788870000000  0.5148070000000 1.0
C      1  0.5151200000000  0.5788810000000  0.4850380000000 1.0
C      1  0.4840030000000  0.4161180000000  0.5141090000000 1.0
C      1  0.5150560000000  0.4161120000000  0.4857460000000 1.0
C      1  0.4839950000000  0.5788860000000  0.4850330000000 1.0
C      1  0.5151150000000  0.5788820000000  0.5148120000000 1.0
C      1  0.4840080000000  0.4161170000000  0.4857400000000 1.0
C      1  0.5150510000000  0.4161130000000  0.5141140000000 1.0
C      1  0.5712280000000  0.4361430000000  0.5158500000000 1.0
C      1  0.4278370000000  0.4361640000000  0.4840030000000 1.0
C      1  0.5830280000000  0.5628070000000  0.5154160000000 1.0
C      1  0.4160770000000  0.5628320000000  0.4844300000000 1.0
C      1  0.5712340000000  0.4361420000000  0.4840290000000 1.0
C      1  0.4278310000000  0.4361650000000  0.5158240000000 1.0
C      1  0.5830330000000  0.5628060000000  0.4844600000000 1.0
C      1  0.4160710000000  0.5628330000000  0.5153860000000 1.0
C      1  0.4851480000000  0.4453810000000  0.4717100000000 1.0
C      1  0.5139200000000  0.4453780000000  0.5281430000000 1.0
C      1  0.4851600000000  0.5515020000000  0.4696260000000 1.0
C      1  0.5139420000000  0.5514990000000  0.5302210000000 1.0
C      1  0.4851380000000  0.4453830000000  0.5281380000000 1.0
C      1  0.5139310000000  0.4453760000000  0.4717150000000 1.0
C      1  0.4851490000000  0.5515030000000  0.5302160000000 1.0
C      1  0.5139530000000  0.5514970000000  0.4696310000000 1.0
C      1  0.4256350000000  0.5162840000000  0.5293830000000 1.0
C      1  0.5734550000000  0.5162580000000  0.4704660000000 1.0
C      1  0.4265740000000  0.4846600000000  0.5314340000000 1.0
C      1  0.5725070000000  0.4846350000000  0.4684170000000 1.0
C      1  0.4256460000000  0.5162820000000  0.4704400000000 1.0
C      1  0.5734440000000  0.5162600000000  0.5294090000000 1.0
C      1  0.4265850000000  0.4846580000000  0.4683910000000 1.0
C      1  0.5724950000000  0.4846370000000  0.5314600000000 1.0
C      1  0.5634580000000  0.5174610000000  0.4424890000000 1.0
C      1  0.4356330000000  0.5174850000000  0.5573600000000 1.0
C      1  0.5622680000000  0.4891970000000  0.4398530000000 1.0
C      1  0.4368140000000  0.4892210000000  0.5599970000000 1.0
C      1  0.5634370000000  0.5174650000000  0.5573830000000 1.0
C      1  0.4356540000000  0.5174810000000  0.4424660000000 1.0
C      1  0.5622470000000  0.4892010000000  0.5600190000000 1.0
C      1  0.4368350000000  0.4892170000000  0.4398310000000 1.0
C      1  0.4607330000000  0.4801800000000  0.5749800000000 1.0
C      1  0.5383460000000  0.4801640000000  0.4248710000000 1.0
C      1  0.4610490000000  0.5329290000000  0.5664570000000 1.0
C      1  0.5380460000000  0.5329130000000  0.4333910000000 1.0
C      1  0.4607600000000  0.4801760000000  0.4248570000000 1.0
C      1  0.5383190000000  0.4801680000000  0.5749940000000 1.0
C      1  0.4610730000000  0.5329260000000  0.4333770000000 1.0
C      1  0.5380230000000  0.5329170000000  0.5664710000000 1.0
C      1  0.4083800000000  0.5345200000000  0.4850390000000 1.0
C      1  0.5907160000000  0.5344920000000  0.5148090000000 1.0
C      1  0.4160700000000  0.4630490000000  0.4844970000000 1.0
C      1  0.5830030000000  0.4630240000000  0.5153550000000 1.0
C      1  0.4083750000000  0.5345200000000  0.5147760000000 1.0
C      1  0.5907220000000  0.5344910000000  0.4850720000000 1.0
C      1  0.4160650000000  0.4630500000000  0.5153250000000 1.0
C      1  0.5830080000000  0.4630230000000  0.4845270000000 1.0
C      1  0.4995450000000  0.5181950000000  0.4999240000000 1.0
END
