TITL C-131480-8529-4 -136.592689550452 125000 -61.7207459749867 0 0 10 (C2v) n - 1
REM
REM in /rds/project/t2_vol4/rds-t2-cs072/BORA/CARBON/from-Arr/AIRSS/Generating-Clusters/GAP-ML-2020/Higher-Symm/SD-CG/HFTN-CG
REM
REM
REM
REM
REM
REM ./C.cell (b20cbc046b6831c77cfcea5457e17084)
REM AIRSS Version 0.9.1 bugfix July 2018 build 013d7b7c2542+ Fri, 06 Jul 2018 19:26:36 +0100
REM compiler GCC version 9.3.0
REM options -cpp -mtune=generic -march=x86-64 -g -O0
REM seed 553399648 448978452 -1818089844 336969536 -522930573 1924609713 -1506912935 -2100955424 -1255870094 1185940534 -1858768171 -725718870 169988309 536732130 805832147 1999671748 -683332005 1410569373 -939953128 -759813876 407846583 1683999943 -1544030956 1037449832 1275987010 1811725921 2016830769 852886140 -2096714124 -1242639196 1885578745 -1671393887 -1938457329
REM
CELL 1.54180   50.00000   50.00000   50.00000   90.00000   90.00000   90.00000
LATT -1
SFAC C  
C      1  0.5192370000000  0.5303330000000  0.4962640000000 1.0
C      1  0.5148170000000  0.5289070000000  0.5229410000000 1.0
C      1  0.4873640000000  0.5295220000000  0.5198400000000 1.0
C      1  0.4890700000000  0.5310090000000  0.4928560000000 1.0
C      1  0.5178120000000  0.4764220000000  0.4981800000000 1.0
C      1  0.5135230000000  0.4799680000000  0.5246800000000 1.0
C      1  0.4860700000000  0.4805830000000  0.5215790000000 1.0
C      1  0.4876450000000  0.4770980000000  0.4947730000000 1.0
C      1  0.5058690000000  0.5169760000000  0.4766610000000 1.0
C      1  0.5051300000000  0.4890400000000  0.4776540000000 1.0
END
