TITL C-132104-1242-5 -6.10340370498916 125000 -421.169203721643 0 0 61 (C1) n - 1
REM
REM in /rds/project/t2_vol4/rds-t2-cs072/BORA/CARBON/from-Arr/AIRSS/Generating-Clusters/GAP-ML-2020/Higher-Symm/SD-CG/HFTN-CG
REM
REM
REM
REM
REM
REM ./C.cell (b20cbc046b6831c77cfcea5457e17084)
REM AIRSS Version 0.9.1 bugfix July 2018 build 013d7b7c2542+ Fri, 06 Jul 2018 19:26:36 +0100
REM compiler GCC version 9.3.0
REM options -cpp -mtune=generic -march=x86-64 -g -O0
REM seed 981510861 1859848742 -754978282 281080117 948973607 -1992245701 -333842809 -945323896 -1189556849 -262064778 -430398461 -568740056 1405557255 -1892368978 -1410865596 1095729936 -363491918 239971035 957362650 174160280 -573387839 1743728053 595479115 498914944 -589835397 1581259805 1667480479 1757155594 -1216603477 820512259 -1584981058 605816385 -524242489
REM
CELL 1.54180   50.00000   50.00000   50.00000   90.00000   90.00000   90.00000
LATT -1
SFAC C  
C      1  0.4360880000000  0.5162550000000  0.4550580000000 1.0
C      1  0.4353330000000  0.4527820000000  0.5052990000000 1.0
C      1  0.4336280000000  0.5162150000000  0.5299220000000 1.0
C      1  0.4455960000000  0.5557260000000  0.4658610000000 1.0
C      1  0.4517120000000  0.4446980000000  0.4626450000000 1.0
C      1  0.4471120000000  0.4961320000000  0.5629380000000 1.0
C      1  0.5401250000000  0.4626160000000  0.5018330000000 1.0
C      1  0.5377480000000  0.5243040000000  0.5318330000000 1.0
C      1  0.5390830000000  0.5198950000000  0.4640420000000 1.0
C      1  0.4708960000000  0.5465130000000  0.5132410000000 1.0
C      1  0.4749760000000  0.4899200000000  0.4417730000000 1.0
C      1  0.4739280000000  0.4576300000000  0.5354020000000 1.0
C      1  0.5541190000000  0.4976600000000  0.4736400000000 1.0
C      1  0.5540860000000  0.4825360000000  0.5169170000000 1.0
C      1  0.5528250000000  0.5278760000000  0.5080630000000 1.0
C      1  0.5151210000000  0.5429170000000  0.5279670000000 1.0
C      1  0.5179190000000  0.5069850000000  0.4484550000000 1.0
C      1  0.5183020000000  0.4549810000000  0.5200670000000 1.0
C      1  0.4478660000000  0.5252500000000  0.5052470000000 1.0
C      1  0.4462170000000  0.4906970000000  0.4486470000000 1.0
C      1  0.4450970000000  0.4625220000000  0.5298250000000 1.0
C      1  0.4339850000000  0.4869140000000  0.5394940000000 1.0
C      1  0.4336460000000  0.5334990000000  0.4798410000000 1.0
C      1  0.4358930000000  0.4679980000000  0.4615340000000 1.0
C      1  0.5386670000000  0.4941970000000  0.5379950000000 1.0
C      1  0.5381710000000  0.5397120000000  0.4866580000000 1.0
C      1  0.5402330000000  0.4729050000000  0.4729650000000 1.0
C      1  0.4480980000000  0.5379760000000  0.4419890000000 1.0
C      1  0.4513710000000  0.4349510000000  0.4903560000000 1.0
C      1  0.4454140000000  0.5244410000000  0.5548780000000 1.0
C      1  0.5152770000000  0.5520380000000  0.5002470000000 1.0
C      1  0.5189060000000  0.4783520000000  0.4534400000000 1.0
C      1  0.5173160000000  0.4742950000000  0.5419320000000 1.0
C      1  0.4871980000000  0.5422930000000  0.5368270000000 1.0
C      1  0.4908520000000  0.5139780000000  0.4407490000000 1.0
C      1  0.4916960000000  0.4444190000000  0.5161410000000 1.0
C      1  0.4899220000000  0.4758690000000  0.5512480000000 1.0
C      1  0.4875250000000  0.5572430000000  0.4922610000000 1.0
C      1  0.4923520000000  0.4676650000000  0.4490680000000 1.0
C      1  0.4804310000000  0.4456410000000  0.4628890000000 1.0
C      1  0.4758940000000  0.4972310000000  0.5638410000000 1.0
C      1  0.4748160000000  0.5579090000000  0.4667990000000 1.0
C      1  0.4800820000000  0.4355810000000  0.4916730000000 1.0
C      1  0.4744440000000  0.5268060000000  0.5569890000000 1.0
C      1  0.4768980000000  0.5389090000000  0.4434790000000 1.0
C      1  0.3630270000000  0.5166770000000  0.5089890000000 1.0
C      1  0.5698840000000  0.5031180000000  0.4997360000000 1.0
C      1  0.4027060000000  0.4894100000000  0.4926510000000 1.0
C      1  0.7266810000000  0.5082570000000  0.5014970000000 1.0
C      1  0.4855760000000  0.4938200000000  0.5036500000000 1.0
C      1  0.6500910000000  0.5056990000000  0.5006310000000 1.0
C      1  0.7013190000000  0.5073970000000  0.5012150000000 1.0
C      1  0.3156730000000  0.5341180000000  0.5157980000000 1.0
C      1  0.6749830000000  0.5065210000000  0.5009120000000 1.0
C      1  0.4205890000000  0.4704220000000  0.4865050000000 1.0
C      1  0.5097400000000  0.5009090000000  0.4986530000000 1.0
C      1  0.3840330000000  0.5041760000000  0.5020880000000 1.0
C      1  0.5988540000000  0.5039230000000  0.5000800000000 1.0
C      1  0.3397610000000  0.5263930000000  0.5131470000000 1.0
C      1  0.4624590000000  0.5018350000000  0.4949540000000 1.0
C      1  0.6235950000000  0.5048790000000  0.5002650000000 1.0
END
