TITL C-132788-1284-6 10.8287740484096 125000 -418.630701880482 0 0 64 (C2) n - 1
REM
REM in /rds/project/t2_vol4/rds-t2-cs072/BORA/CARBON/from-Arr/AIRSS/Generating-Clusters/GAP-ML-2020/Higher-Symm/SD-CG/HFTN-CG
REM
REM
REM
REM
REM
REM ./C.cell (b20cbc046b6831c77cfcea5457e17084)
REM AIRSS Version 0.9.1 bugfix July 2018 build 013d7b7c2542+ Fri, 06 Jul 2018 19:26:36 +0100
REM compiler GCC version 9.3.0
REM options -cpp -mtune=generic -march=x86-64 -g -O0
REM seed -772824645 -236774200 -1989528104 -435323687 -1627159712 2048950286 -1197883186 18188322 -1715543175 -1595995335 99357152 -422377325 45307500 2125244079 1344070380 -1852240434 2003656276 173071072 1483098402 -890289504 -1139482859 895693385 -1709576014 1547659114 -50108816 402879008 617489636 -1235667921 -1483850500 1918201260 1695965062 -977069410 -1410013345
REM
CELL 1.54180   50.00000   50.00000   50.00000   90.00000   90.00000   90.00000
LATT -1
SFAC C  
C      1  0.4881610000000  0.5642460000000  0.5144410000000 1.0
C      1  0.4881610000000  0.4357540000000  0.4855590000000 1.0
C      1  0.5465180000000  0.5337670000000  0.4884830000000 1.0
C      1  0.5465190000000  0.4662330000000  0.5115160000000 1.0
C      1  0.5029470000000  0.4907470000000  0.5302480000000 1.0
C      1  0.5029460000000  0.5092530000000  0.4697520000000 1.0
C      1  0.4822620000000  0.4854860000000  0.5510850000000 1.0
C      1  0.4822610000000  0.5145140000000  0.4489150000000 1.0
C      1  0.5337800000000  0.4614260000000  0.5563040000000 1.0
C      1  0.5337780000000  0.5385740000000  0.4436950000000 1.0
C      1  0.5502750000000  0.4800030000000  0.5374690000000 1.0
C      1  0.5502740000000  0.5199970000000  0.4625300000000 1.0
C      1  0.5525430000000  0.5086370000000  0.5306060000000 1.0
C      1  0.5525430000000  0.4913630000000  0.4693930000000 1.0
C      1  0.5211190000000  0.4495230000000  0.4636550000000 1.0
C      1  0.5211200000000  0.5504780000000  0.5363450000000 1.0
C      1  0.4578960000000  0.4943150000000  0.5365090000000 1.0
C      1  0.4578950000000  0.5056840000000  0.4634920000000 1.0
C      1  0.4348330000000  0.4843770000000  0.4972670000000 1.0
C      1  0.4348330000000  0.5156230000000  0.5027340000000 1.0
C      1  0.4656860000000  0.4441740000000  0.5337080000000 1.0
C      1  0.4656840000000  0.5558250000000  0.4662930000000 1.0
C      1  0.4987490000000  0.5178580000000  0.5177830000000 1.0
C      1  0.4987490000000  0.4821420000000  0.4822170000000 1.0
C      1  0.5740180000000  0.4898930000000  0.4902810000000 1.0
C      1  0.5740180000000  0.5101080000000  0.5097170000000 1.0
C      1  0.4921910000000  0.4566800000000  0.4641560000000 1.0
C      1  0.4921920000000  0.5433200000000  0.5358440000000 1.0
C      1  0.4917870000000  0.4892750000000  0.4329570000000 1.0
C      1  0.4917880000000  0.5107250000000  0.5670430000000 1.0
C      1  0.5004150000000  0.4703700000000  0.5093610000000 1.0
C      1  0.5004140000000  0.5296300000000  0.4906390000000 1.0
C      1  0.4866260000000  0.4549470000000  0.5507020000000 1.0
C      1  0.4866250000000  0.5450520000000  0.4492980000000 1.0
C      1  0.5367870000000  0.5295560000000  0.5480200000000 1.0
C      1  0.5367870000000  0.4704440000000  0.4519790000000 1.0
C      1  0.4488320000000  0.5210000000000  0.5479370000000 1.0
C      1  0.4488310000000  0.4789990000000  0.4520640000000 1.0
C      1  0.4784000000000  0.4488660000000  0.5086510000000 1.0
C      1  0.4784000000000  0.5511340000000  0.4913490000000 1.0
C      1  0.5226430000000  0.5513340000000  0.4859330000000 1.0
C      1  0.5226440000000  0.4486660000000  0.5140670000000 1.0
C      1  0.5264130000000  0.5131170000000  0.4483450000000 1.0
C      1  0.5264140000000  0.4868840000000  0.5516550000000 1.0
C      1  0.5714370000000  0.4646690000000  0.4979030000000 1.0
C      1  0.5714370000000  0.5353320000000  0.5020950000000 1.0
C      1  0.5170270000000  0.5656890000000  0.5119470000000 1.0
C      1  0.5170270000000  0.4343110000000  0.4880530000000 1.0
C      1  0.5327990000000  0.5120780000000  0.5074820000000 1.0
C      1  0.5327990000000  0.4879230000000  0.4925180000000 1.0
C      1  0.4677240000000  0.5079690000000  0.5115160000000 1.0
C      1  0.4677240000000  0.4920300000000  0.4884850000000 1.0
C      1  0.5208790000000  0.5123020000000  0.5644680000000 1.0
C      1  0.5208770000000  0.4876980000000  0.4355320000000 1.0
C      1  0.4386420000000  0.5508320000000  0.4632600000000 1.0
C      1  0.4386430000000  0.4491670000000  0.5367420000000 1.0
C      1  0.4388870000000  0.5261490000000  0.4750730000000 1.0
C      1  0.4388880000000  0.4738510000000  0.5249280000000 1.0
C      1  0.5141010000000  0.4461180000000  0.5432160000000 1.0
C      1  0.5140990000000  0.5538820000000  0.4567840000000 1.0
C      1  0.4755560000000  0.5315490000000  0.5573250000000 1.0
C      1  0.4755550000000  0.4684510000000  0.4426750000000 1.0
C      1  0.4300710000000  0.5273980000000  0.5286910000000 1.0
C      1  0.4300710000000  0.4726010000000  0.4713100000000 1.0
END
