TITL C-132117-1609-2 42.9906276263883 125000 -214.101533719781 0 0 33 (C1) n - 1
REM
REM in /rds/project/t2_vol4/rds-t2-cs072/BORA/CARBON/from-Arr/AIRSS/Generating-Clusters/GAP-ML-2020/Higher-Symm/SD-CG/HFTN-CG
REM
REM
REM
REM
REM
REM ./C.cell (b20cbc046b6831c77cfcea5457e17084)
REM AIRSS Version 0.9.1 bugfix July 2018 build 013d7b7c2542+ Fri, 06 Jul 2018 19:26:36 +0100
REM compiler GCC version 9.3.0
REM options -cpp -mtune=generic -march=x86-64 -g -O0
REM seed -421581199 -2106389569 -591628338 28687208 -1057410918 2108014027 -1231418423 1110615771 -576682441 47419341 1003411956 528884189 -632216112 1028290932 906724944 1035912202 551885971 -1733019721 667702729 598341285 575163890 957755973 1943865422 -1422823311 400942711 -2007802011 -65538731 1251310660 -1056316863 1052114955 -1876748087 -1167540015 -1999473490
REM
CELL 1.54180   50.00000   50.00000   50.00000   90.00000   90.00000   90.00000
LATT -1
SFAC C  
C      1  0.5142370000000  0.5291480000000  0.5438470000000 1.0
C      1  0.4813660000000  0.4660580000000  0.4626070000000 1.0
C      1  0.5428840000000  0.4678770000000  0.4927630000000 1.0
C      1  0.4568390000000  0.5302860000000  0.5097670000000 1.0
C      1  0.5382580000000  0.4406280000000  0.4845860000000 1.0
C      1  0.4709910000000  0.5539180000000  0.5135510000000 1.0
C      1  0.5495080000000  0.5301980000000  0.4904560000000 1.0
C      1  0.4480590000000  0.4663920000000  0.5127300000000 1.0
C      1  0.5175600000000  0.4785480000000  0.5368880000000 1.0
C      1  0.4803060000000  0.5191870000000  0.4656570000000 1.0
C      1  0.4362800000000  0.4732160000000  0.4888110000000 1.0
C      1  0.5620800000000  0.5208680000000  0.5129390000000 1.0
C      1  0.4711470000000  0.4918540000000  0.5437560000000 1.0
C      1  0.5272280000000  0.5263400000000  0.4508240000000 1.0
C      1  0.5129870000000  0.4396320000000  0.4846650000000 1.0
C      1  0.4910170000000  0.5677550000000  0.5206090000000 1.0
C      1  0.4903460000000  0.4726900000000  0.5331420000000 1.0
C      1  0.5057810000000  0.5310670000000  0.4682010000000 1.0
C      1  0.4442430000000  0.4859670000000  0.5339510000000 1.0
C      1  0.5474760000000  0.5134110000000  0.4655410000000 1.0
C      1  0.4572680000000  0.5201210000000  0.4833070000000 1.0
C      1  0.5410550000000  0.4756320000000  0.5200150000000 1.0
C      1  0.4763980000000  0.4594680000000  0.5114010000000 1.0
C      1  0.5204750000000  0.5342550000000  0.4959670000000 1.0
C      1  0.5516340000000  0.5013030000000  0.5284000000000 1.0
C      1  0.4478860000000  0.4937460000000  0.4758230000000 1.0
C      1  0.5334460000000  0.4909320000000  0.4781810000000 1.0
C      1  0.4544430000000  0.5109360000000  0.5307730000000 1.0
C      1  0.5273430000000  0.5055030000000  0.5450100000000 1.0
C      1  0.4722160000000  0.4909900000000  0.4581340000000 1.0
C      1  0.5110640000000  0.5465100000000  0.5226570000000 1.0
C      1  0.4879810000000  0.4516060000000  0.4853360000000 1.0
C      1  0.5155750000000  0.5053230000000  0.4957130000000 1.0
END
