TITL C-133515-5407-7 0.0771572985817541 125000 -127.676259197401 0 0 20 (C1) n - 1
REM
REM in /rds/project/t2_vol4/rds-t2-cs072/BORA/CARBON/from-Arr/AIRSS/Generating-Clusters/GAP-ML-2020/Higher-Symm/SD-CG/HFTN-CG
REM
REM
REM
REM
REM
REM ./C.cell (b20cbc046b6831c77cfcea5457e17084)
REM AIRSS Version 0.9.1 bugfix July 2018 build 013d7b7c2542+ Fri, 06 Jul 2018 19:26:36 +0100
REM compiler GCC version 9.3.0
REM options -cpp -mtune=generic -march=x86-64 -g -O0
REM seed 1689676950 1208652165 -793565052 1805261901 -255975125 -577927298 -64163764 -731426355 1738933536 -2119204919 1874924436 91936721 -1170855694 -1434714164 1530208587 1848434402 1789542968 2077942326 1784941521 1595959671 555801882 -491051052 1116223201 699719101 721371869 844263296 1162849255 2095205203 699173201 1532117817 -1258658734 1337397383 500931549
REM
CELL 1.54180   50.00000   50.00000   50.00000   90.00000   90.00000   90.00000
LATT -1
SFAC C  
C      1  0.4423920000000  0.4674660000000  0.5298530000000 1.0
C      1  0.4719920000000  0.4913350000000  0.4684290000000 1.0
C      1  0.5145200000000  0.4810550000000  0.5497480000000 1.0
C      1  0.4786140000000  0.4763530000000  0.4922000000000 1.0
C      1  0.5254350000000  0.4834670000000  0.4783130000000 1.0
C      1  0.5070070000000  0.4737780000000  0.4978670000000 1.0
C      1  0.4733720000000  0.5189140000000  0.4589220000000 1.0
C      1  0.4766520000000  0.5455900000000  0.4613090000000 1.0
C      1  0.5364610000000  0.5087920000000  0.4754880000000 1.0
C      1  0.4990580000000  0.5521260000000  0.4731800000000 1.0
C      1  0.5391740000000  0.5217240000000  0.5223750000000 1.0
C      1  0.5177240000000  0.4995530000000  0.4568110000000 1.0
C      1  0.5206150000000  0.5516650000000  0.4865100000000 1.0
C      1  0.4598000000000  0.4699570000000  0.5116750000000 1.0
C      1  0.5319480000000  0.4983700000000  0.5332300000000 1.0
C      1  0.5197920000000  0.4754320000000  0.5229020000000 1.0
C      1  0.4683760000000  0.4762500000000  0.5723460000000 1.0
C      1  0.4908640000000  0.4988210000000  0.4492920000000 1.0
C      1  0.4919710000000  0.4799960000000  0.5637300000000 1.0
C      1  0.5342330000000  0.5293570000000  0.4958190000000 1.0
END
