TITL C-131481-2203-2 -0.174776217545533 125000 -446.258685134766 0 0 69 (C2v) n - 1
REM
REM in /rds/project/t2_vol4/rds-t2-cs072/BORA/CARBON/from-Arr/AIRSS/Generating-Clusters/GAP-ML-2020/Higher-Symm/SD-CG/HFTN-CG
REM
REM
REM
REM
REM
REM ./C.cell (b20cbc046b6831c77cfcea5457e17084)
REM AIRSS Version 0.9.1 bugfix July 2018 build 013d7b7c2542+ Fri, 06 Jul 2018 19:26:36 +0100
REM compiler GCC version 9.3.0
REM options -cpp -mtune=generic -march=x86-64 -g -O0
REM seed 844092664 1093868231 1458643697 1851822916 -1227733320 493513194 1448646244 1437718590 -197189947 1349976339 -867273598 1957300026 1327549005 -362333653 311651544 -1673674641 633739283 345824558 350639942 -501048035 -1841745993 1287267207 1757018454 -714320633 -302222280 1951664868 -817256152 1076199472 587952416 -317400827 942582223 1544352897 976633796
REM
CELL 1.54180   50.00000   50.00000   50.00000   90.00000   90.00000   90.00000
LATT -1
SFAC C  
C      1  0.4544160000000  0.4410420000000  0.5359250000000 1.0
C      1  0.5367790000000  0.4533080000000  0.4404600000000 1.0
C      1  0.4407370000000  0.5361270000000  0.4532430000000 1.0
C      1  0.4537510000000  0.5589020000000  0.4628270000000 1.0
C      1  0.5455240000000  0.5586720000000  0.5358830000000 1.0
C      1  0.5465450000000  0.4404830000000  0.4633220000000 1.0
C      1  0.5363070000000  0.5461290000000  0.5590260000000 1.0
C      1  0.4636290000000  0.5459740000000  0.4400720000000 1.0
C      1  0.4635190000000  0.4536890000000  0.5590560000000 1.0
C      1  0.4410040000000  0.4632960000000  0.5455560000000 1.0
C      1  0.5596070000000  0.4632150000000  0.4536990000000 1.0
C      1  0.5588880000000  0.5364610000000  0.5456800000000 1.0
C      1  0.5456230000000  0.4411200000000  0.5361490000000 1.0
C      1  0.4637070000000  0.4532460000000  0.4402810000000 1.0
C      1  0.5595450000000  0.5362280000000  0.4535340000000 1.0
C      1  0.5464450000000  0.5589810000000  0.4630540000000 1.0
C      1  0.4543160000000  0.5585940000000  0.5356600000000 1.0
C      1  0.4538510000000  0.4404040000000  0.4630950000000 1.0
C      1  0.4634410000000  0.5460670000000  0.5588480000000 1.0
C      1  0.5367010000000  0.5460370000000  0.4402510000000 1.0
C      1  0.5363850000000  0.4537510000000  0.5592340000000 1.0
C      1  0.5589500000000  0.4633970000000  0.5458450000000 1.0
C      1  0.4407980000000  0.4631140000000  0.4534080000000 1.0
C      1  0.4409420000000  0.5363610000000  0.5453910000000 1.0
C      1  0.4479360000000  0.5145270000000  0.5258760000000 1.0
C      1  0.5254150000000  0.4480910000000  0.5147820000000 1.0
C      1  0.5151210000000  0.5256160000000  0.4465710000000 1.0
C      1  0.4475520000000  0.4847880000000  0.4734980000000 1.0
C      1  0.5520510000000  0.4851420000000  0.5261970000000 1.0
C      1  0.5526930000000  0.5146450000000  0.4736890000000 1.0
C      1  0.5259480000000  0.5519780000000  0.4846550000000 1.0
C      1  0.4746290000000  0.5515260000000  0.5144240000000 1.0
C      1  0.4742430000000  0.4475050000000  0.4847650000000 1.0
C      1  0.5149950000000  0.4736880000000  0.5539720000000 1.0
C      1  0.4852560000000  0.4736940000000  0.4466150000000 1.0
C      1  0.4848560000000  0.5261070000000  0.5537800000000 1.0
C      1  0.5520270000000  0.5146150000000  0.5261310000000 1.0
C      1  0.4747160000000  0.4480480000000  0.5146580000000 1.0
C      1  0.4852130000000  0.5255910000000  0.4464980000000 1.0
C      1  0.5527180000000  0.4848770000000  0.4737560000000 1.0
C      1  0.4479610000000  0.4850540000000  0.5259430000000 1.0
C      1  0.4475270000000  0.5145550000000  0.4734310000000 1.0
C      1  0.4741540000000  0.5519340000000  0.4845290000000 1.0
C      1  0.5253280000000  0.5515690000000  0.5145480000000 1.0
C      1  0.5260360000000  0.4475490000000  0.4848910000000 1.0
C      1  0.4849010000000  0.4736620000000  0.5538980000000 1.0
C      1  0.5151640000000  0.4737200000000  0.4466890000000 1.0
C      1  0.5149510000000  0.5261330000000  0.5538530000000 1.0
C      1  0.5146180000000  0.4996360000000  0.4326930000000 1.0
C      1  0.4343910000000  0.5141800000000  0.4997720000000 1.0
C      1  0.5000790000000  0.4335500000000  0.5141470000000 1.0
C      1  0.5143250000000  0.4999410000000  0.5679250000000 1.0
C      1  0.4858270000000  0.4996120000000  0.4326220000000 1.0
C      1  0.4854580000000  0.4999170000000  0.5678540000000 1.0
C      1  0.4344160000000  0.4852600000000  0.4998380000000 1.0
C      1  0.5657240000000  0.4853710000000  0.5001590000000 1.0
C      1  0.5657000000000  0.5142920000000  0.5000940000000 1.0
C      1  0.5000380000000  0.5658860000000  0.4850350000000 1.0
C      1  0.4999670000000  0.5660650000000  0.5138480000000 1.0
C      1  0.5001500000000  0.4335990000000  0.4853330000000 1.0
C      1  0.4779370000000  0.5219950000000  0.5243550000000 1.0
C      1  0.5238360000000  0.4762410000000  0.4753180000000 1.0
C      1  0.5220580000000  0.4776680000000  0.5245630000000 1.0
C      1  0.4764000000000  0.5231980000000  0.4750960000000 1.0
C      1  0.5237970000000  0.5232390000000  0.4752120000000 1.0
C      1  0.4764400000000  0.4762010000000  0.4752020000000 1.0
C      1  0.4779750000000  0.4776300000000  0.5244550000000 1.0
C      1  0.5220210000000  0.5220320000000  0.5244630000000 1.0
C      1  0.5000180000000  0.4998130000000  0.5162940000000 1.0
END
