TITL C-131483-8553-4 -0.128675539174917 125000 -693.566124335511 0 0 101 (C1) n - 1
REM
REM in /rds/project/t2_vol4/rds-t2-cs072/BORA/CARBON/from-Arr/AIRSS/Generating-Clusters/GAP-ML-2020/Higher-Symm/SD-CG/HFTN-CG
REM
REM
REM
REM
REM
REM ./C.cell (b20cbc046b6831c77cfcea5457e17084)
REM AIRSS Version 0.9.1 bugfix July 2018 build 013d7b7c2542+ Fri, 06 Jul 2018 19:26:36 +0100
REM compiler GCC version 9.3.0
REM options -cpp -mtune=generic -march=x86-64 -g -O0
REM seed -1833727565 2007765817 484754395 1113534829 -345982153 -1937629880 -520918003 124944249 944167704 -1930027033 -1776247152 -884341355 -979061169 1268993287 1219286333 1328876998 -342973898 -2123588627 1563062658 1242702286 1916725290 -228411296 2144481594 -612406525 1253251533 -2026092889 1249466358 -2011744058 1474558756 -97554516 -1758154247 -159185663 -1911507588
REM
CELL 1.54180   50.00000   50.00000   50.00000   90.00000   90.00000   90.00000
LATT -1
SFAC C  
C      1  0.5335530000000  0.4650430000000  0.4176470000000 1.0
C      1  0.5459650000000  0.4917570000000  0.4178500000000 1.0
C      1  0.5263100000000  0.5343120000000  0.4121920000000 1.0
C      1  0.4849030000000  0.5494440000000  0.4122240000000 1.0
C      1  0.4601230000000  0.5323590000000  0.4089010000000 1.0
C      1  0.4698400000000  0.4782280000000  0.4117280000000 1.0
C      1  0.4853460000000  0.4553220000000  0.4145700000000 1.0
C      1  0.4834680000000  0.5277090000000  0.5820140000000 1.0
C      1  0.4676780000000  0.5040990000000  0.5822390000000 1.0
C      1  0.4762810000000  0.4772570000000  0.5813490000000 1.0
C      1  0.5027670000000  0.4681370000000  0.5809840000000 1.0
C      1  0.5269370000000  0.4829960000000  0.5818590000000 1.0
C      1  0.5312730000000  0.5109990000000  0.5819540000000 1.0
C      1  0.5115930000000  0.5310060000000  0.5816730000000 1.0
C      1  0.4522650000000  0.4371600000000  0.4771050000000 1.0
C      1  0.5166980000000  0.4282810000000  0.4777480000000 1.0
C      1  0.5689610000000  0.4717690000000  0.4817820000000 1.0
C      1  0.5674270000000  0.5326390000000  0.4745780000000 1.0
C      1  0.5136870000000  0.5717180000000  0.4729580000000 1.0
C      1  0.4486600000000  0.5567050000000  0.4801820000000 1.0
C      1  0.4259290000000  0.4992610000000  0.4778040000000 1.0
C      1  0.4715850000000  0.4249920000000  0.5270280000000 1.0
C      1  0.5388560000000  0.4341380000000  0.5267890000000 1.0
C      1  0.5782450000000  0.4896450000000  0.5290350000000 1.0
C      1  0.5554550000000  0.5533550000000  0.5246980000000 1.0
C      1  0.4929500000000  0.5760830000000  0.5255400000000 1.0
C      1  0.4342860000000  0.5435440000000  0.5292390000000 1.0
C      1  0.4257360000000  0.4761050000000  0.5275510000000 1.0
C      1  0.4390570000000  0.5060440000000  0.4556350000000 1.0
C      1  0.4578940000000  0.4554980000000  0.4555530000000 1.0
C      1  0.5080340000000  0.4408830000000  0.4541280000000 1.0
C      1  0.5522630000000  0.4714400000000  0.4601190000000 1.0
C      1  0.5532030000000  0.5226190000000  0.4523570000000 1.0
C      1  0.5136650000000  0.5579180000000  0.4483550000000 1.0
C      1  0.4614730000000  0.5496600000000  0.4562670000000 1.0
C      1  0.4611320000000  0.4628220000000  0.5621110000000 1.0
C      1  0.5045700000000  0.4476280000000  0.5614760000000 1.0
C      1  0.5446020000000  0.4716550000000  0.5629230000000 1.0
C      1  0.5511240000000  0.5175980000000  0.5626310000000 1.0
C      1  0.5183630000000  0.5499450000000  0.5614710000000 1.0
C      1  0.4721020000000  0.5455800000000  0.5629610000000 1.0
C      1  0.4463230000000  0.5069020000000  0.5637380000000 1.0
C      1  0.5617170000000  0.4478400000000  0.4934680000000 1.0
C      1  0.5807380000000  0.5148360000000  0.4910840000000 1.0
C      1  0.5371500000000  0.5715750000000  0.4886640000000 1.0
C      1  0.4652210000000  0.5752360000000  0.4926470000000 1.0
C      1  0.4210930000000  0.5209780000000  0.4945390000000 1.0
C      1  0.4338570000000  0.4506250000000  0.4936290000000 1.0
C      1  0.4961560000000  0.4154990000000  0.4920920000000 1.0
C      1  0.4384740000000  0.5738190000000  0.5310820000000 1.0
C      1  0.4030890000000  0.4977560000000  0.5309910000000 1.0
C      1  0.4393410000000  0.4228360000000  0.5320410000000 1.0
C      1  0.5240310000000  0.4077510000000  0.5301790000000 1.0
C      1  0.5870500000000  0.4608770000000  0.5305030000000 1.0
C      1  0.5838410000000  0.5435780000000  0.5270270000000 1.0
C      1  0.5186130000000  0.5927520000000  0.5267580000000 1.0
C      1  0.4688800000000  0.4856510000000  0.4920590000000 1.0
C      1  0.4915210000000  0.4765960000000  0.5083050000000 1.0
C      1  0.5188860000000  0.4745940000000  0.4952190000000 1.0
C      1  0.5319860000000  0.4997760000000  0.5073230000000 1.0
C      1  0.5234640000000  0.5234920000000  0.4904140000000 1.0
C      1  0.4928630000000  0.5323200000000  0.4901550000000 1.0
C      1  0.4736170000000  0.5150510000000  0.5039730000000 1.0
C      1  0.4745440000000  0.4783990000000  0.4637770000000 1.0
C      1  0.5018590000000  0.4681880000000  0.4592130000000 1.0
C      1  0.5251920000000  0.4826020000000  0.4664510000000 1.0
C      1  0.5271410000000  0.5130910000000  0.4627220000000 1.0
C      1  0.5059580000000  0.5287940000000  0.4481510000000 1.0
C      1  0.4810880000000  0.5289310000000  0.4624740000000 1.0
C      1  0.4667270000000  0.5043850000000  0.4499390000000 1.0
C      1  0.5315220000000  0.4482230000000  0.5513840000000 1.0
C      1  0.5620860000000  0.4926840000000  0.5531610000000 1.0
C      1  0.5438760000000  0.5428530000000  0.5499350000000 1.0
C      1  0.4939630000000  0.5606680000000  0.5506110000000 1.0
C      1  0.4474130000000  0.5337550000000  0.5533210000000 1.0
C      1  0.4408100000000  0.4807100000000  0.5519770000000 1.0
C      1  0.4781110000000  0.4424440000000  0.5501840000000 1.0
C      1  0.5889930000000  0.5185570000000  0.5180070000000 1.0
C      1  0.5399950000000  0.5802140000000  0.5157580000000 1.0
C      1  0.4617930000000  0.5823780000000  0.5199670000000 1.0
C      1  0.4107540000000  0.5216100000000  0.5209470000000 1.0
C      1  0.4279760000000  0.4447070000000  0.5207590000000 1.0
C      1  0.4989680000000  0.4099150000000  0.5205240000000 1.0
C      1  0.5692720000000  0.4428350000000  0.5203870000000 1.0
C      1  0.5128970000000  0.5602460000000  0.4194190000000 1.0
C      1  0.4599760000000  0.5520130000000  0.4284970000000 1.0
C      1  0.4732970000000  0.5061100000000  0.4199730000000 1.0
C      1  0.4609850000000  0.4555800000000  0.4277750000000 1.0
C      1  0.5110190000000  0.4488410000000  0.4263890000000 1.0
C      1  0.5561610000000  0.4703840000000  0.4325890000000 1.0
C      1  0.5481340000000  0.5198830000000  0.4235450000000 1.0
C      1  0.4922350000000  0.5639170000000  0.4945770000000 1.0
C      1  0.4457230000000  0.5348990000000  0.5010540000000 1.0
C      1  0.4381640000000  0.4789320000000  0.4972230000000 1.0
C      1  0.4699530000000  0.4247500000000  0.4944990000000 1.0
C      1  0.5327120000000  0.4455060000000  0.4973740000000 1.0
C      1  0.5633120000000  0.4931970000000  0.5012480000000 1.0
C      1  0.5466810000000  0.5448580000000  0.4939570000000 1.0
C      1  0.4901370000000  0.5003770000000  0.5259230000000 1.0
C      1  0.5159930000000  0.5056490000000  0.5303020000000 1.0
C      1  0.4997230000000  0.5227200000000  0.4186100000000 1.0
END
