TITL C-131468-8397-4 -367.886683899519 125000 -459.478021424278 0 0 69 (C1) n - 1
REM
REM in /rds/project/t2_vol4/rds-t2-cs072/BORA/CARBON/from-Arr/AIRSS/Generating-Clusters/GAP-ML-2020/Higher-Symm/SD-CG/HFTN-CG
REM
REM
REM
REM
REM
REM ./C.cell (b20cbc046b6831c77cfcea5457e17084)
REM AIRSS Version 0.9.1 bugfix July 2018 build 013d7b7c2542+ Fri, 06 Jul 2018 19:26:36 +0100
REM compiler GCC version 9.3.0
REM options -cpp -mtune=generic -march=x86-64 -g -O0
REM seed 223737276 -568241018 -1183668650 517192258 -1419488496 85671462 -352018847 -575040819 -212389142 2036416863 -182235973 -1156594696 -1857910210 1875857140 -1326444233 1266635808 -1910762455 -1593416766 -1137022424 -2032510124 1751391922 828846331 592795632 -1969828752 -373923549 566829173 1160818455 778475564 -1815810235 -1438960677 -496754412 1769259188 823845276
REM
CELL 1.54180   50.00000   50.00000   50.00000   90.00000   90.00000   90.00000
LATT -1
SFAC C  
C      1  0.5762100000000  0.4568760000000  0.5191260000000 1.0
C      1  0.5096570000000  0.4142870000000  0.5192690000000 1.0
C      1  0.4394090000000  0.4338330000000  0.5200730000000 1.0
C      1  0.4157520000000  0.5023490000000  0.5168890000000 1.0
C      1  0.4502470000000  0.5674610000000  0.5159040000000 1.0
C      1  0.5226270000000  0.5811730000000  0.5153610000000 1.0
C      1  0.5822490000000  0.5332710000000  0.5198370000000 1.0
C      1  0.5095430000000  0.4312600000000  0.5397350000000 1.0
C      1  0.4510130000000  0.4453050000000  0.5416740000000 1.0
C      1  0.4308740000000  0.5021420000000  0.5392570000000 1.0
C      1  0.4629600000000  0.5512900000000  0.5344990000000 1.0
C      1  0.5192360000000  0.5679370000000  0.5383060000000 1.0
C      1  0.5653240000000  0.5269810000000  0.5400400000000 1.0
C      1  0.5556700000000  0.4668120000000  0.5349460000000 1.0
C      1  0.4655100000000  0.4801550000000  0.4675550000000 1.0
C      1  0.4714880000000  0.5115340000000  0.4713230000000 1.0
C      1  0.4961920000000  0.5318690000000  0.4677620000000 1.0
C      1  0.5283580000000  0.5296660000000  0.4662490000000 1.0
C      1  0.5432310000000  0.5014910000000  0.4685730000000 1.0
C      1  0.5111340000000  0.4611610000000  0.4645620000000 1.0
C      1  0.4828120000000  0.4576820000000  0.4709710000000 1.0
C      1  0.4970410000000  0.5299530000000  0.5608910000000 1.0
C      1  0.5251970000000  0.5267330000000  0.5623300000000 1.0
C      1  0.5327360000000  0.4994370000000  0.5610520000000 1.0
C      1  0.5141110000000  0.4777590000000  0.5564810000000 1.0
C      1  0.4883580000000  0.4656370000000  0.5633700000000 1.0
C      1  0.4672670000000  0.4841170000000  0.5634830000000 1.0
C      1  0.4745930000000  0.5115820000000  0.5605580000000 1.0
C      1  0.4560920000000  0.5214170000000  0.5400570000000 1.0
C      1  0.4932660000000  0.5499580000000  0.5398420000000 1.0
C      1  0.5396140000000  0.5427170000000  0.5429200000000 1.0
C      1  0.5530500000000  0.4980720000000  0.5404550000000 1.0
C      1  0.5266720000000  0.4583020000000  0.5375360000000 1.0
C      1  0.4819490000000  0.4450540000000  0.5443570000000 1.0
C      1  0.4479420000000  0.4760740000000  0.5435100000000 1.0
C      1  0.4760760000000  0.4403310000000  0.4924930000000 1.0
C      1  0.4458080000000  0.4746150000000  0.4892590000000 1.0
C      1  0.4539490000000  0.5213660000000  0.4912280000000 1.0
C      1  0.4915330000000  0.5504690000000  0.4899140000000 1.0
C      1  0.5367120000000  0.5477100000000  0.4871240000000 1.0
C      1  0.5631190000000  0.5007810000000  0.4917410000000 1.0
C      1  0.5179600000000  0.4440710000000  0.4872770000000 1.0
C      1  0.5179440000000  0.4731260000000  0.4375580000000 1.0
C      1  0.4938980000000  0.4807210000000  0.4228140000000 1.0
C      1  0.4690090000000  0.4866700000000  0.4376950000000 1.0
C      1  0.4670870000000  0.5144590000000  0.4416250000000 1.0
C      1  0.4877770000000  0.5329530000000  0.4384820000000 1.0
C      1  0.5319760000000  0.5225030000000  0.4357010000000 1.0
C      1  0.5384290000000  0.4952200000000  0.4401010000000 1.0
C      1  0.5125940000000  0.4634020000000  0.5112810000000 1.0
C      1  0.4835130000000  0.4590900000000  0.5159820000000 1.0
C      1  0.4623720000000  0.4795440000000  0.5150530000000 1.0
C      1  0.4676740000000  0.5076740000000  0.5139850000000 1.0
C      1  0.5027280000000  0.5352430000000  0.5139510000000 1.0
C      1  0.5323270000000  0.5331730000000  0.5134750000000 1.0
C      1  0.5412120000000  0.5051780000000  0.5128460000000 1.0
C      1  0.5750740000000  0.4756690000000  0.5011640000000 1.0
C      1  0.5010000000000  0.4226900000000  0.4948740000000 1.0
C      1  0.4463460000000  0.4428960000000  0.4957090000000 1.0
C      1  0.4288590000000  0.5004230000000  0.4936220000000 1.0
C      1  0.4613630000000  0.5513260000000  0.4965760000000 1.0
C      1  0.5170270000000  0.5693350000000  0.4919000000000 1.0
C      1  0.5800290000000  0.5250100000000  0.4957780000000 1.0
C      1  0.5015310000000  0.5022040000000  0.4073060000000 1.0
C      1  0.5081130000000  0.5250930000000  0.4202830000000 1.0
C      1  0.5159610000000  0.4911690000000  0.5040950000000 1.0
C      1  0.5215240000000  0.4855640000000  0.4769990000000 1.0
C      1  0.4958150000000  0.5076940000000  0.5162860000000 1.0
C      1  0.4986230000000  0.5013530000000  0.5451670000000 1.0
END
