TITL C-133508-5418-4 63.7772419277546 125000 -775.588099415963 0 0 107 (C1) n - 1
REM
REM in /rds/project/t2_vol4/rds-t2-cs072/BORA/CARBON/from-Arr/AIRSS/Generating-Clusters/GAP-ML-2020/Higher-Symm/SD-CG/HFTN-CG
REM
REM
REM
REM
REM
REM ./C.cell (b20cbc046b6831c77cfcea5457e17084)
REM AIRSS Version 0.9.1 bugfix July 2018 build 013d7b7c2542+ Fri, 06 Jul 2018 19:26:36 +0100
REM compiler GCC version 9.3.0
REM options -cpp -mtune=generic -march=x86-64 -g -O0
REM seed 1509469702 -1496685907 -961301638 462700313 764459890 1916638688 -1957016615 -96150711 1999881242 -1274561379 -1929116264 936565912 1843778205 -116578432 106924232 1926790430 818088475 -1863177014 359742713 -75355960 -229464248 -1647686389 -486395125 -1933496739 -1451990345 431261277 608088861 -767067113 1603504006 -750959563 -1221917680 -592901520 1160023405
REM
CELL 1.54180   50.00000   50.00000   50.00000   90.00000   90.00000   90.00000
LATT -1
SFAC C  
C      1  0.4918770000000  0.5350300000000  0.5047440000000 1.0
C      1  0.4702090000000  0.4896850000000  0.4869450000000 1.0
C      1  0.5101450000000  0.4669400000000  0.4842280000000 1.0
C      1  0.5275510000000  0.5073930000000  0.4967110000000 1.0
C      1  0.5187110000000  0.5269860000000  0.5168490000000 1.0
C      1  0.5280670000000  0.4789880000000  0.5031940000000 1.0
C      1  0.4835990000000  0.4674120000000  0.4974130000000 1.0
C      1  0.4734600000000  0.5172540000000  0.5158430000000 1.0
C      1  0.5756470000000  0.4999740000000  0.4617110000000 1.0
C      1  0.5021070000000  0.5797100000000  0.4636840000000 1.0
C      1  0.4211260000000  0.4985520000000  0.4619560000000 1.0
C      1  0.4993900000000  0.4189530000000  0.4617800000000 1.0
C      1  0.4223260000000  0.5018910000000  0.5380670000000 1.0
C      1  0.4986110000000  0.5825250000000  0.5381570000000 1.0
C      1  0.5729820000000  0.5005710000000  0.5381030000000 1.0
C      1  0.5034590000000  0.4197550000000  0.5368550000000 1.0
C      1  0.5453790000000  0.5770630000000  0.5214520000000 1.0
C      1  0.4255320000000  0.5479450000000  0.5190340000000 1.0
C      1  0.4563560000000  0.4264600000000  0.5233000000000 1.0
C      1  0.5681500000000  0.4535590000000  0.5225330000000 1.0
C      1  0.4552920000000  0.5735040000000  0.4774830000000 1.0
C      1  0.5677160000000  0.5465760000000  0.4782840000000 1.0
C      1  0.5465120000000  0.4242590000000  0.4786130000000 1.0
C      1  0.4258040000000  0.4522020000000  0.4817420000000 1.0
C      1  0.5347990000000  0.4459240000000  0.4404450000000 1.0
C      1  0.5538330000000  0.5342110000000  0.4325800000000 1.0
C      1  0.4660120000000  0.5510460000000  0.4374100000000 1.0
C      1  0.4448030000000  0.4606610000000  0.4403130000000 1.0
C      1  0.4668650000000  0.4493580000000  0.5628560000000 1.0
C      1  0.4446490000000  0.5404930000000  0.5605980000000 1.0
C      1  0.5347250000000  0.5584390000000  0.5619050000000 1.0
C      1  0.5503850000000  0.4650100000000  0.5673260000000 1.0
C      1  0.4765620000000  0.4281050000000  0.5442940000000 1.0
C      1  0.5683130000000  0.4726930000000  0.5441030000000 1.0
C      1  0.5262700000000  0.5778270000000  0.5428180000000 1.0
C      1  0.4258010000000  0.5299570000000  0.5415850000000 1.0
C      1  0.5270130000000  0.4247780000000  0.4575690000000 1.0
C      1  0.4257160000000  0.4706270000000  0.4593120000000 1.0
C      1  0.4752340000000  0.5721100000000  0.4563080000000 1.0
C      1  0.5699340000000  0.5276790000000  0.4563660000000 1.0
C      1  0.4557630000000  0.4368510000000  0.4511360000000 1.0
C      1  0.5596440000000  0.4560440000000  0.4496490000000 1.0
C      1  0.5428630000000  0.5588810000000  0.4319760000000 1.0
C      1  0.4410410000000  0.5416790000000  0.4474960000000 1.0
C      1  0.5471140000000  0.4358230000000  0.5719640000000 1.0
C      1  0.4418700000000  0.4588790000000  0.5525240000000 1.0
C      1  0.4547370000000  0.5647600000000  0.5497200000000 1.0
C      1  0.5588780000000  0.5462370000000  0.5511830000000 1.0
C      1  0.5176900000000  0.4688440000000  0.4330740000000 1.0
C      1  0.5336160000000  0.5164200000000  0.4200300000000 1.0
C      1  0.4793210000000  0.5284370000000  0.4240210000000 1.0
C      1  0.4651980000000  0.4749910000000  0.4266850000000 1.0
C      1  0.4793580000000  0.4719720000000  0.5767910000000 1.0
C      1  0.4657100000000  0.5267890000000  0.5740990000000 1.0
C      1  0.5179170000000  0.5395060000000  0.5745380000000 1.0
C      1  0.5310970000000  0.4857740000000  0.5814570000000 1.0
C      1  0.5394520000000  0.4894870000000  0.4248820000000 1.0
C      1  0.5134070000000  0.5342620000000  0.4564310000000 1.0
C      1  0.4628030000000  0.5040450000000  0.4322540000000 1.0
C      1  0.4894980000000  0.4584080000000  0.4284030000000 1.0
C      1  0.4644530000000  0.4973430000000  0.5668950000000 1.0
C      1  0.4894610000000  0.5448600000000  0.5727020000000 1.0
C      1  0.5311360000000  0.5122030000000  0.5674210000000 1.0
C      1  0.5218740000000  0.4599590000000  0.5544610000000 1.0
C      1  0.4819310000000  0.5678880000000  0.5564810000000 1.0
C      1  0.4380590000000  0.4865320000000  0.5566800000000 1.0
C      1  0.5301230000000  0.4313470000000  0.5482600000000 1.0
C      1  0.5589510000000  0.5189490000000  0.5556480000000 1.0
C      1  0.5266640000000  0.5631230000000  0.4550820000000 1.0
C      1  0.5625350000000  0.4826140000000  0.4423250000000 1.0
C      1  0.4828570000000  0.4343470000000  0.4437170000000 1.0
C      1  0.4368040000000  0.5141040000000  0.4429940000000 1.0
C      1  0.4885830000000  0.5887240000000  0.5115010000000 1.0
C      1  0.4160070000000  0.4908430000000  0.5117490000000 1.0
C      1  0.5089860000000  0.4124080000000  0.5097480000000 1.0
C      1  0.5807160000000  0.5100280000000  0.5111040000000 1.0
C      1  0.5078430000000  0.5887780000000  0.4901010000000 1.0
C      1  0.5815640000000  0.4904720000000  0.4889700000000 1.0
C      1  0.4894620000000  0.4120870000000  0.4885710000000 1.0
C      1  0.4155350000000  0.5092080000000  0.4886880000000 1.0
C      1  0.4817760000000  0.5012050000000  0.5384200000000 1.0
C      1  0.4883310000000  0.4745100000000  0.5255240000000 1.0
C      1  0.5172050000000  0.4780320000000  0.5307600000000 1.0
C      1  0.5132960000000  0.5073230000000  0.5402710000000 1.0
C      1  0.5262360000000  0.5100390000000  0.4682190000000 1.0
C      1  0.5088690000000  0.4862590000000  0.4604610000000 1.0
C      1  0.4810330000000  0.5020480000000  0.4638380000000 1.0
C      1  0.4897490000000  0.5300730000000  0.4731950000000 1.0
C      1  0.5357610000000  0.5822720000000  0.4958630000000 1.0
C      1  0.4214420000000  0.5376730000000  0.4928100000000 1.0
C      1  0.4620770000000  0.4186400000000  0.4963020000000 1.0
C      1  0.5759620000000  0.4622440000000  0.4957890000000 1.0
C      1  0.4612300000000  0.5817520000000  0.5040860000000 1.0
C      1  0.5754010000000  0.5385420000000  0.5049850000000 1.0
C      1  0.5371280000000  0.4182260000000  0.5041600000000 1.0
C      1  0.4213240000000  0.4619360000000  0.5080120000000 1.0
C      1  0.5477140000000  0.5672050000000  0.4753010000000 1.0
C      1  0.4350790000000  0.5534870000000  0.4726750000000 1.0
C      1  0.4448840000000  0.4310930000000  0.4766790000000 1.0
C      1  0.5660310000000  0.4451710000000  0.4750550000000 1.0
C      1  0.4442040000000  0.5695290000000  0.5238940000000 1.0
C      1  0.5652040000000  0.5562350000000  0.5253950000000 1.0
C      1  0.5492870000000  0.4316230000000  0.5253930000000 1.0
C      1  0.4353770000000  0.4460290000000  0.5280270000000 1.0
C      1  0.5070710000000  0.4703310000000  0.5786570000000 1.0
C      1  0.5074950000000  0.5280030000000  0.4263920000000 1.0
C      1  0.4962860000000  0.5019260000000  0.4995400000000 1.0
END
