TITL C-132110-1597-7 49.9564150902086 125000 -373.171566264603 0 0 52 (D2d) n - 1
REM
REM in /rds/project/t2_vol4/rds-t2-cs072/BORA/CARBON/from-Arr/AIRSS/Generating-Clusters/GAP-ML-2020/Higher-Symm/SD-CG/HFTN-CG
REM
REM
REM
REM
REM
REM ./C.cell (b20cbc046b6831c77cfcea5457e17084)
REM AIRSS Version 0.9.1 bugfix July 2018 build 013d7b7c2542+ Fri, 06 Jul 2018 19:26:36 +0100
REM compiler GCC version 9.3.0
REM options -cpp -mtune=generic -march=x86-64 -g -O0
REM seed 1530668361 -1046330712 -1970795003 -64644215 -2129460687 1433992672 795889180 -1540109656 2101369107 -450959625 1980079950 358361800 -1846131802 -1561423169 267937292 -547774113 -1844873732 -947990927 91470490 484944409 1984775756 -674872625 776590476 1780111444 1924284588 -1746000786 1718568653 499627853 -1443375980 -1330396007 -764694943 418453563 128308299
REM
CELL 1.54180   50.00000   50.00000   50.00000   90.00000   90.00000   90.00000
LATT -1
SFAC C  
C      1  0.5664420000000  0.4813170000000  0.5006020000000 1.0
C      1  0.5651120000000  0.5227060000000  0.4970250000000 1.0
C      1  0.4348790000000  0.4772500000000  0.5023630000000 1.0
C      1  0.4335680000000  0.5187280000000  0.5000090000000 1.0
C      1  0.5654390000000  0.5008230000000  0.4780680000000 1.0
C      1  0.5661140000000  0.5031990000000  0.5195590000000 1.0
C      1  0.4339050000000  0.4961890000000  0.4804840000000 1.0
C      1  0.4345420000000  0.4997880000000  0.5218880000000 1.0
C      1  0.4654570000000  0.5534600000000  0.5156590000000 1.0
C      1  0.4682450000000  0.4445120000000  0.4855370000000 1.0
C      1  0.5311580000000  0.5527680000000  0.4767380000000 1.0
C      1  0.5351400000000  0.4492590000000  0.5220670000000 1.0
C      1  0.4670910000000  0.5216730000000  0.5523810000000 1.0
C      1  0.4666110000000  0.4763000000000  0.4488150000000 1.0
C      1  0.5345910000000  0.4859870000000  0.5538840000000 1.0
C      1  0.5317070000000  0.5160400000000  0.4449200000000 1.0
C      1  0.4511300000000  0.4545180000000  0.5067160000000 1.0
C      1  0.4482330000000  0.5424050000000  0.4950980000000 1.0
C      1  0.5516830000000  0.4572130000000  0.4996020000000 1.0
C      1  0.5489540000000  0.5458640000000  0.4985830000000 1.0
C      1  0.4488980000000  0.4979280000000  0.4565690000000 1.0
C      1  0.4504640000000  0.4989950000000  0.5452460000000 1.0
C      1  0.5497040000000  0.4957070000000  0.4551330000000 1.0
C      1  0.5509330000000  0.5073700000000  0.5430520000000 1.0
C      1  0.4894980000000  0.4472560000000  0.5383950000000 1.0
C      1  0.4849200000000  0.5519620000000  0.4620660000000 1.0
C      1  0.5139960000000  0.4431020000000  0.4694530000000 1.0
C      1  0.5115860000000  0.5576800000000  0.5300850000000 1.0
C      1  0.4852500000000  0.5298840000000  0.4429410000000 1.0
C      1  0.4891680000000  0.4693340000000  0.5575210000000 1.0
C      1  0.5130140000000  0.4622100000000  0.4473800000000 1.0
C      1  0.5125690000000  0.5385730000000  0.5521590000000 1.0
C      1  0.4569270000000  0.5455620000000  0.4686420000000 1.0
C      1  0.4609480000000  0.4519270000000  0.5328390000000 1.0
C      1  0.5399580000000  0.5521960000000  0.5243610000000 1.0
C      1  0.5421670000000  0.4503150000000  0.4741580000000 1.0
C      1  0.4606220000000  0.4736790000000  0.5516820000000 1.0
C      1  0.4572520000000  0.5238100000000  0.4497990000000 1.0
C      1  0.5409250000000  0.5333700000000  0.5461080000000 1.0
C      1  0.5412000000000  0.4691410000000  0.4524110000000 1.0
C      1  0.5068430000000  0.4908730000000  0.5606610000000 1.0
C      1  0.5040830000000  0.5094610000000  0.4391420000000 1.0
C      1  0.4940240000000  0.4819200000000  0.4412870000000 1.0
C      1  0.4950500000000  0.5177460000000  0.5589100000000 1.0
C      1  0.5033430000000  0.5589510000000  0.4820150000000 1.0
C      1  0.5075830000000  0.4413830000000  0.5177880000000 1.0
C      1  0.4962260000000  0.4390870000000  0.4907680000000 1.0
C      1  0.4928480000000  0.5605790000000  0.5094290000000 1.0
C      1  0.5373270000000  0.5416920000000  0.4525180000000 1.0
C      1  0.4598930000000  0.5455750000000  0.5412360000000 1.0
C      1  0.5414890000000  0.4607180000000  0.5460610000000 1.0
C      1  0.4612920000000  0.4520150000000  0.4601860000000 1.0
END
