TITL C-132125-1924-1 -20.8833136666395 125000 -220.777974824322 0 0 33 (Cs) n - 1
REM
REM in /rds/project/t2_vol4/rds-t2-cs072/BORA/CARBON/from-Arr/AIRSS/Generating-Clusters/GAP-ML-2020/Higher-Symm/SD-CG/HFTN-CG
REM
REM
REM
REM
REM
REM ./C.cell (b20cbc046b6831c77cfcea5457e17084)
REM AIRSS Version 0.9.1 bugfix July 2018 build 013d7b7c2542+ Fri, 06 Jul 2018 19:26:36 +0100
REM compiler GCC version 9.3.0
REM options -cpp -mtune=generic -march=x86-64 -g -O0
REM seed -1284102486 -817055648 -774218761 -561385917 479149801 -684747349 419229207 1504258523 -1549650999 -522588166 1572137335 46230939 1877965408 -1096424912 1163274944 -1740711413 479157111 -1137569904 653648610 -1313619051 -380422873 511992064 1896687898 983176313 1979054549 -1471164637 1687266557 -245766883 -1701198664 -1304715988 1717810602 -524845829 1561086772
REM
CELL 1.54180   50.00000   50.00000   50.00000   90.00000   90.00000   90.00000
LATT -1
SFAC C  
C      1  0.4713560000000  0.4601910000000  0.4930660000000 1.0
C      1  0.4687960000000  0.4957320000000  0.4594080000000 1.0
C      1  0.4704580000000  0.5373140000000  0.4853070000000 1.0
C      1  0.4757690000000  0.5260130000000  0.5303670000000 1.0
C      1  0.4763000000000  0.4803600000000  0.5349600000000 1.0
C      1  0.5283200000000  0.4622770000000  0.4902950000000 1.0
C      1  0.5261660000000  0.4965850000000  0.4612490000000 1.0
C      1  0.5274620000000  0.5360320000000  0.4828750000000 1.0
C      1  0.5310610000000  0.5278600000000  0.5286820000000 1.0
C      1  0.5316240000000  0.4794890000000  0.5335480000000 1.0
C      1  0.5530370000000  0.5230480000000  0.4877980000000 1.0
C      1  0.5549860000000  0.5169810000000  0.5156450000000 1.0
C      1  0.5553220000000  0.4881010000000  0.5185500000000 1.0
C      1  0.5535780000000  0.4765670000000  0.4924740000000 1.0
C      1  0.5522640000000  0.4980830000000  0.4731210000000 1.0
C      1  0.4444620000000  0.5232850000000  0.4885920000000 1.0
C      1  0.4425940000000  0.5154390000000  0.5155100000000 1.0
C      1  0.4429250000000  0.4869950000000  0.5183720000000 1.0
C      1  0.4450350000000  0.4739900000000  0.4935510000000 1.0
C      1  0.4446830000000  0.4968880000000  0.4736910000000 1.0
C      1  0.5127100000000  0.5215170000000  0.4630910000000 1.0
C      1  0.5145620000000  0.5403590000000  0.5079580000000 1.0
C      1  0.5162820000000  0.5040920000000  0.5370100000000 1.0
C      1  0.5154650000000  0.4627350000000  0.5157670000000 1.0
C      1  0.5132840000000  0.4722160000000  0.4680510000000 1.0
C      1  0.4849700000000  0.5188540000000  0.4695550000000 1.0
C      1  0.4867680000000  0.5422640000000  0.5102050000000 1.0
C      1  0.4896510000000  0.5045420000000  0.5445610000000 1.0
C      1  0.4877180000000  0.4606760000000  0.5184130000000 1.0
C      1  0.4854750000000  0.4754730000000  0.4739190000000 1.0
C      1  0.4690340000000  0.5013830000000  0.5155470000000 1.0
C      1  0.5129780000000  0.5006890000000  0.5035630000000 1.0
C      1  0.4875530000000  0.4993860000000  0.4935590000000 1.0
END
