TITL C-132789-1229-1 0.0729575566187925 125000 -788.940379402969 0 0 115 (C1) n - 1
REM
REM in /rds/project/t2_vol4/rds-t2-cs072/BORA/CARBON/from-Arr/AIRSS/Generating-Clusters/GAP-ML-2020/Higher-Symm/SD-CG/HFTN-CG
REM
REM
REM
REM
REM
REM ./C.cell (b20cbc046b6831c77cfcea5457e17084)
REM AIRSS Version 0.9.1 bugfix July 2018 build 013d7b7c2542+ Fri, 06 Jul 2018 19:26:36 +0100
REM compiler GCC version 9.3.0
REM options -cpp -mtune=generic -march=x86-64 -g -O0
REM seed -676188524 -2048323962 474454297 346129159 1422345996 421982201 -1110357408 -731507618 1925062079 1901157968 194180259 1746401918 1428411973 -739591794 -1437443745 -1969194224 -1885841468 787654280 -138681723 -1089400165 -1692240350 -1053911460 -942062812 137719361 1134360940 -781492820 -1304449863 1527777598 845042463 -36114584 370828614 1895572561 1321242697
REM
CELL 1.54180   50.00000   50.00000   50.00000   90.00000   90.00000   90.00000
LATT -1
SFAC C  
C      1  0.4006400000000  0.5128070000000  0.5152160000000 1.0
C      1  0.6010160000000  0.5086060000000  0.4878540000000 1.0
C      1  0.4019440000000  0.4836520000000  0.5147930000000 1.0
C      1  0.5983810000000  0.4794330000000  0.4881000000000 1.0
C      1  0.5997390000000  0.5108660000000  0.5163680000000 1.0
C      1  0.4002580000000  0.5127000000000  0.4863830000000 1.0
C      1  0.5981070000000  0.4796090000000  0.5169510000000 1.0
C      1  0.4019140000000  0.4837730000000  0.4861570000000 1.0
C      1  0.5322820000000  0.5213000000000  0.4703780000000 1.0
C      1  0.4667260000000  0.5051430000000  0.5233070000000 1.0
C      1  0.5375270000000  0.4976820000000  0.4874610000000 1.0
C      1  0.4756310000000  0.4901150000000  0.5452550000000 1.0
C      1  0.4704810000000  0.5010240000000  0.4811400000000 1.0
C      1  0.5349720000000  0.5163480000000  0.5436400000000 1.0
C      1  0.4789890000000  0.4909330000000  0.4541630000000 1.0
C      1  0.5388440000000  0.4889510000000  0.5349820000000 1.0
C      1  0.5134670000000  0.4863290000000  0.4065770000000 1.0
C      1  0.4875810000000  0.4840290000000  0.5924820000000 1.0
C      1  0.5134240000000  0.5160310000000  0.4085220000000 1.0
C      1  0.4862830000000  0.5140260000000  0.5912690000000 1.0
C      1  0.4854330000000  0.4858740000000  0.4054720000000 1.0
C      1  0.5156340000000  0.4854550000000  0.5887430000000 1.0
C      1  0.4849640000000  0.5159050000000  0.4074580000000 1.0
C      1  0.5144650000000  0.5154640000000  0.5891300000000 1.0
C      1  0.4268470000000  0.4839640000000  0.5520690000000 1.0
C      1  0.5725770000000  0.4821590000000  0.4492060000000 1.0
C      1  0.4251550000000  0.5137600000000  0.5534250000000 1.0
C      1  0.5744230000000  0.5113100000000  0.4502580000000 1.0
C      1  0.5756660000000  0.4611930000000  0.5562760000000 1.0
C      1  0.4274060000000  0.4855050000000  0.4490230000000 1.0
C      1  0.5749860000000  0.5380420000000  0.5523200000000 1.0
C      1  0.4256290000000  0.5150500000000  0.4480480000000 1.0
C      1  0.5547510000000  0.4131250000000  0.5114400000000 1.0
C      1  0.4421210000000  0.4201530000000  0.4849670000000 1.0
C      1  0.5604330000000  0.5837120000000  0.5139640000000 1.0
C      1  0.4341490000000  0.5812740000000  0.4857670000000 1.0
C      1  0.4411560000000  0.4191810000000  0.5140010000000 1.0
C      1  0.5552830000000  0.4153830000000  0.4827920000000 1.0
C      1  0.4355200000000  0.5813610000000  0.5148950000000 1.0
C      1  0.5561650000000  0.5915850000000  0.4882890000000 1.0
C      1  0.5320290000000  0.5761300000000  0.5220040000000 1.0
C      1  0.4530360000000  0.5897310000000  0.4678920000000 1.0
C      1  0.5332000000000  0.4072150000000  0.5267720000000 1.0
C      1  0.4628080000000  0.4117460000000  0.4701810000000 1.0
C      1  0.4571420000000  0.5896140000000  0.5296570000000 1.0
C      1  0.5436420000000  0.5934760000000  0.4661530000000 1.0
C      1  0.4613490000000  0.4103470000000  0.5294220000000 1.0
C      1  0.5348170000000  0.4094570000000  0.4666170000000 1.0
C      1  0.4726010000000  0.4522080000000  0.4852030000000 1.0
C      1  0.5288660000000  0.4470780000000  0.5156910000000 1.0
C      1  0.4639810000000  0.5497730000000  0.4815220000000 1.0
C      1  0.5404530000000  0.5519240000000  0.5079580000000 1.0
C      1  0.5289240000000  0.4500740000000  0.4848280000000 1.0
C      1  0.4718270000000  0.4510820000000  0.5164310000000 1.0
C      1  0.5433130000000  0.5485590000000  0.4771690000000 1.0
C      1  0.4660690000000  0.5513030000000  0.5141300000000 1.0
C      1  0.4398870000000  0.4503960000000  0.5155460000000 1.0
C      1  0.5607380000000  0.4469080000000  0.4840430000000 1.0
C      1  0.4335180000000  0.5500530000000  0.5156860000000 1.0
C      1  0.5737510000000  0.5481940000000  0.4810300000000 1.0
C      1  0.5619220000000  0.4444820000000  0.5137540000000 1.0
C      1  0.4404070000000  0.4511770000000  0.4849000000000 1.0
C      1  0.5726940000000  0.5541580000000  0.5092770000000 1.0
C      1  0.4321880000000  0.5497320000000  0.4853850000000 1.0
C      1  0.4794460000000  0.5263170000000  0.4723280000000 1.0
C      1  0.5277560000000  0.5306400000000  0.5213610000000 1.0
C      1  0.4879920000000  0.4769980000000  0.4776490000000 1.0
C      1  0.5155320000000  0.4741420000000  0.5200560000000 1.0
C      1  0.5057410000000  0.5279230000000  0.4806830000000 1.0
C      1  0.4812760000000  0.5285140000000  0.5224070000000 1.0
C      1  0.5160020000000  0.4774690000000  0.4887830000000 1.0
C      1  0.4882710000000  0.4727770000000  0.5284990000000 1.0
C      1  0.4199710000000  0.4691660000000  0.4707120000000 1.0
C      1  0.5842480000000  0.4588850000000  0.5304320000000 1.0
C      1  0.4153810000000  0.5298900000000  0.4704850000000 1.0
C      1  0.5874310000000  0.5351450000000  0.5281930000000 1.0
C      1  0.5811820000000  0.4650180000000  0.4707870000000 1.0
C      1  0.4197690000000  0.4684460000000  0.5298180000000 1.0
C      1  0.5870300000000  0.5254680000000  0.4704290000000 1.0
C      1  0.4164450000000  0.5297650000000  0.5310480000000 1.0
C      1  0.4700710000000  0.5340430000000  0.4224760000000 1.0
C      1  0.5272480000000  0.5378910000000  0.5763260000000 1.0
C      1  0.4705040000000  0.4672610000000  0.4203390000000 1.0
C      1  0.5283720000000  0.4642890000000  0.5750480000000 1.0
C      1  0.5272780000000  0.5323350000000  0.4261600000000 1.0
C      1  0.4684210000000  0.5317250000000  0.5784890000000 1.0
C      1  0.5268580000000  0.4689520000000  0.4242480000000 1.0
C      1  0.4709200000000  0.4648060000000  0.5806280000000 1.0
C      1  0.4806640000000  0.5543600000000  0.5651070000000 1.0
C      1  0.5141990000000  0.5562320000000  0.4376870000000 1.0
C      1  0.4846430000000  0.4431580000000  0.5661360000000 1.0
C      1  0.5125720000000  0.4466930000000  0.4359180000000 1.0
C      1  0.5086830000000  0.5579970000000  0.5652770000000 1.0
C      1  0.4850400000000  0.5571720000000  0.4369000000000 1.0
C      1  0.5122850000000  0.4427880000000  0.5645110000000 1.0
C      1  0.4849780000000  0.4459970000000  0.4346430000000 1.0
C      1  0.5094010000000  0.5745930000000  0.5407040000000 1.0
C      1  0.4706970000000  0.5696170000000  0.4599640000000 1.0
C      1  0.5146820000000  0.4275590000000  0.5364800000000 1.0
C      1  0.4828950000000  0.4314570000000  0.4632810000000 1.0
C      1  0.4781240000000  0.5711920000000  0.5373070000000 1.0
C      1  0.5314520000000  0.5686140000000  0.4584050000000 1.0
C      1  0.4820960000000  0.4294400000000  0.5369610000000 1.0
C      1  0.5153770000000  0.4314740000000  0.4625170000000 1.0
C      1  0.5474700000000  0.4840930000000  0.4355930000000 1.0
C      1  0.4527750000000  0.4835810000000  0.5660400000000 1.0
C      1  0.5445960000000  0.5146160000000  0.4425610000000 1.0
C      1  0.4471020000000  0.5145770000000  0.5716800000000 1.0
C      1  0.4540850000000  0.4860540000000  0.4360910000000 1.0
C      1  0.5510270000000  0.4712980000000  0.5597400000000 1.0
C      1  0.4483210000000  0.5173590000000  0.4306280000000 1.0
C      1  0.5512410000000  0.5320140000000  0.5619230000000 1.0
C      1  0.4512460000000  0.4995490000000  0.5010920000000 1.0
C      1  0.5534130000000  0.4947770000000  0.5090570000000 1.0
C      1  0.5049210000000  0.5260790000000  0.5081040000000 1.0
END
