TITL C-132116-2340-7 -0.240466037985177 125000 -631.646287627418 0 0 94 (C2) n - 1
REM
REM in /rds/project/t2_vol4/rds-t2-cs072/BORA/CARBON/from-Arr/AIRSS/Generating-Clusters/GAP-ML-2020/Higher-Symm/SD-CG/HFTN-CG
REM
REM
REM
REM
REM
REM ./C.cell (b20cbc046b6831c77cfcea5457e17084)
REM AIRSS Version 0.9.1 bugfix July 2018 build 013d7b7c2542+ Fri, 06 Jul 2018 19:26:36 +0100
REM compiler GCC version 9.3.0
REM options -cpp -mtune=generic -march=x86-64 -g -O0
REM seed 2047151376 -2047713155 1363170160 212621563 -1075925043 1355091507 1776347733 -491560584 495429953 1172746622 877118907 1046346074 -697320104 -864201272 -1798165649 1084469963 318374234 1112733047 1744190159 -1591327144 1720458246 -1236279823 -16261269 53244986 1472619500 -434560975 1272829207 -317691150 2048019511 -59150524 -390349489 -636017381 442592667
REM
CELL 1.54180   50.00000   50.00000   50.00000   90.00000   90.00000   90.00000
LATT -1
SFAC C  
C      1  0.5980200000000  0.5179270000000  0.4478890000000 1.0
C      1  0.4019610000000  0.5177840000000  0.5521260000000 1.0
C      1  0.5967380000000  0.4960080000000  0.4645140000000 1.0
C      1  0.4032660000000  0.4958790000000  0.5354830000000 1.0
C      1  0.3974610000000  0.4980610000000  0.4829520000000 1.0
C      1  0.6025400000000  0.4981520000000  0.5170460000000 1.0
C      1  0.4090130000000  0.4983700000000  0.4573150000000 1.0
C      1  0.5909890000000  0.4984270000000  0.5426840000000 1.0
C      1  0.5522260000000  0.4851500000000  0.4388980000000 1.0
C      1  0.4477890000000  0.4850460000000  0.5610890000000 1.0
C      1  0.5506990000000  0.5134660000000  0.4357420000000 1.0
C      1  0.4492870000000  0.5133600000000  0.5642700000000 1.0
C      1  0.4516570000000  0.4844320000000  0.4353830000000 1.0
C      1  0.5483590000000  0.4844270000000  0.5646050000000 1.0
C      1  0.4514640000000  0.5128830000000  0.4341240000000 1.0
C      1  0.5485220000000  0.5128770000000  0.5658870000000 1.0
C      1  0.4859410000000  0.4848180000000  0.4672830000000 1.0
C      1  0.5140750000000  0.4848060000000  0.5327040000000 1.0
C      1  0.4856610000000  0.5146740000000  0.4676450000000 1.0
C      1  0.5143230000000  0.5146620000000  0.5323670000000 1.0
C      1  0.5156560000000  0.4849430000000  0.4683260000000 1.0
C      1  0.4843590000000  0.4849010000000  0.5316620000000 1.0
C      1  0.5155470000000  0.5146940000000  0.4684700000000 1.0
C      1  0.4844380000000  0.5146520000000  0.5315430000000 1.0
C      1  0.5216430000000  0.5251950000000  0.5633340000000 1.0
C      1  0.4783310000000  0.5252260000000  0.4366870000000 1.0
C      1  0.5210240000000  0.4732670000000  0.5629340000000 1.0
C      1  0.4790040000000  0.4732980000000  0.4370440000000 1.0
C      1  0.4760410000000  0.5253120000000  0.5625890000000 1.0
C      1  0.5239330000000  0.5253890000000  0.4374320000000 1.0
C      1  0.4751100000000  0.4734910000000  0.5613260000000 1.0
C      1  0.5249170000000  0.4735680000000  0.4386520000000 1.0
C      1  0.5582680000000  0.5165700000000  0.4803230000000 1.0
C      1  0.4417150000000  0.5164940000000  0.5196910000000 1.0
C      1  0.5579680000000  0.4858370000000  0.4848600000000 1.0
C      1  0.4420460000000  0.4857650000000  0.5151280000000 1.0
C      1  0.4435190000000  0.5156160000000  0.4784150000000 1.0
C      1  0.5564640000000  0.5156560000000  0.5215980000000 1.0
C      1  0.4432750000000  0.4853550000000  0.4827000000000 1.0
C      1  0.5567400000000  0.4853980000000  0.5172880000000 1.0
C      1  0.5160750000000  0.4467840000000  0.4473050000000 1.0
C      1  0.4839790000000  0.4467230000000  0.5526510000000 1.0
C      1  0.5152380000000  0.5519880000000  0.4470560000000 1.0
C      1  0.4847090000000  0.5519280000000  0.5529870000000 1.0
C      1  0.4874200000000  0.4467530000000  0.4464910000000 1.0
C      1  0.5126350000000  0.4467210000000  0.5534640000000 1.0
C      1  0.4863950000000  0.5518130000000  0.4464640000000 1.0
C      1  0.5135520000000  0.5517820000000  0.5535790000000 1.0
C      1  0.4304190000000  0.4786650000000  0.4547720000000 1.0
C      1  0.5696030000000  0.4786980000000  0.5452100000000 1.0
C      1  0.4300400000000  0.5189030000000  0.4526450000000 1.0
C      1  0.5699400000000  0.5189350000000  0.5473710000000 1.0
C      1  0.5720570000000  0.4782570000000  0.4598330000000 1.0
C      1  0.4279650000000  0.4781500000000  0.5401490000000 1.0
C      1  0.5712250000000  0.5242530000000  0.4526950000000 1.0
C      1  0.4287500000000  0.5241410000000  0.5473250000000 1.0
C      1  0.4854140000000  0.5777020000000  0.5140490000000 1.0
C      1  0.5145060000000  0.5777280000000  0.4860170000000 1.0
C      1  0.4853260000000  0.4223330000000  0.5138180000000 1.0
C      1  0.5147530000000  0.4223600000000  0.4861170000000 1.0
C      1  0.5140020000000  0.5777130000000  0.5146750000000 1.0
C      1  0.4859180000000  0.5777110000000  0.4853900000000 1.0
C      1  0.5138360000000  0.4223480000000  0.5146760000000 1.0
C      1  0.4862440000000  0.4223470000000  0.4852590000000 1.0
C      1  0.5296440000000  0.5583850000000  0.5283530000000 1.0
C      1  0.4702960000000  0.5583790000000  0.4716960000000 1.0
C      1  0.5297670000000  0.4412240000000  0.5284890000000 1.0
C      1  0.4702930000000  0.4412170000000  0.4714620000000 1.0
C      1  0.4693560000000  0.5585170000000  0.5270930000000 1.0
C      1  0.5305840000000  0.5585710000000  0.4729560000000 1.0
C      1  0.4685850000000  0.4413290000000  0.5266640000000 1.0
C      1  0.5314750000000  0.4413840000000  0.4732870000000 1.0
C      1  0.5321370000000  0.5306310000000  0.5154550000000 1.0
C      1  0.4678310000000  0.5306110000000  0.4845700000000 1.0
C      1  0.5314000000000  0.4690910000000  0.5156820000000 1.0
C      1  0.4686310000000  0.4690720000000  0.4842920000000 1.0
C      1  0.4670460000000  0.5306780000000  0.5143070000000 1.0
C      1  0.5329230000000  0.5307240000000  0.4857190000000 1.0
C      1  0.4680020000000  0.4691900000000  0.5138800000000 1.0
C      1  0.5320300000000  0.4692340000000  0.4860950000000 1.0
C      1  0.4424180000000  0.4317810000000  0.5109570000000 1.0
C      1  0.5576520000000  0.4318490000000  0.4889860000000 1.0
C      1  0.4417390000000  0.5661680000000  0.5107570000000 1.0
C      1  0.5581930000000  0.5662370000000  0.4892990000000 1.0
C      1  0.5569990000000  0.4321400000000  0.5144690000000 1.0
C      1  0.4430700000000  0.4320940000000  0.4854740000000 1.0
C      1  0.5576010000000  0.5657580000000  0.5145720000000 1.0
C      1  0.4423320000000  0.5657110000000  0.4854830000000 1.0
C      1  0.5016300000000  0.5132340000000  0.4229870000000 1.0
C      1  0.5023130000000  0.4855240000000  0.4232410000000 1.0
C      1  0.4977020000000  0.4854570000000  0.5767470000000 1.0
C      1  0.4983560000000  0.5131680000000  0.5770240000000 1.0
C      1  0.6050570000000  0.4963880000000  0.4920760000000 1.0
C      1  0.3949460000000  0.4962740000000  0.5079210000000 1.0
END
