TITL C-132787-1232-3 0.0722428290833123 125000 -288.320323822008 0 0 45 (C2v) n - 1
REM
REM in /rds/project/t2_vol4/rds-t2-cs072/BORA/CARBON/from-Arr/AIRSS/Generating-Clusters/GAP-ML-2020/Higher-Symm/SD-CG/HFTN-CG
REM
REM
REM
REM
REM
REM ./C.cell (b20cbc046b6831c77cfcea5457e17084)
REM AIRSS Version 0.9.1 bugfix July 2018 build 013d7b7c2542+ Fri, 06 Jul 2018 19:26:36 +0100
REM compiler GCC version 9.3.0
REM options -cpp -mtune=generic -march=x86-64 -g -O0
REM seed -271178433 801768660 883740548 871333766 -1759486858 998284180 864603855 1473300737 1306301005 -1038514746 521832452 584917780 -77166944 -1444048123 255160236 -517040332 1727808865 1680948220 -107057743 186627923 -1161250757 -429454182 1883795465 209010148 -1833880860 84369020 -372464836 1759535788 -2033118816 -2123495550 -1465349297 -454012441 155031082
REM
CELL 1.54180   50.00000   50.00000   50.00000   90.00000   90.00000   90.00000
LATT -1
SFAC C  
C      1  0.4894430000000  0.4836720000000  0.5672040000000 1.0
C      1  0.5195240000000  0.5140740000000  0.5657030000000 1.0
C      1  0.5194790000000  0.4836740000000  0.5650320000000 1.0
C      1  0.4894890000000  0.5140710000000  0.5678750000000 1.0
C      1  0.4432500000000  0.5345310000000  0.5083930000000 1.0
C      1  0.5566190000000  0.4660050000000  0.4986760000000 1.0
C      1  0.5567220000000  0.5345410000000  0.5001890000000 1.0
C      1  0.4431470000000  0.4659950000000  0.5068810000000 1.0
C      1  0.5278720000000  0.5256140000000  0.4650800000000 1.0
C      1  0.4666760000000  0.4765550000000  0.4684170000000 1.0
C      1  0.4667500000000  0.5256080000000  0.4695000000000 1.0
C      1  0.5277980000000  0.4765600000000  0.4639980000000 1.0
C      1  0.4615510000000  0.4440520000000  0.5096250000000 1.0
C      1  0.5389730000000  0.5562830000000  0.5065160000000 1.0
C      1  0.5388040000000  0.4440590000000  0.5040390000000 1.0
C      1  0.4617200000000  0.5562760000000  0.5121020000000 1.0
C      1  0.4749790000000  0.5258740000000  0.5464150000000 1.0
C      1  0.5307140000000  0.4728760000000  0.5412090000000 1.0
C      1  0.5307940000000  0.5258790000000  0.5423790000000 1.0
C      1  0.4748990000000  0.4728710000000  0.5452450000000 1.0
C      1  0.5096740000000  0.4780720000000  0.4432190000000 1.0
C      1  0.4816940000000  0.5250720000000  0.4462850000000 1.0
C      1  0.4816230000000  0.4780690000000  0.4452480000000 1.0
C      1  0.5097440000000  0.5250750000000  0.4442570000000 1.0
C      1  0.5129490000000  0.5639510000000  0.5056620000000 1.0
C      1  0.4871570000000  0.4365120000000  0.5047010000000 1.0
C      1  0.4873490000000  0.5639490000000  0.5075130000000 1.0
C      1  0.5127570000000  0.4365140000000  0.5028500000000 1.0
C      1  0.5155490000000  0.4850310000000  0.5189750000000 1.0
C      1  0.4867510000000  0.5147590000000  0.5217170000000 1.0
C      1  0.4867060000000  0.4850290000000  0.5210610000000 1.0
C      1  0.5155940000000  0.5147620000000  0.5196310000000 1.0
C      1  0.4840650000000  0.4856840000000  0.4905980000000 1.0
C      1  0.5138250000000  0.5154600000000  0.4891070000000 1.0
C      1  0.5137800000000  0.4856860000000  0.4884500000000 1.0
C      1  0.4841100000000  0.5154570000000  0.4912550000000 1.0
C      1  0.4527250000000  0.4611300000000  0.5335020000000 1.0
C      1  0.5510860000000  0.5381970000000  0.5280990000000 1.0
C      1  0.5509700000000  0.4611390000000  0.5263980000000 1.0
C      1  0.4528410000000  0.5381880000000  0.5352030000000 1.0
C      1  0.5529160000000  0.5158170000000  0.4783610000000 1.0
C      1  0.4438340000000  0.4856760000000  0.4855800000000 1.0
C      1  0.4438790000000  0.5158070000000  0.4862450000000 1.0
C      1  0.5528710000000  0.4856860000000  0.4776960000000 1.0
C      1  0.4946650000000  0.5018850000000  0.4306540000000 1.0
END
