TITL C-132121-3321-5 -0.0835711075408389 125000 -368.655296256961 0 0 55 (C1) n - 1
REM
REM in /rds/project/t2_vol4/rds-t2-cs072/BORA/CARBON/from-Arr/AIRSS/Generating-Clusters/GAP-ML-2020/Higher-Symm/SD-CG/HFTN-CG
REM
REM
REM
REM
REM
REM ./C.cell (b20cbc046b6831c77cfcea5457e17084)
REM AIRSS Version 0.9.1 bugfix July 2018 build 013d7b7c2542+ Fri, 06 Jul 2018 19:26:36 +0100
REM compiler GCC version 9.3.0
REM options -cpp -mtune=generic -march=x86-64 -g -O0
REM seed -1649962048 -73707632 2078387593 1657452377 247084806 -725850316 317914683 -191471329 -1068822883 1066942873 1394577025 -1946886491 65464542 -536886148 2011611583 219139719 -1948256907 620925948 -1708197009 667271410 -1291966548 767290675 -1571159388 181929640 781099395 -1727369826 1289116994 364356669 -1547698659 -1662521313 -772245712 -1287768813 1358689745
REM
CELL 1.54180   50.00000   50.00000   50.00000   90.00000   90.00000   90.00000
LATT -1
SFAC C  
C      1  0.4361620000000  0.4691400000000  0.5391430000000 1.0
C      1  0.4897570000000  0.4597170000000  0.5713350000000 1.0
C      1  0.5787560000000  0.4642360000000  0.5314620000000 1.0
C      1  0.5665160000000  0.4610350000000  0.4674660000000 1.0
C      1  0.4891240000000  0.4604570000000  0.4194240000000 1.0
C      1  0.4374380000000  0.4603140000000  0.4629340000000 1.0
C      1  0.4422940000000  0.5360860000000  0.5483950000000 1.0
C      1  0.5299340000000  0.5111260000000  0.5600630000000 1.0
C      1  0.5704040000000  0.5343560000000  0.5300850000000 1.0
C      1  0.5352180000000  0.5101150000000  0.4481280000000 1.0
C      1  0.4868060000000  0.5318510000000  0.4283700000000 1.0
C      1  0.4272700000000  0.5309440000000  0.4782430000000 1.0
C      1  0.5080650000000  0.4794980000000  0.4727710000000 1.0
C      1  0.4791090000000  0.4761030000000  0.4799340000000 1.0
C      1  0.4718270000000  0.4816920000000  0.5094740000000 1.0
C      1  0.4950000000000  0.4828060000000  0.5298880000000 1.0
C      1  0.5232970000000  0.4822250000000  0.5223510000000 1.0
C      1  0.5304480000000  0.4790560000000  0.4934280000000 1.0
C      1  0.5064730000000  0.5419130000000  0.4748470000000 1.0
C      1  0.4668890000000  0.5218510000000  0.4702550000000 1.0
C      1  0.4725720000000  0.5444770000000  0.5110930000000 1.0
C      1  0.4881020000000  0.5294360000000  0.5523930000000 1.0
C      1  0.5212680000000  0.5440730000000  0.5223410000000 1.0
C      1  0.5492310000000  0.5266710000000  0.4889210000000 1.0
C      1  0.4796660000000  0.4529710000000  0.4417360000000 1.0
C      1  0.4649690000000  0.4521340000000  0.4642550000000 1.0
C      1  0.4596760000000  0.4595420000000  0.5295930000000 1.0
C      1  0.4830050000000  0.4569030000000  0.5453500000000 1.0
C      1  0.5647220000000  0.4560290000000  0.5123200000000 1.0
C      1  0.5507930000000  0.4546510000000  0.4894580000000 1.0
C      1  0.4856100000000  0.5362600000000  0.4562800000000 1.0
C      1  0.4538680000000  0.5277950000000  0.4952210000000 1.0
C      1  0.4671140000000  0.5436120000000  0.5394290000000 1.0
C      1  0.5150110000000  0.5336750000000  0.5480460000000 1.0
C      1  0.5484460000000  0.5398330000000  0.5139110000000 1.0
C      1  0.5317620000000  0.5315450000000  0.4681170000000 1.0
C      1  0.4993950000000  0.4865010000000  0.4245100000000 1.0
C      1  0.4353570000000  0.4876900000000  0.4627170000000 1.0
C      1  0.4327760000000  0.4965380000000  0.5338670000000 1.0
C      1  0.4961170000000  0.4870710000000  0.5766570000000 1.0
C      1  0.5690820000000  0.4893080000000  0.5402630000000 1.0
C      1  0.5677120000000  0.4886290000000  0.4648900000000 1.0
C      1  0.4907970000000  0.5117680000000  0.4129650000000 1.0
C      1  0.4180400000000  0.5095570000000  0.4679620000000 1.0
C      1  0.4237140000000  0.5186890000000  0.5500650000000 1.0
C      1  0.5181740000000  0.5014100000000  0.5835030000000 1.0
C      1  0.5829750000000  0.5148720000000  0.5411400000000 1.0
C      1  0.5617060000000  0.5037370000000  0.4435650000000 1.0
C      1  0.4852530000000  0.5005150000000  0.5533110000000 1.0
C      1  0.5544820000000  0.4984810000000  0.4891320000000 1.0
C      1  0.4509350000000  0.5017250000000  0.5119290000000 1.0
C      1  0.4630320000000  0.4951340000000  0.4632740000000 1.0
C      1  0.5408560000000  0.4903510000000  0.5427440000000 1.0
C      1  0.5159030000000  0.4882670000000  0.4474860000000 1.0
C      1  0.4999700000000  0.5449360000000  0.5025170000000 1.0
END
