TITL C-133520-5386-8 0.126168476990938 125000 -192.499577076114 0 0 30 (C1) n - 1
REM
REM in /rds/project/t2_vol4/rds-t2-cs072/BORA/CARBON/from-Arr/AIRSS/Generating-Clusters/GAP-ML-2020/Higher-Symm/SD-CG/HFTN-CG
REM
REM
REM
REM
REM
REM ./C.cell (b20cbc046b6831c77cfcea5457e17084)
REM AIRSS Version 0.9.1 bugfix July 2018 build 013d7b7c2542+ Fri, 06 Jul 2018 19:26:36 +0100
REM compiler GCC version 9.3.0
REM options -cpp -mtune=generic -march=x86-64 -g -O0
REM seed 1819236467 1911406117 -1852367177 -680049132 -531273828 885920128 521506045 -2008162486 315176812 -794539629 -1476770323 -1976598927 659651354 -1793740936 112182059 1912988321 -1587250969 -1897591598 25153511 -303597621 -952627546 -1305798684 -1222675104 1103337717 -1955105160 730814322 -882034842 1347614584 1891292940 -342624023 570646875 1677110186 809811657
REM
CELL 1.54180   50.00000   50.00000   50.00000   90.00000   90.00000   90.00000
LATT -1
SFAC C  
C      1  0.4735440000000  0.5463370000000  0.4418530000000 1.0
C      1  0.5195780000000  0.5414510000000  0.5170700000000 1.0
C      1  0.4946960000000  0.5443760000000  0.5199310000000 1.0
C      1  0.4791680000000  0.5005060000000  0.4523510000000 1.0
C      1  0.5495040000000  0.5016980000000  0.5068470000000 1.0
C      1  0.4749350000000  0.5046950000000  0.5420540000000 1.0
C      1  0.4872670000000  0.4951130000000  0.5652900000000 1.0
C      1  0.4505290000000  0.4974350000000  0.4569020000000 1.0
C      1  0.5628530000000  0.4975200000000  0.4824340000000 1.0
C      1  0.5084010000000  0.4483330000000  0.4870360000000 1.0
C      1  0.5012870000000  0.4466080000000  0.5144560000000 1.0
C      1  0.4815000000000  0.4494450000000  0.4947820000000 1.0
C      1  0.4817410000000  0.4862870000000  0.5221600000000 1.0
C      1  0.4919580000000  0.4883760000000  0.4739530000000 1.0
C      1  0.5282520000000  0.4825870000000  0.5077740000000 1.0
C      1  0.4904150000000  0.5254530000000  0.4396510000000 1.0
C      1  0.5420440000000  0.5239330000000  0.5241180000000 1.0
C      1  0.4705480000000  0.5315100000000  0.5297190000000 1.0
C      1  0.5417590000000  0.4907880000000  0.4647240000000 1.0
C      1  0.5112280000000  0.4834470000000  0.5576470000000 1.0
C      1  0.4477830000000  0.4956510000000  0.4843110000000 1.0
C      1  0.5185630000000  0.4776910000000  0.4801720000000 1.0
C      1  0.5079920000000  0.4744160000000  0.5276350000000 1.0
C      1  0.4725960000000  0.4813680000000  0.4952260000000 1.0
C      1  0.5346850000000  0.5096080000000  0.4463210000000 1.0
C      1  0.5357040000000  0.4946430000000  0.5662530000000 1.0
C      1  0.4333530000000  0.5132430000000  0.5007110000000 1.0
C      1  0.4475610000000  0.5292030000000  0.5146520000000 1.0
C      1  0.5192550000000  0.5256880000000  0.4347780000000 1.0
C      1  0.5413010000000  0.5125910000000  0.5491890000000 1.0
END
