TITL C-131470-8696-6 2.55417943652096 125000 -564.140865894828 0 0 85 (Cs) n - 1
REM
REM in /rds/project/t2_vol4/rds-t2-cs072/BORA/CARBON/from-Arr/AIRSS/Generating-Clusters/GAP-ML-2020/Higher-Symm/SD-CG/HFTN-CG
REM
REM
REM
REM
REM
REM ./C.cell (b20cbc046b6831c77cfcea5457e17084)
REM AIRSS Version 0.9.1 bugfix July 2018 build 013d7b7c2542+ Fri, 06 Jul 2018 19:26:36 +0100
REM compiler GCC version 9.3.0
REM options -cpp -mtune=generic -march=x86-64 -g -O0
REM seed 2145127655 -1330786326 1661912087 1911788382 -950838129 -1070187516 -1112866271 -898966345 80820529 1177112228 -129422666 804631642 458215572 955667067 -1732774268 496260179 -1075799457 -1405064419 -839342325 1676962089 1912547333 -942786804 1869970202 -1397647744 2044642294 499824683 -1439297586 1487083273 -1227657199 1794501949 -1240222636 -1377637931 1453028848
REM
CELL 1.54180   50.00000   50.00000   50.00000   90.00000   90.00000   90.00000
LATT -1
SFAC C  
C      1  0.5082510000000  0.5422890000000  0.4402730000000 1.0
C      1  0.4597240000000  0.5420960000000  0.4549210000000 1.0
C      1  0.4399190000000  0.5420960000000  0.5044060000000 1.0
C      1  0.4649380000000  0.5422890000000  0.5484900000000 1.0
C      1  0.5180500000000  0.5422490000000  0.5568010000000 1.0
C      1  0.5550110000000  0.5414580000000  0.5217650000000 1.0
C      1  0.5524300000000  0.5422490000000  0.4709020000000 1.0
C      1  0.4677070000000  0.5870380000000  0.5018090000000 1.0
C      1  0.4815280000000  0.5873130000000  0.5260230000000 1.0
C      1  0.5090360000000  0.5872900000000  0.5303960000000 1.0
C      1  0.5296910000000  0.5870440000000  0.5116310000000 1.0
C      1  0.5276880000000  0.5872900000000  0.4837960000000 1.0
C      1  0.5047590000000  0.5873130000000  0.4679820000000 1.0
C      1  0.4780470000000  0.5870380000000  0.4759740000000 1.0
C      1  0.4322570000000  0.4744510000000  0.5381910000000 1.0
C      1  0.4887630000000  0.4759400000000  0.5718740000000 1.0
C      1  0.5525810000000  0.4738920000000  0.5561900000000 1.0
C      1  0.5770040000000  0.4738920000000  0.4951690000000 1.0
C      1  0.5416300000000  0.4759400000000  0.4397850000000 1.0
C      1  0.4774890000000  0.4744510000000  0.4251790000000 1.0
C      1  0.4301700000000  0.4750680000000  0.4717980000000 1.0
C      1  0.4460700000000  0.4537330000000  0.5531670000000 1.0
C      1  0.5091170000000  0.4553380000000  0.5724100000000 1.0
C      1  0.5638210000000  0.4527580000000  0.5395780000000 1.0
C      1  0.5717160000000  0.4533350000000  0.4751690000000 1.0
C      1  0.5233490000000  0.4555050000000  0.4306890000000 1.0
C      1  0.4599390000000  0.4536090000000  0.4354250000000 1.0
C      1  0.4265680000000  0.4547330000000  0.4922020000000 1.0
C      1  0.5340530000000  0.4798550000000  0.4981600000000 1.0
C      1  0.5151630000000  0.4887720000000  0.4789240000000 1.0
C      1  0.4901090000000  0.4789880000000  0.4674290000000 1.0
C      1  0.4726410000000  0.4872710000000  0.4887970000000 1.0
C      1  0.4705420000000  0.4789880000000  0.5163160000000 1.0
C      1  0.4966090000000  0.4887720000000  0.5252820000000 1.0
C      1  0.5235540000000  0.4798550000000  0.5243910000000 1.0
C      1  0.4416400000000  0.4547330000000  0.4545430000000 1.0
C      1  0.4266220000000  0.4536090000000  0.5186660000000 1.0
C      1  0.4692540000000  0.4555050000000  0.5658450000000 1.0
C      1  0.5349540000000  0.4533350000000  0.5670190000000 1.0
C      1  0.5736780000000  0.4527580000000  0.5149500000000 1.0
C      1  0.5567340000000  0.4553380000000  0.4534400000000 1.0
C      1  0.4978200000000  0.4537330000000  0.4238700000000 1.0
C      1  0.4462800000000  0.4995980000000  0.4782460000000 1.0
C      1  0.4487450000000  0.4980190000000  0.5287770000000 1.0
C      1  0.4915630000000  0.5001350000000  0.5544480000000 1.0
C      1  0.5400590000000  0.4981230000000  0.5431080000000 1.0
C      1  0.5589140000000  0.4981230000000  0.4960000000000 1.0
C      1  0.5316350000000  0.5001350000000  0.4543310000000 1.0
C      1  0.4829290000000  0.4980190000000  0.4433690000000 1.0
C      1  0.4341990000000  0.5515800000000  0.4734110000000 1.0
C      1  0.4386700000000  0.5514140000000  0.5341990000000 1.0
C      1  0.4885970000000  0.5517320000000  0.5695580000000 1.0
C      1  0.5474080000000  0.5509400000000  0.5509000000000 1.0
C      1  0.5696100000000  0.5509400000000  0.4954300000000 1.0
C      1  0.5399130000000  0.5517320000000  0.4413470000000 1.0
C      1  0.4793770000000  0.5514140000000  0.4324940000000 1.0
C      1  0.4586480000000  0.5134400000000  0.4541130000000 1.0
C      1  0.4385810000000  0.5134400000000  0.5042480000000 1.0
C      1  0.4649870000000  0.5136070000000  0.5493030000000 1.0
C      1  0.5181920000000  0.5136850000000  0.5577030000000 1.0
C      1  0.5568810000000  0.5127570000000  0.5225140000000 1.0
C      1  0.5531550000000  0.5136850000000  0.4703470000000 1.0
C      1  0.5088470000000  0.5136070000000  0.4397180000000 1.0
C      1  0.5339460000000  0.4255850000000  0.4975320000000 1.0
C      1  0.5190220000000  0.4265950000000  0.4723830000000 1.0
C      1  0.4902070000000  0.4264760000000  0.4673240000000 1.0
C      1  0.4688220000000  0.4263640000000  0.4872680000000 1.0
C      1  0.4705400000000  0.4264760000000  0.5164600000000 1.0
C      1  0.4948890000000  0.4265950000000  0.5326790000000 1.0
C      1  0.5230430000000  0.4255850000000  0.5247720000000 1.0
C      1  0.5341330000000  0.4367910000000  0.4505860000000 1.0
C      1  0.4823910000000  0.4357080000000  0.4410990000000 1.0
C      1  0.4440660000000  0.4363140000000  0.4773600000000 1.0
C      1  0.4467890000000  0.4357080000000  0.5300500000000 1.0
C      1  0.4907880000000  0.4367910000000  0.5588830000000 1.0
C      1  0.5414040000000  0.4346810000000  0.5450890000000 1.0
C      1  0.5612540000000  0.4346810000000  0.4954930000000 1.0
C      1  0.5283090000000  0.5562000000000  0.4832790000000 1.0
C      1  0.5049240000000  0.5562310000000  0.4671260000000 1.0
C      1  0.4776590000000  0.5559410000000  0.4754560000000 1.0
C      1  0.4670690000000  0.5559410000000  0.5019160000000 1.0
C      1  0.4810570000000  0.5562310000000  0.5267570000000 1.0
C      1  0.5091290000000  0.5562000000000  0.5312000000000 1.0
C      1  0.5298890000000  0.5558530000000  0.5117100000000 1.0
C      1  0.4975110000000  0.5037210000000  0.4987510000000 1.0
END
