TITL C-132111-2732-8 -44.4126887543003 125000 -77.5679722120691 0 0 13 (C1) n - 1
REM
REM in /rds/project/t2_vol4/rds-t2-cs072/BORA/CARBON/from-Arr/AIRSS/Generating-Clusters/GAP-ML-2020/Higher-Symm/SD-CG/HFTN-CG
REM
REM
REM
REM
REM
REM ./C.cell (b20cbc046b6831c77cfcea5457e17084)
REM AIRSS Version 0.9.1 bugfix July 2018 build 013d7b7c2542+ Fri, 06 Jul 2018 19:26:36 +0100
REM compiler GCC version 9.3.0
REM options -cpp -mtune=generic -march=x86-64 -g -O0
REM seed -2125231871 1079254134 -996410886 -1902130510 1622168355 76522101 1095072281 1065946393 -1688054311 -1772249214 -558635883 1755653375 -1130377369 856139991 -830855846 -1805060538 2121760310 -1947506796 -1808673409 -1217932161 -962629662 -1538775204 268953955 1744828848 -271087697 1930247818 -305466534 -2002248457 -806565613 -1009942513 -1215299498 -710948863 -1784137380
REM
CELL 1.54180   50.00000   50.00000   50.00000   90.00000   90.00000   90.00000
LATT -1
SFAC C  
C      1  0.4779960000000  0.5120440000000  0.4436800000000 1.0
C      1  0.5020890000000  0.5223350000000  0.4387370000000 1.0
C      1  0.5249910000000  0.5098730000000  0.4433090000000 1.0
C      1  0.5256350000000  0.4872460000000  0.4570040000000 1.0
C      1  0.4769190000000  0.4891370000000  0.4568390000000 1.0
C      1  0.4804110000000  0.4873080000000  0.5595040000000 1.0
C      1  0.5045580000000  0.4749330000000  0.5594870000000 1.0
C      1  0.5203120000000  0.4982960000000  0.5617850000000 1.0
C      1  0.5178540000000  0.5239240000000  0.5576910000000 1.0
C      1  0.4936040000000  0.5113020000000  0.5469240000000 1.0
C      1  0.4959960000000  0.5072020000000  0.5197530000000 1.0
C      1  0.5011030000000  0.4839810000000  0.4736700000000 1.0
C      1  0.5011450000000  0.4958000000000  0.4984340000000 1.0
END
