TITL C-132112-1198-8 -12.5850011051243 125000 -1071.35282657621 0 0 154 (Cs) n - 1
REM
REM in /rds/project/t2_vol4/rds-t2-cs072/BORA/CARBON/from-Arr/AIRSS/Generating-Clusters/GAP-ML-2020/Higher-Symm/SD-CG/HFTN-CG
REM
REM
REM
REM
REM
REM ./C.cell (b20cbc046b6831c77cfcea5457e17084)
REM AIRSS Version 0.9.1 bugfix July 2018 build 013d7b7c2542+ Fri, 06 Jul 2018 19:26:36 +0100
REM compiler GCC version 9.3.0
REM options -cpp -mtune=generic -march=x86-64 -g -O0
REM seed 490479052 -265598482 1329871462 -1013253573 -893594289 1937196592 2061677199 -313235055 50664232 -1802206417 1748635152 -200245789 473452305 176254069 -174795105 -720261333 1297209762 -1170982930 34955986 82784768 690524063 -18389246 -605898709 -559058219 -577914084 -1049667760 -784415334 1321701066 1128450290 -126303639 1596057118 -1166551697 -1070853870
REM
CELL 1.54180   50.00000   50.00000   50.00000   90.00000   90.00000   90.00000
LATT -1
SFAC C  
C      1  0.5135930000000  0.4832700000000  0.4036010000000 1.0
C      1  0.4864150000000  0.4832690000000  0.4036000000000 1.0
C      1  0.4258280000000  0.4919950000000  0.4347160000000 1.0
C      1  0.5741770000000  0.4920000000000  0.4347210000000 1.0
C      1  0.5542630000000  0.5653630000000  0.4314740000000 1.0
C      1  0.4457390000000  0.5653600000000  0.4314700000000 1.0
C      1  0.4474030000000  0.5334900000000  0.5773700000000 1.0
C      1  0.5525890000000  0.5334940000000  0.5773740000000 1.0
C      1  0.4843630000000  0.4377360000000  0.4862920000000 1.0
C      1  0.5156420000000  0.4377370000000  0.4862940000000 1.0
C      1  0.4857080000000  0.5695210000000  0.4077000000000 1.0
C      1  0.5142950000000  0.5695220000000  0.4077020000000 1.0
C      1  0.5955270000000  0.4675800000000  0.5431590000000 1.0
C      1  0.4044710000000  0.4675740000000  0.5431520000000 1.0
C      1  0.5149120000000  0.3844720000000  0.5431230000000 1.0
C      1  0.4850920000000  0.3844710000000  0.5431220000000 1.0
C      1  0.5660800000000  0.5187410000000  0.5036500000000 1.0
C      1  0.4339180000000  0.5187370000000  0.5036450000000 1.0
C      1  0.4856230000000  0.5255390000000  0.5465940000000 1.0
C      1  0.5143720000000  0.5255400000000  0.5465950000000 1.0
C      1  0.5325510000000  0.4466110000000  0.5853700000000 1.0
C      1  0.4674450000000  0.4466090000000  0.5853670000000 1.0
C      1  0.5339940000000  0.4176310000000  0.5020020000000 1.0
C      1  0.4660100000000  0.4176290000000  0.5019990000000 1.0
C      1  0.5597380000000  0.5389530000000  0.4190420000000 1.0
C      1  0.4402650000000  0.5389490000000  0.4190380000000 1.0
C      1  0.4850160000000  0.5447310000000  0.4973210000000 1.0
C      1  0.5149810000000  0.5447320000000  0.4973220000000 1.0
C      1  0.5282390000000  0.5888390000000  0.4773720000000 1.0
C      1  0.4717570000000  0.5888370000000  0.4773700000000 1.0
C      1  0.4232350000000  0.5443390000000  0.4628390000000 1.0
C      1  0.5767650000000  0.5443440000000  0.4628450000000 1.0
C      1  0.5974320000000  0.4891460000000  0.4847930000000 1.0
C      1  0.4025700000000  0.4891400000000  0.4847850000000 1.0
C      1  0.5292510000000  0.5788940000000  0.4290690000000 1.0
C      1  0.4707500000000  0.5788920000000  0.4290670000000 1.0
C      1  0.4371360000000  0.5749180000000  0.5062960000000 1.0
C      1  0.5628590000000  0.5749220000000  0.5063010000000 1.0
C      1  0.4206390000000  0.5209690000000  0.4329570000000 1.0
C      1  0.5793650000000  0.5209740000000  0.4329630000000 1.0
C      1  0.5766660000000  0.4476740000000  0.5556660000000 1.0
C      1  0.4233330000000  0.4476700000000  0.5556610000000 1.0
C      1  0.5240760000000  0.5247070000000  0.5184470000000 1.0
C      1  0.4759210000000  0.5247050000000  0.5184450000000 1.0
C      1  0.5523780000000  0.5059670000000  0.5754490000000 1.0
C      1  0.4476160000000  0.5059640000000  0.5754450000000 1.0
C      1  0.4722100000000  0.5427290000000  0.5874050000000 1.0
C      1  0.5277800000000  0.5427310000000  0.5874070000000 1.0
C      1  0.4018810000000  0.5287490000000  0.4551250000000 1.0
C      1  0.5981210000000  0.5287550000000  0.4551320000000 1.0
C      1  0.5778280000000  0.4807570000000  0.4620110000000 1.0
C      1  0.4221760000000  0.4807520000000  0.4620050000000 1.0
C      1  0.4545980000000  0.4151560000000  0.4716420000000 1.0
C      1  0.5454090000000  0.4151590000000  0.4716450000000 1.0
C      1  0.4619560000000  0.5675070000000  0.5482170000000 1.0
C      1  0.5380360000000  0.5675090000000  0.5482200000000 1.0
C      1  0.4854730000000  0.4439320000000  0.4369840000000 1.0
C      1  0.5145350000000  0.4439330000000  0.4369850000000 1.0
C      1  0.4615920000000  0.5783400000000  0.5223540000000 1.0
C      1  0.5384020000000  0.5783430000000  0.5223570000000 1.0
C      1  0.5153530000000  0.5434350000000  0.3954720000000 1.0
C      1  0.4846520000000  0.5434340000000  0.3954710000000 1.0
C      1  0.5507150000000  0.5233380000000  0.5288160000000 1.0
C      1  0.4492810000000  0.5233350000000  0.5288120000000 1.0
C      1  0.5747950000000  0.4892260000000  0.5066350000000 1.0
C      1  0.4252050000000  0.4892210000000  0.5066290000000 1.0
C      1  0.4827790000000  0.4073880000000  0.5237200000000 1.0
C      1  0.5172240000000  0.4073890000000  0.5237210000000 1.0
C      1  0.5790050000000  0.4535300000000  0.4758560000000 1.0
C      1  0.4209990000000  0.4535250000000  0.4758500000000 1.0
C      1  0.4475490000000  0.4832020000000  0.4192730000000 1.0
C      1  0.5524580000000  0.4832050000000  0.4192770000000 1.0
C      1  0.5147050000000  0.3953070000000  0.5714890000000 1.0
C      1  0.4852960000000  0.3953060000000  0.5714870000000 1.0
C      1  0.3986270000000  0.4518750000000  0.5194140000000 1.0
C      1  0.6013750000000  0.4518810000000  0.5194220000000 1.0
C      1  0.4451400000000  0.4979050000000  0.4703820000000 1.0
C      1  0.5548630000000  0.4979080000000  0.4703860000000 1.0
C      1  0.4847810000000  0.4917310000000  0.4523510000000 1.0
C      1  0.5152230000000  0.4917320000000  0.4523520000000 1.0
C      1  0.4324890000000  0.5698020000000  0.4556250000000 1.0
C      1  0.5675100000000  0.5698060000000  0.4556310000000 1.0
C      1  0.5280750000000  0.5358690000000  0.4724200000000 1.0
C      1  0.4719250000000  0.5358680000000  0.4724180000000 1.0
C      1  0.4191110000000  0.4331620000000  0.5295480000000 1.0
C      1  0.5808910000000  0.4331670000000  0.5295540000000 1.0
C      1  0.4441550000000  0.5826790000000  0.4789410000000 1.0
C      1  0.5558420000000  0.5826820000000  0.4789450000000 1.0
C      1  0.5697690000000  0.4264090000000  0.4788830000000 1.0
C      1  0.4302370000000  0.4264050000000  0.4788770000000 1.0
C      1  0.5300580000000  0.4631200000000  0.4939340000000 1.0
C      1  0.4699450000000  0.4631180000000  0.4939320000000 1.0
C      1  0.4855110000000  0.4953080000000  0.5600110000000 1.0
C      1  0.5144850000000  0.4953090000000  0.5600120000000 1.0
C      1  0.4735320000000  0.4961370000000  0.5875360000000 1.0
C      1  0.5264620000000  0.4961390000000  0.5875380000000 1.0
C      1  0.4606720000000  0.5278100000000  0.4003560000000 1.0
C      1  0.5393340000000  0.5278120000000  0.4003590000000 1.0
C      1  0.5863880000000  0.5467800000000  0.5424990000000 1.0
C      1  0.4136060000000  0.5467750000000  0.5424930000000 1.0
C      1  0.5257760000000  0.4713210000000  0.4291500000000 1.0
C      1  0.4742310000000  0.4713200000000  0.4291480000000 1.0
C      1  0.4855960000000  0.5887900000000  0.4521940000000 1.0
C      1  0.5144020000000  0.5887910000000  0.4521950000000 1.0
C      1  0.4841120000000  0.4256570000000  0.5715860000000 1.0
C      1  0.5158870000000  0.4256580000000  0.5715870000000 1.0
C      1  0.5379450000000  0.4993450000000  0.4002880000000 1.0
C      1  0.4620630000000  0.4993430000000  0.4002850000000 1.0
C      1  0.5591460000000  0.4483410000000  0.5763610000000 1.0
C      1  0.4408510000000  0.4483380000000  0.5763570000000 1.0
C      1  0.4848160000000  0.4690150000000  0.5931520000000 1.0
C      1  0.5151790000000  0.4690160000000  0.5931540000000 1.0
C      1  0.3943530000000  0.5168720000000  0.4808160000000 1.0
C      1  0.6056480000000  0.5168790000000  0.4808240000000 1.0
C      1  0.4838240000000  0.4740680000000  0.5181200000000 1.0
C      1  0.5161760000000  0.4740690000000  0.5181210000000 1.0
C      1  0.5155740000000  0.5543640000000  0.5628020000000 1.0
C      1  0.4844180000000  0.5543630000000  0.5628010000000 1.0
C      1  0.4439860000000  0.4984560000000  0.5460000000000 1.0
C      1  0.5560110000000  0.4984590000000  0.5460040000000 1.0
C      1  0.5556570000000  0.5262130000000  0.4768980000000 1.0
C      1  0.4443430000000  0.5262100000000  0.4768940000000 1.0
C      1  0.5968080000000  0.5209580000000  0.5337360000000 1.0
C      1  0.4031880000000  0.5209520000000  0.5337280000000 1.0
C      1  0.5158610000000  0.5770960000000  0.5021780000000 1.0
C      1  0.4841340000000  0.5770950000000  0.5021770000000 1.0
C      1  0.3971770000000  0.4608160000000  0.4927490000000 1.0
C      1  0.6028250000000  0.4608230000000  0.4927570000000 1.0
C      1  0.4861350000000  0.5204530000000  0.5990460000000 1.0
C      1  0.5138560000000  0.5204540000000  0.5990470000000 1.0
C      1  0.5592320000000  0.5468630000000  0.5524380000000 1.0
C      1  0.4407610000000  0.5468590000000  0.5524330000000 1.0
C      1  0.4055300000000  0.5306720000000  0.5060080000000 1.0
C      1  0.5944680000000  0.5306780000000  0.5060150000000 1.0
C      1  0.5606320000000  0.4318820000000  0.5089870000000 1.0
C      1  0.4393710000000  0.4318780000000  0.5089830000000 1.0
C      1  0.5590550000000  0.4612490000000  0.4998430000000 1.0
C      1  0.4409470000000  0.4612460000000  0.4998380000000 1.0
C      1  0.5851230000000  0.5584450000000  0.5156220000000 1.0
C      1  0.4148720000000  0.5584400000000  0.5156160000000 1.0
C      1  0.4854730000000  0.4318040000000  0.5420290000000 1.0
C      1  0.5145280000000  0.4318040000000  0.5420300000000 1.0
C      1  0.5841290000000  0.4933680000000  0.5360570000000 1.0
C      1  0.4158690000000  0.4933630000000  0.5360510000000 1.0
C      1  0.5143260000000  0.5233910000000  0.4511850000000 1.0
C      1  0.4856770000000  0.5233900000000  0.4511840000000 1.0
C      1  0.5250510000000  0.4291500000000  0.4586140000000 1.0
C      1  0.4749560000000  0.4291490000000  0.4586120000000 1.0
C      1  0.4685630000000  0.4800420000000  0.5420450000000 1.0
C      1  0.5314350000000  0.4800440000000  0.5420470000000 1.0
C      1  0.4715670000000  0.4880640000000  0.4779240000000 1.0
C      1  0.5284360000000  0.4880660000000  0.4779270000000 1.0
C      1  0.5149480000000  0.5010380000000  0.5029760000000 1.0
C      1  0.4850510000000  0.5010370000000  0.5029750000000 1.0
END
