TITL C-133528-5442-1 230.969488414362 125000 -795.331016043001 0 0 110 (C1) n - 1
REM
REM in /rds/project/t2_vol4/rds-t2-cs072/BORA/CARBON/from-Arr/AIRSS/Generating-Clusters/GAP-ML-2020/Higher-Symm/SD-CG/HFTN-CG
REM
REM
REM
REM
REM
REM ./C.cell (b20cbc046b6831c77cfcea5457e17084)
REM AIRSS Version 0.9.1 bugfix July 2018 build 013d7b7c2542+ Fri, 06 Jul 2018 19:26:36 +0100
REM compiler GCC version 9.3.0
REM options -cpp -mtune=generic -march=x86-64 -g -O0
REM seed 881785149 1003528115 1487496240 1026085213 -606049086 1742392004 -1411280846 -902810609 -1775423772 707014503 -396395393 -883451955 -1646095319 1304068544 -1550044450 -1403547808 2130300874 1140377909 -352080518 -1010963998 -71891478 -1456144991 705831202 -933372979 150087428 -168600143 2140564437 -666290075 1343666398 1383452596 1413883841 936881815 600576270
REM
CELL 1.54180   50.00000   50.00000   50.00000   90.00000   90.00000   90.00000
LATT -1
SFAC C  
C      1  0.5085680000000  0.4415470000000  0.4459780000000 1.0
C      1  0.4783060000000  0.4354990000000  0.4440440000000 1.0
C      1  0.4575570000000  0.4410900000000  0.4659040000000 1.0
C      1  0.4437380000000  0.4333320000000  0.4919400000000 1.0
C      1  0.4604000000000  0.4252620000000  0.5133800000000 1.0
C      1  0.4844410000000  0.4113520000000  0.5108880000000 1.0
C      1  0.5092950000000  0.4105870000000  0.5166720000000 1.0
C      1  0.5308070000000  0.4238070000000  0.5284220000000 1.0
C      1  0.5538610000000  0.4319530000000  0.5140780000000 1.0
C      1  0.5483900000000  0.4401720000000  0.4844230000000 1.0
C      1  0.5370690000000  0.4346410000000  0.4558090000000 1.0
C      1  0.5585910000000  0.5358790000000  0.4348540000000 1.0
C      1  0.5162700000000  0.5364570000000  0.4126980000000 1.0
C      1  0.4687140000000  0.5371090000000  0.4170950000000 1.0
C      1  0.4311860000000  0.5378800000000  0.4474980000000 1.0
C      1  0.4162170000000  0.5394520000000  0.4933340000000 1.0
C      1  0.4277100000000  0.5415830000000  0.5400210000000 1.0
C      1  0.4616720000000  0.5450200000000  0.5755100000000 1.0
C      1  0.5103210000000  0.5463200000000  0.5859360000000 1.0
C      1  0.5552140000000  0.5420770000000  0.5657800000000 1.0
C      1  0.5809060000000  0.5372370000000  0.5251370000000 1.0
C      1  0.5820030000000  0.5356020000000  0.4767920000000 1.0
C      1  0.5545430000000  0.5126930000000  0.5679430000000 1.0
C      1  0.5847790000000  0.5090900000000  0.5276760000000 1.0
C      1  0.5856280000000  0.5074040000000  0.4762910000000 1.0
C      1  0.5613520000000  0.5075500000000  0.4317820000000 1.0
C      1  0.5164360000000  0.5078610000000  0.4091040000000 1.0
C      1  0.4661850000000  0.5089150000000  0.4127330000000 1.0
C      1  0.4273010000000  0.5096020000000  0.4456920000000 1.0
C      1  0.4115290000000  0.5113770000000  0.4946320000000 1.0
C      1  0.4220060000000  0.5141760000000  0.5446520000000 1.0
C      1  0.4568180000000  0.5184970000000  0.5844790000000 1.0
C      1  0.5092670000000  0.5176290000000  0.5911560000000 1.0
C      1  0.5064270000000  0.4648240000000  0.5884350000000 1.0
C      1  0.5452110000000  0.4609430000000  0.5635910000000 1.0
C      1  0.5710780000000  0.4532680000000  0.5247360000000 1.0
C      1  0.5740480000000  0.4541780000000  0.4792490000000 1.0
C      1  0.5537270000000  0.4518080000000  0.4389690000000 1.0
C      1  0.5140720000000  0.4530720000000  0.4179530000000 1.0
C      1  0.4693950000000  0.4530110000000  0.4222450000000 1.0
C      1  0.4354180000000  0.4554780000000  0.4516830000000 1.0
C      1  0.4241250000000  0.4552530000000  0.4959470000000 1.0
C      1  0.4355110000000  0.4621450000000  0.5414560000000 1.0
C      1  0.4614820000000  0.4646450000000  0.5791850000000 1.0
C      1  0.4670240000000  0.5683420000000  0.5329840000000 1.0
C      1  0.4924840000000  0.5690710000000  0.5467100000000 1.0
C      1  0.5213740000000  0.5690610000000  0.5446320000000 1.0
C      1  0.5438720000000  0.5682460000000  0.5265070000000 1.0
C      1  0.5526220000000  0.5671820000000  0.4987520000000 1.0
C      1  0.5453110000000  0.5668950000000  0.4704510000000 1.0
C      1  0.5243110000000  0.5671280000000  0.4503850000000 1.0
C      1  0.4957780000000  0.5675310000000  0.4445250000000 1.0
C      1  0.4689950000000  0.5678320000000  0.4552300000000 1.0
C      1  0.4525720000000  0.5683990000000  0.4790320000000 1.0
C      1  0.4521960000000  0.5685990000000  0.5081680000000 1.0
C      1  0.4435010000000  0.4959540000000  0.4257930000000 1.0
C      1  0.4165550000000  0.4969310000000  0.4697060000000 1.0
C      1  0.4137010000000  0.4989080000000  0.5206300000000 1.0
C      1  0.4356030000000  0.5038580000000  0.5684850000000 1.0
C      1  0.4804450000000  0.5059600000000  0.5975410000000 1.0
C      1  0.5367490000000  0.5022860000000  0.5904110000000 1.0
C      1  0.5749630000000  0.4964300000000  0.5514690000000 1.0
C      1  0.5875830000000  0.4948290000000  0.5023040000000 1.0
C      1  0.5771500000000  0.4941340000000  0.4520370000000 1.0
C      1  0.5408530000000  0.4940570000000  0.4164860000000 1.0
C      1  0.4906730000000  0.4948180000000  0.4064250000000 1.0
C      1  0.5663240000000  0.5491070000000  0.4581700000000 1.0
C      1  0.5353340000000  0.5495610000000  0.4282390000000 1.0
C      1  0.4931840000000  0.5502150000000  0.4197200000000 1.0
C      1  0.4531610000000  0.5507180000000  0.4359180000000 1.0
C      1  0.4283820000000  0.5518350000000  0.4714530000000 1.0
C      1  0.4272110000000  0.5532350000000  0.5149110000000 1.0
C      1  0.4489800000000  0.5546670000000  0.5525770000000 1.0
C      1  0.4869830000000  0.5573730000000  0.5740700000000 1.0
C      1  0.5310500000000  0.5557280000000  0.5697440000000 1.0
C      1  0.5645060000000  0.5525870000000  0.5416780000000 1.0
C      1  0.5767470000000  0.5493860000000  0.5002860000000 1.0
C      1  0.4717220000000  0.4715990000000  0.5086830000000 1.0
C      1  0.4610670000000  0.4493870000000  0.5330750000000 1.0
C      1  0.4741630000000  0.4482300000000  0.5600240000000 1.0
C      1  0.5018300000000  0.4482060000000  0.5661010000000 1.0
C      1  0.5241540000000  0.4486510000000  0.5463850000000 1.0
C      1  0.5227360000000  0.4704000000000  0.5207160000000 1.0
C      1  0.5273660000000  0.4626360000000  0.4946860000000 1.0
C      1  0.5236570000000  0.4823920000000  0.4756720000000 1.0
C      1  0.5074280000000  0.4726040000000  0.4558200000000 1.0
C      1  0.4837890000000  0.4832340000000  0.4645740000000 1.0
C      1  0.4719340000000  0.4649180000000  0.4820200000000 1.0
C      1  0.4825610000000  0.5117740000000  0.4673630000000 1.0
C      1  0.4691210000000  0.5169970000000  0.4899190000000 1.0
C      1  0.4706940000000  0.5000850000000  0.5105360000000 1.0
C      1  0.4702890000000  0.5113540000000  0.5344530000000 1.0
C      1  0.4856900000000  0.4994120000000  0.5509920000000 1.0
C      1  0.5067410000000  0.5122390000000  0.5604790000000 1.0
C      1  0.5299690000000  0.5112910000000  0.5475540000000 1.0
C      1  0.5281450000000  0.4981100000000  0.5236030000000 1.0
C      1  0.5264300000000  0.5168970000000  0.5049170000000 1.0
C      1  0.5258410000000  0.5110220000000  0.4786120000000 1.0
C      1  0.5071420000000  0.5232130000000  0.4626720000000 1.0
C      1  0.5828270000000  0.4667960000000  0.5026590000000 1.0
C      1  0.5739580000000  0.4658450000000  0.4537930000000 1.0
C      1  0.5394450000000  0.4653330000000  0.4184600000000 1.0
C      1  0.4907120000000  0.4660100000000  0.4087520000000 1.0
C      1  0.4451410000000  0.4674490000000  0.4283290000000 1.0
C      1  0.4201680000000  0.4687500000000  0.4712100000000 1.0
C      1  0.4194710000000  0.4705370000000  0.5198810000000 1.0
C      1  0.4390230000000  0.4758960000000  0.5664000000000 1.0
C      1  0.4815790000000  0.4777930000000  0.5950160000000 1.0
C      1  0.5330960000000  0.4744610000000  0.5861260000000 1.0
C      1  0.5683570000000  0.4683390000000  0.5493050000000 1.0
END
