TITL C-132123-2955-10 -0.0380378700272135 125000 -125.289715903988 0 0 20 (C1) n - 1
REM
REM in /rds/project/t2_vol4/rds-t2-cs072/BORA/CARBON/from-Arr/AIRSS/Generating-Clusters/GAP-ML-2020/Higher-Symm/SD-CG/HFTN-CG
REM
REM
REM
REM
REM
REM ./C.cell (b20cbc046b6831c77cfcea5457e17084)
REM AIRSS Version 0.9.1 bugfix July 2018 build 013d7b7c2542+ Fri, 06 Jul 2018 19:26:36 +0100
REM compiler GCC version 9.3.0
REM options -cpp -mtune=generic -march=x86-64 -g -O0
REM seed 1255538673 -594520959 736123114 266016554 2087697521 -2145533183 2123364076 545201390 -1271032159 1865711041 1236936167 -85566431 105698322 -1489656217 1223739735 1157643844 -204687003 -743423814 603431412 -218047833 -171933733 1872632443 -719484625 56785186 -2001336748 -970088071 1734046861 -1602900737 1982518728 1169949134 501879385 -1337492229 -1075906274
REM
CELL 1.54180   50.00000   50.00000   50.00000   90.00000   90.00000   90.00000
LATT -1
SFAC C  
C      1  0.4885450000000  0.5066650000000  0.4674020000000 1.0
C      1  0.4948860000000  0.4830940000000  0.4581860000000 1.0
C      1  0.5129390000000  0.5075320000000  0.5314550000000 1.0
C      1  0.5080230000000  0.4848130000000  0.5423560000000 1.0
C      1  0.4296930000000  0.5389810000000  0.5176760000000 1.0
C      1  0.5592510000000  0.4670820000000  0.5268070000000 1.0
C      1  0.5689430000000  0.5447810000000  0.4816330000000 1.0
C      1  0.4397300000000  0.4687460000000  0.4718910000000 1.0
C      1  0.4543260000000  0.4688160000000  0.4926220000000 1.0
C      1  0.5453120000000  0.5384350000000  0.4883820000000 1.0
C      1  0.5455600000000  0.4578880000000  0.5068670000000 1.0
C      1  0.4542910000000  0.5376970000000  0.5114680000000 1.0
C      1  0.5019020000000  0.4684250000000  0.4812300000000 1.0
C      1  0.4941600000000  0.5299260000000  0.4792160000000 1.0
C      1  0.4982080000000  0.4676290000000  0.5221440000000 1.0
C      1  0.5055860000000  0.5297410000000  0.5188110000000 1.0
C      1  0.5199830000000  0.4630300000000  0.5014320000000 1.0
C      1  0.4794310000000  0.5323870000000  0.5052850000000 1.0
C      1  0.4791540000000  0.4711230000000  0.5018980000000 1.0
C      1  0.5200770000000  0.5332100000000  0.4932370000000 1.0
END
