TITL C-133511-5230-9 -107.804173504685 125000 -715.553908671556 0 0 104 (C1) n - 1
REM
REM in /rds/project/t2_vol4/rds-t2-cs072/BORA/CARBON/from-Arr/AIRSS/Generating-Clusters/GAP-ML-2020/Higher-Symm/SD-CG/HFTN-CG
REM
REM
REM
REM
REM
REM ./C.cell (b20cbc046b6831c77cfcea5457e17084)
REM AIRSS Version 0.9.1 bugfix July 2018 build 013d7b7c2542+ Fri, 06 Jul 2018 19:26:36 +0100
REM compiler GCC version 9.3.0
REM options -cpp -mtune=generic -march=x86-64 -g -O0
REM seed -1962655280 -1463269067 1991414803 996043265 177172550 -206311429 2119710070 1008977806 1910567948 -1767328422 797567484 -705948398 209929590 1075068932 1448984931 1123540005 -1052394650 946396705 -1683422997 764515459 652503361 734596654 1196434195 1770432784 -2096137525 500989852 1654898519 2141180429 767156419 -2031529235 217534449 -802146442 2082248039
REM
CELL 1.54180   50.00000   50.00000   50.00000   90.00000   90.00000   90.00000
LATT -1
SFAC C  
C      1  0.5519080000000  0.4593980000000  0.4460830000000 1.0
C      1  0.5565930000000  0.5377080000000  0.4484610000000 1.0
C      1  0.4828360000000  0.5656870000000  0.4482340000000 1.0
C      1  0.4308580000000  0.5053900000000  0.4467220000000 1.0
C      1  0.4744150000000  0.4389820000000  0.4481820000000 1.0
C      1  0.4643540000000  0.5441910000000  0.4576100000000 1.0
C      1  0.4450770000000  0.4809430000000  0.4561710000000 1.0
C      1  0.5014330000000  0.4475140000000  0.4571790000000 1.0
C      1  0.5622670000000  0.4873050000000  0.4507500000000 1.0
C      1  0.5289070000000  0.5470220000000  0.4567920000000 1.0
C      1  0.5149890000000  0.4091870000000  0.5132270000000 1.0
C      1  0.5946150000000  0.4928780000000  0.5143690000000 1.0
C      1  0.5392860000000  0.5852990000000  0.5129940000000 1.0
C      1  0.4295920000000  0.5641500000000  0.5137290000000 1.0
C      1  0.4228610000000  0.4486760000000  0.5165010000000 1.0
C      1  0.5455330000000  0.5640060000000  0.5306810000000 1.0
C      1  0.4516100000000  0.5634030000000  0.5317510000000 1.0
C      1  0.4240220000000  0.4695310000000  0.5363340000000 1.0
C      1  0.4952110000000  0.4186030000000  0.5314960000000 1.0
C      1  0.5768360000000  0.4799110000000  0.5329120000000 1.0
C      1  0.5488920000000  0.4384060000000  0.4652050000000 1.0
C      1  0.5775810000000  0.5289970000000  0.4655660000000 1.0
C      1  0.4974470000000  0.5815410000000  0.4660350000000 1.0
C      1  0.4210140000000  0.5241290000000  0.4658160000000 1.0
C      1  0.4544810000000  0.4346520000000  0.4671710000000 1.0
C      1  0.4899760000000  0.5796440000000  0.5149340000000 1.0
C      1  0.4178510000000  0.5154990000000  0.5168870000000 1.0
C      1  0.4714890000000  0.4314910000000  0.5175300000000 1.0
C      1  0.5523650000000  0.4423820000000  0.5145390000000 1.0
C      1  0.5722470000000  0.5365790000000  0.5143540000000 1.0
C      1  0.5496630000000  0.4702740000000  0.5238980000000 1.0
C      1  0.5432990000000  0.5357680000000  0.5210570000000 1.0
C      1  0.4791560000000  0.5540770000000  0.5244040000000 1.0
C      1  0.4370020000000  0.4953500000000  0.5272670000000 1.0
C      1  0.4891330000000  0.4567640000000  0.5201120000000 1.0
C      1  0.4365100000000  0.5478380000000  0.4674270000000 1.0
C      1  0.4350260000000  0.4550850000000  0.4679350000000 1.0
C      1  0.5221410000000  0.4287030000000  0.4674710000000 1.0
C      1  0.5836680000000  0.5008520000000  0.4651370000000 1.0
C      1  0.5248700000000  0.5742600000000  0.4670740000000 1.0
C      1  0.4537460000000  0.5896300000000  0.4837000000000 1.0
C      1  0.4043830000000  0.4833820000000  0.4878680000000 1.0
C      1  0.4846320000000  0.4006740000000  0.4808040000000 1.0
C      1  0.5877370000000  0.4573500000000  0.4852650000000 1.0
C      1  0.5711320000000  0.5734140000000  0.4827010000000 1.0
C      1  0.5159960000000  0.4316570000000  0.5484020000000 1.0
C      1  0.5723240000000  0.5020060000000  0.5501810000000 1.0
C      1  0.5235440000000  0.5678110000000  0.5489280000000 1.0
C      1  0.4406160000000  0.5443920000000  0.5501840000000 1.0
C      1  0.4421010000000  0.4554960000000  0.5542620000000 1.0
C      1  0.5322250000000  0.4885360000000  0.5016170000000 1.0
C      1  0.5234030000000  0.5209560000000  0.5011080000000 1.0
C      1  0.4923140000000  0.5276710000000  0.5053590000000 1.0
C      1  0.4606320000000  0.4921220000000  0.5048830000000 1.0
C      1  0.5032160000000  0.4775270000000  0.5024510000000 1.0
C      1  0.5066630000000  0.4764060000000  0.5860450000000 1.0
C      1  0.5228740000000  0.4997510000000  0.5841270000000 1.0
C      1  0.5061320000000  0.5230230000000  0.5847730000000 1.0
C      1  0.4788440000000  0.5144460000000  0.5870050000000 1.0
C      1  0.4787740000000  0.4851410000000  0.5879300000000 1.0
C      1  0.4772570000000  0.4588520000000  0.4256770000000 1.0
C      1  0.5323680000000  0.4632700000000  0.4257260000000 1.0
C      1  0.5446120000000  0.5284700000000  0.4238570000000 1.0
C      1  0.4919040000000  0.5475540000000  0.4259800000000 1.0
C      1  0.4525790000000  0.5081650000000  0.4257600000000 1.0
C      1  0.4675750000000  0.5313230000000  0.4293830000000 1.0
C      1  0.4598050000000  0.4800020000000  0.4297360000000 1.0
C      1  0.5062760000000  0.4573100000000  0.4285900000000 1.0
C      1  0.5480790000000  0.5019680000000  0.4289040000000 1.0
C      1  0.5187990000000  0.5423150000000  0.4279380000000 1.0
C      1  0.5861690000000  0.5173890000000  0.5292590000000 1.0
C      1  0.5138120000000  0.5856950000000  0.5278590000000 1.0
C      1  0.4207490000000  0.5405500000000  0.5288630000000 1.0
C      1  0.4455050000000  0.4371930000000  0.5314050000000 1.0
C      1  0.5354100000000  0.4246510000000  0.5277720000000 1.0
C      1  0.4884180000000  0.4677320000000  0.5474770000000 1.0
C      1  0.5366550000000  0.4736650000000  0.5498530000000 1.0
C      1  0.5337190000000  0.5248680000000  0.5474760000000 1.0
C      1  0.4851230000000  0.5438270000000  0.5514740000000 1.0
C      1  0.4555720000000  0.5005260000000  0.5512150000000 1.0
C      1  0.5111880000000  0.4088080000000  0.4851850000000 1.0
C      1  0.5939620000000  0.4845120000000  0.4869110000000 1.0
C      1  0.5453800000000  0.5835410000000  0.4852030000000 1.0
C      1  0.4344910000000  0.5696620000000  0.4860960000000 1.0
C      1  0.4169690000000  0.4588640000000  0.4897560000000 1.0
C      1  0.4681440000000  0.4939600000000  0.4762050000000 1.0
C      1  0.4949680000000  0.4776990000000  0.4732900000000 1.0
C      1  0.5393990000000  0.4847920000000  0.4727370000000 1.0
C      1  0.5136430000000  0.5223580000000  0.4703900000000 1.0
C      1  0.4824490000000  0.5239770000000  0.4757660000000 1.0
C      1  0.5788890000000  0.5477490000000  0.4882790000000 1.0
C      1  0.4805650000000  0.5887820000000  0.4890150000000 1.0
C      1  0.4094710000000  0.5100580000000  0.4894770000000 1.0
C      1  0.4669510000000  0.4196310000000  0.4891710000000 1.0
C      1  0.5660550000000  0.4413150000000  0.4886610000000 1.0
C      1  0.5424740000000  0.5000780000000  0.5602650000000 1.0
C      1  0.5126270000000  0.5413280000000  0.5603600000000 1.0
C      1  0.4617780000000  0.5275980000000  0.5629670000000 1.0
C      1  0.4616970000000  0.4736650000000  0.5654950000000 1.0
C      1  0.5136680000000  0.4588620000000  0.5608770000000 1.0
C      1  0.4868160000000  0.4968550000000  0.5430680000000 1.0
C      1  0.5161590000000  0.4949670000000  0.4595980000000 1.0
C      1  0.4864470000000  0.5008670000000  0.5156350000000 1.0
C      1  0.5226650000000  0.4892430000000  0.4295890000000 1.0
END
