TITL C-132109-1242-8 -3.9287410804309 125000 -1213.75216877486 0 0 170 (C1) n - 1
REM
REM in /rds/project/t2_vol4/rds-t2-cs072/BORA/CARBON/from-Arr/AIRSS/Generating-Clusters/GAP-ML-2020/Higher-Symm/SD-CG/HFTN-CG
REM
REM
REM
REM
REM
REM ./C.cell (b20cbc046b6831c77cfcea5457e17084)
REM AIRSS Version 0.9.1 bugfix July 2018 build 013d7b7c2542+ Fri, 06 Jul 2018 19:26:36 +0100
REM compiler GCC version 9.3.0
REM options -cpp -mtune=generic -march=x86-64 -g -O0
REM seed -1187829880 1770737266 732797995 359352870 -541945481 933639205 -2119654675 -181740615 -2022986703 -1500642123 1691533612 -2064586389 -349925919 -1779242007 1459432281 -1524168001 -498401048 -30743686 2037535603 1732419541 932645041 2146928347 -1163902079 1734626270 -82757163 -854794428 2086169217 -1964606705 67472501 -960926709 -1662547429 2143389556 -1125446987
REM
CELL 1.54180   50.00000   50.00000   50.00000   90.00000   90.00000   90.00000
LATT -1
SFAC C  
C      1  0.5632050000000  0.4418110000000  0.5689770000000 1.0
C      1  0.5631990000000  0.5582570000000  0.5692670000000 1.0
C      1  0.4374760000000  0.5840970000000  0.4888390000000 1.0
C      1  0.4371770000000  0.4157110000000  0.4889040000000 1.0
C      1  0.4152730000000  0.5669830000000  0.4832630000000 1.0
C      1  0.4151010000000  0.4329870000000  0.4833160000000 1.0
C      1  0.5218170000000  0.3820840000000  0.4696430000000 1.0
C      1  0.5211950000000  0.6187220000000  0.4698940000000 1.0
C      1  0.4399520000000  0.5302720000000  0.5673520000000 1.0
C      1  0.4399690000000  0.4697780000000  0.5672580000000 1.0
C      1  0.4888110000000  0.5584350000000  0.5791770000000 1.0
C      1  0.4888090000000  0.4415580000000  0.5790330000000 1.0
C      1  0.5346510000000  0.3971580000000  0.4533720000000 1.0
C      1  0.5341510000000  0.6037000000000  0.4536750000000 1.0
C      1  0.5125080000000  0.5141240000000  0.5532010000000 1.0
C      1  0.5124800000000  0.4858420000000  0.5530480000000 1.0
C      1  0.4883520000000  0.4851740000000  0.3878530000000 1.0
C      1  0.4889370000000  0.5139820000000  0.3884790000000 1.0
C      1  0.5852550000000  0.5551860000000  0.5288540000000 1.0
C      1  0.5852640000000  0.4450190000000  0.5285490000000 1.0
C      1  0.4834270000000  0.4541650000000  0.4789080000000 1.0
C      1  0.4843230000000  0.5457470000000  0.4789460000000 1.0
C      1  0.4722220000000  0.4724530000000  0.5248790000000 1.0
C      1  0.4723220000000  0.5277300000000  0.5250500000000 1.0
C      1  0.5275820000000  0.5270010000000  0.5336900000000 1.0
C      1  0.5275280000000  0.4730250000000  0.5334640000000 1.0
C      1  0.5672600000000  0.5645640000000  0.4535760000000 1.0
C      1  0.5667600000000  0.4372300000000  0.4539710000000 1.0
C      1  0.5877100000000  0.5546250000000  0.5007890000000 1.0
C      1  0.5877610000000  0.4456980000000  0.5005460000000 1.0
C      1  0.5425930000000  0.4227980000000  0.4457150000000 1.0
C      1  0.5425950000000  0.5784080000000  0.4457090000000 1.0
C      1  0.5185580000000  0.4413620000000  0.4459310000000 1.0
C      1  0.5195870000000  0.5584800000000  0.4460320000000 1.0
C      1  0.5205550000000  0.5578060000000  0.5375900000000 1.0
C      1  0.5204560000000  0.4422450000000  0.5373820000000 1.0
C      1  0.4998320000000  0.4350680000000  0.5157250000000 1.0
C      1  0.5000090000000  0.5650440000000  0.5159000000000 1.0
C      1  0.4130550000000  0.5534390000000  0.4582240000000 1.0
C      1  0.4127780000000  0.4464640000000  0.4582450000000 1.0
C      1  0.4268740000000  0.5285550000000  0.4221960000000 1.0
C      1  0.4265240000000  0.4711800000000  0.4221030000000 1.0
C      1  0.5396400000000  0.5529300000000  0.6123610000000 1.0
C      1  0.5397050000000  0.4469480000000  0.6121610000000 1.0
C      1  0.5418120000000  0.5654280000000  0.4965500000000 1.0
C      1  0.5415910000000  0.4346060000000  0.4964850000000 1.0
C      1  0.4697450000000  0.5293780000000  0.4011480000000 1.0
C      1  0.4692210000000  0.4699400000000  0.4008150000000 1.0
C      1  0.4314370000000  0.4422960000000  0.5276080000000 1.0
C      1  0.4314510000000  0.5578290000000  0.5277010000000 1.0
C      1  0.5278450000000  0.5368640000000  0.4057700000000 1.0
C      1  0.5274840000000  0.4614420000000  0.4046850000000 1.0
C      1  0.5132000000000  0.6154200000000  0.5228700000000 1.0
C      1  0.5132550000000  0.3846290000000  0.5226220000000 1.0
C      1  0.4650330000000  0.4838600000000  0.5761510000000 1.0
C      1  0.4650310000000  0.5161470000000  0.5761950000000 1.0
C      1  0.5517510000000  0.4681350000000  0.4177730000000 1.0
C      1  0.5525010000000  0.5322300000000  0.4189530000000 1.0
C      1  0.4325600000000  0.5534960000000  0.4357800000000 1.0
C      1  0.4320920000000  0.4461920000000  0.4356580000000 1.0
C      1  0.5143480000000  0.5775370000000  0.4914580000000 1.0
C      1  0.5140900000000  0.4225650000000  0.4912920000000 1.0
C      1  0.4071420000000  0.5542140000000  0.5077420000000 1.0
C      1  0.4071110000000  0.4458780000000  0.5077560000000 1.0
C      1  0.3980560000000  0.4715660000000  0.4588920000000 1.0
C      1  0.3982830000000  0.5283670000000  0.4588890000000 1.0
C      1  0.4861150000000  0.4685100000000  0.5913540000000 1.0
C      1  0.4861030000000  0.5314560000000  0.5914500000000 1.0
C      1  0.5594900000000  0.5153960000000  0.4987190000000 1.0
C      1  0.5594180000000  0.4846450000000  0.4982470000000 1.0
C      1  0.4985270000000  0.4317880000000  0.4661650000000 1.0
C      1  0.4994120000000  0.5678690000000  0.4662610000000 1.0
C      1  0.4397290000000  0.4855280000000  0.4955310000000 1.0
C      1  0.4401740000000  0.5148880000000  0.4956440000000 1.0
C      1  0.5737400000000  0.4679310000000  0.5695230000000 1.0
C      1  0.5737580000000  0.5321420000000  0.5697670000000 1.0
C      1  0.4780030000000  0.6035570000000  0.4959390000000 1.0
C      1  0.4778680000000  0.3963220000000  0.4958070000000 1.0
C      1  0.4747420000000  0.5926610000000  0.5470880000000 1.0
C      1  0.4747360000000  0.4073700000000  0.5469140000000 1.0
C      1  0.6009550000000  0.4865020000000  0.5218900000000 1.0
C      1  0.6009840000000  0.5137100000000  0.5221370000000 1.0
C      1  0.5155250000000  0.4314760000000  0.5682090000000 1.0
C      1  0.5155540000000  0.5685470000000  0.5684050000000 1.0
C      1  0.5722380000000  0.4610300000000  0.4362900000000 1.0
C      1  0.5739800000000  0.5432600000000  0.4341500000000 1.0
C      1  0.5690340000000  0.5664030000000  0.4824210000000 1.0
C      1  0.5688260000000  0.4339910000000  0.4824250000000 1.0
C      1  0.5151110000000  0.5180080000000  0.5068460000000 1.0
C      1  0.5150260000000  0.4820720000000  0.5065990000000 1.0
C      1  0.5814140000000  0.5155800000000  0.4467510000000 1.0
C      1  0.5883650000000  0.4836990000000  0.4452390000000 1.0
C      1  0.5355410000000  0.4685730000000  0.4880440000000 1.0
C      1  0.5359300000000  0.5316040000000  0.4883940000000 1.0
C      1  0.5394870000000  0.5618120000000  0.5854920000000 1.0
C      1  0.5395040000000  0.4381990000000  0.5852390000000 1.0
C      1  0.5362480000000  0.5271060000000  0.6019740000000 1.0
C      1  0.5362730000000  0.4727950000000  0.6018140000000 1.0
C      1  0.4428630000000  0.4435240000000  0.5575560000000 1.0
C      1  0.4428310000000  0.5565610000000  0.5577270000000 1.0
C      1  0.5071730000000  0.6086910000000  0.4946670000000 1.0
C      1  0.5072070000000  0.3914870000000  0.4944400000000 1.0
C      1  0.5443590000000  0.4843660000000  0.4397850000000 1.0
C      1  0.5501460000000  0.5129240000000  0.4425050000000 1.0
C      1  0.5827300000000  0.5279650000000  0.5411000000000 1.0
C      1  0.5826530000000  0.4721460000000  0.5407520000000 1.0
C      1  0.4602610000000  0.5653300000000  0.4334790000000 1.0
C      1  0.4597160000000  0.4341290000000  0.4332610000000 1.0
C      1  0.5342260000000  0.6018460000000  0.5361490000000 1.0
C      1  0.5342410000000  0.3982330000000  0.5359480000000 1.0
C      1  0.5596070000000  0.4859580000000  0.5873750000000 1.0
C      1  0.5595910000000  0.5140190000000  0.5874800000000 1.0
C      1  0.3895810000000  0.5146250000000  0.4824960000000 1.0
C      1  0.3894890000000  0.4853970000000  0.4824940000000 1.0
C      1  0.4907300000000  0.4621270000000  0.5060800000000 1.0
C      1  0.4909560000000  0.5379800000000  0.5062940000000 1.0
C      1  0.5554630000000  0.4843850000000  0.5291360000000 1.0
C      1  0.5555340000000  0.5155670000000  0.5292470000000 1.0
C      1  0.4970540000000  0.3900570000000  0.5468900000000 1.0
C      1  0.4970350000000  0.6099950000000  0.5471370000000 1.0
C      1  0.4269410000000  0.5152030000000  0.5442230000000 1.0
C      1  0.4269370000000  0.4849000000000  0.5441810000000 1.0
C      1  0.4440830000000  0.4722950000000  0.5208220000000 1.0
C      1  0.4441890000000  0.5279300000000  0.5209940000000 1.0
C      1  0.5083740000000  0.5145800000000  0.6012200000000 1.0
C      1  0.5083850000000  0.4853290000000  0.6011660000000 1.0
C      1  0.4061460000000  0.4859430000000  0.4358340000000 1.0
C      1  0.4063430000000  0.5139280000000  0.4358710000000 1.0
C      1  0.4461970000000  0.5144250000000  0.4075050000000 1.0
C      1  0.4459370000000  0.4851390000000  0.4073890000000 1.0
C      1  0.3937640000000  0.5292740000000  0.5076060000000 1.0
C      1  0.3937150000000  0.4708000000000  0.5076320000000 1.0
C      1  0.4668230000000  0.5709590000000  0.5647760000000 1.0
C      1  0.4668350000000  0.4290740000000  0.5646060000000 1.0
C      1  0.5674420000000  0.4295970000000  0.5431500000000 1.0
C      1  0.5674410000000  0.5705360000000  0.5434880000000 1.0
C      1  0.3996430000000  0.4859990000000  0.5310690000000 1.0
C      1  0.3996670000000  0.5141060000000  0.5310600000000 1.0
C      1  0.5986820000000  0.5148040000000  0.4706670000000 1.0
C      1  0.6010930000000  0.4863220000000  0.4704800000000 1.0
C      1  0.4778330000000  0.4751260000000  0.4624230000000 1.0
C      1  0.4789330000000  0.5247820000000  0.4625860000000 1.0
C      1  0.5927170000000  0.4740490000000  0.4957100000000 1.0
C      1  0.5921510000000  0.5262930000000  0.4962460000000 1.0
C      1  0.5017760000000  0.4863280000000  0.4527930000000 1.0
C      1  0.5029130000000  0.5135450000000  0.4530680000000 1.0
C      1  0.5437820000000  0.4247520000000  0.5269340000000 1.0
C      1  0.5438850000000  0.5753580000000  0.5271350000000 1.0
C      1  0.4449500000000  0.4214590000000  0.5145620000000 1.0
C      1  0.4450530000000  0.5785610000000  0.5146100000000 1.0
C      1  0.5175620000000  0.5141100000000  0.3920960000000 1.0
C      1  0.5168790000000  0.4840460000000  0.3911420000000 1.0
C      1  0.5287080000000  0.5288040000000  0.4585830000000 1.0
C      1  0.5263530000000  0.4702310000000  0.4581910000000 1.0
C      1  0.5073080000000  0.4453910000000  0.4189000000000 1.0
C      1  0.5078030000000  0.5537260000000  0.4192970000000 1.0
C      1  0.4541820000000  0.5144840000000  0.4697940000000 1.0
C      1  0.4533810000000  0.4859080000000  0.4694530000000 1.0
C      1  0.4728950000000  0.4189220000000  0.4541950000000 1.0
C      1  0.4735540000000  0.5805430000000  0.4543380000000 1.0
C      1  0.4727850000000  0.5856320000000  0.5192040000000 1.0
C      1  0.4727000000000  0.4143490000000  0.5190230000000 1.0
C      1  0.4783950000000  0.4465420000000  0.4150470000000 1.0
C      1  0.4789960000000  0.5526480000000  0.4154900000000 1.0
C      1  0.4600860000000  0.4044950000000  0.4753620000000 1.0
C      1  0.4605430000000  0.5950980000000  0.4753610000000 1.0
C      1  0.4821720000000  0.5154990000000  0.5487070000000 1.0
C      1  0.4821450000000  0.4845440000000  0.5486030000000 1.0
C      1  0.5186990000000  0.5975150000000  0.5605200000000 1.0
C      1  0.5186910000000  0.4025060000000  0.5603170000000 1.0
END
