TITL C-133515-5407-12 -0.0697656942313908 125000 -719.154235072138 0 0 103 (C1) n - 1
REM
REM in /rds/project/t2_vol4/rds-t2-cs072/BORA/CARBON/from-Arr/AIRSS/Generating-Clusters/GAP-ML-2020/Higher-Symm/SD-CG/HFTN-CG
REM
REM
REM
REM
REM
REM ./C.cell (b20cbc046b6831c77cfcea5457e17084)
REM AIRSS Version 0.9.1 bugfix July 2018 build 013d7b7c2542+ Fri, 06 Jul 2018 19:26:36 +0100
REM compiler GCC version 9.3.0
REM options -cpp -mtune=generic -march=x86-64 -g -O0
REM seed 1749260183 488614230 -323273324 2067597655 -2100941795 -1329714150 -981171425 1432168546 187406425 -144487429 -599816711 -1843310255 -903293577 127489736 1673713633 1705062691 -1545129175 -896144371 -240644167 585769793 1984250687 -196881525 531486999 1033217240 2088135864 1525911116 -1809922566 -688460423 884964795 1547994136 -1870403399 -1409474060 -1993082778
REM
CELL 1.54180   50.00000   50.00000   50.00000   90.00000   90.00000   90.00000
LATT -1
SFAC C  
C      1  0.4632490000000  0.5854950000000  0.5043420000000 1.0
C      1  0.4646540000000  0.4934080000000  0.5845970000000 1.0
C      1  0.4666520000000  0.4186730000000  0.4985060000000 1.0
C      1  0.4664220000000  0.5044620000000  0.4161580000000 1.0
C      1  0.5351010000000  0.4159550000000  0.5034540000000 1.0
C      1  0.5358050000000  0.5079700000000  0.5838720000000 1.0
C      1  0.5334920000000  0.5848490000000  0.4975600000000 1.0
C      1  0.5365530000000  0.4934990000000  0.4170160000000 1.0
C      1  0.4557460000000  0.4382020000000  0.5468620000000 1.0
C      1  0.4535690000000  0.4586330000000  0.4399860000000 1.0
C      1  0.4513220000000  0.5594740000000  0.4543260000000 1.0
C      1  0.4495820000000  0.5398930000000  0.5534100000000 1.0
C      1  0.5439870000000  0.5644810000000  0.5467110000000 1.0
C      1  0.5479590000000  0.5431860000000  0.4432480000000 1.0
C      1  0.5488700000000  0.4372050000000  0.4529540000000 1.0
C      1  0.5502380000000  0.4608070000000  0.5528630000000 1.0
C      1  0.4965690000000  0.4440910000000  0.5738110000000 1.0
C      1  0.4933480000000  0.4275080000000  0.4438060000000 1.0
C      1  0.4935730000000  0.5548040000000  0.4276450000000 1.0
C      1  0.4889810000000  0.5749670000000  0.5561920000000 1.0
C      1  0.5029700000000  0.5574330000000  0.5735110000000 1.0
C      1  0.5067200000000  0.5726860000000  0.4453570000000 1.0
C      1  0.5072380000000  0.4431320000000  0.4244720000000 1.0
C      1  0.5102700000000  0.4265730000000  0.5563090000000 1.0
C      1  0.5495250000000  0.5281260000000  0.5070060000000 1.0
C      1  0.5288750000000  0.4978500000000  0.5405710000000 1.0
C      1  0.5249300000000  0.4588710000000  0.4861010000000 1.0
C      1  0.5215840000000  0.5025560000000  0.4597670000000 1.0
C      1  0.4485530000000  0.4756110000000  0.5071090000000 1.0
C      1  0.4717010000000  0.5023380000000  0.5415510000000 1.0
C      1  0.4743720000000  0.5464260000000  0.4898560000000 1.0
C      1  0.4695740000000  0.5057370000000  0.4693750000000 1.0
C      1  0.4940580000000  0.4657270000000  0.4128060000000 1.0
C      1  0.4932570000000  0.5847780000000  0.4667540000000 1.0
C      1  0.4939600000000  0.5298880000000  0.5750260000000 1.0
C      1  0.4959320000000  0.4140060000000  0.5349000000000 1.0
C      1  0.5077710000000  0.5320180000000  0.4190560000000 1.0
C      1  0.5061020000000  0.4165770000000  0.4665280000000 1.0
C      1  0.5061530000000  0.4715430000000  0.5745090000000 1.0
C      1  0.5035050000000  0.5883050000000  0.5348440000000 1.0
C      1  0.5341070000000  0.4827670000000  0.5660290000000 1.0
C      1  0.5315510000000  0.4288530000000  0.4755860000000 1.0
C      1  0.5316360000000  0.5196220000000  0.4333610000000 1.0
C      1  0.5312060000000  0.5809740000000  0.5272860000000 1.0
C      1  0.4661950000000  0.5181490000000  0.5667660000000 1.0
C      1  0.4672380000000  0.5730870000000  0.4763340000000 1.0
C      1  0.4677360000000  0.4754630000000  0.4210500000000 1.0
C      1  0.4688500000000  0.4220480000000  0.5275840000000 1.0
C      1  0.5623510000000  0.5475580000000  0.4682680000000 1.0
C      1  0.5565470000000  0.5370590000000  0.5487490000000 1.0
C      1  0.5592480000000  0.4564560000000  0.5246310000000 1.0
C      1  0.5639170000000  0.4625350000000  0.4523540000000 1.0
C      1  0.4412550000000  0.4611980000000  0.4657320000000 1.0
C      1  0.4428720000000  0.4649070000000  0.5497350000000 1.0
C      1  0.4398910000000  0.5432740000000  0.5252110000000 1.0
C      1  0.4394370000000  0.5327400000000  0.4535060000000 1.0
C      1  0.4584980000000  0.4397820000000  0.4788050000000 1.0
C      1  0.4522240000000  0.5265940000000  0.4274020000000 1.0
C      1  0.4508470000000  0.5709250000000  0.5248360000000 1.0
C      1  0.4540730000000  0.4696100000000  0.5756000000000 1.0
C      1  0.5473390000000  0.5719980000000  0.4753140000000 1.0
C      1  0.5497020000000  0.4707760000000  0.4276280000000 1.0
C      1  0.5473200000000  0.4297950000000  0.5242000000000 1.0
C      1  0.5457380000000  0.5319710000000  0.5746320000000 1.0
C      1  0.5232290000000  0.5391700000000  0.4978620000000 1.0
C      1  0.5102870000000  0.5206810000000  0.5451200000000 1.0
C      1  0.5045580000000  0.4559380000000  0.5078990000000 1.0
C      1  0.5096350000000  0.4776050000000  0.4669520000000 1.0
C      1  0.4725700000000  0.4616040000000  0.4961320000000 1.0
C      1  0.4897720000000  0.4790050000000  0.5447800000000 1.0
C      1  0.4960410000000  0.5455580000000  0.5113970000000 1.0
C      1  0.4865570000000  0.5282530000000  0.4701400000000 1.0
C      1  0.5340240000000  0.5681460000000  0.4494690000000 1.0
C      1  0.5313330000000  0.5570750000000  0.5720350000000 1.0
C      1  0.5373350000000  0.4337590000000  0.5509040000000 1.0
C      1  0.5348850000000  0.4452550000000  0.4287250000000 1.0
C      1  0.4675470000000  0.4353050000000  0.4504160000000 1.0
C      1  0.4681690000000  0.4445510000000  0.5728290000000 1.0
C      1  0.4617360000000  0.5671870000000  0.5510130000000 1.0
C      1  0.4651470000000  0.5526600000000  0.4294620000000 1.0
C      1  0.5512570000000  0.5154310000000  0.5314430000000 1.0
C      1  0.5537380000000  0.4663650000000  0.4983470000000 1.0
C      1  0.5710310000000  0.4767360000000  0.4769350000000 1.0
C      1  0.5689870000000  0.5265040000000  0.4860040000000 1.0
C      1  0.4481730000000  0.4862790000000  0.5322940000000 1.0
C      1  0.4483520000000  0.5335350000000  0.4996170000000 1.0
C      1  0.4423690000000  0.5146440000000  0.4773650000000 1.0
C      1  0.4297960000000  0.4840110000000  0.4837880000000 1.0
C      1  0.5083470000000  0.5121340000000  0.5926290000000 1.0
C      1  0.5097240000000  0.4060400000000  0.5111310000000 1.0
C      1  0.5104890000000  0.4880060000000  0.4059210000000 1.0
C      1  0.5072130000000  0.5935880000000  0.4894870000000 1.0
C      1  0.4923920000000  0.4891930000000  0.5926180000000 1.0
C      1  0.4891950000000  0.5953910000000  0.5113030000000 1.0
C      1  0.4933310000000  0.5108560000000  0.4080920000000 1.0
C      1  0.4916940000000  0.4080180000000  0.4893760000000 1.0
C      1  0.5123000000000  0.5193310000000  0.4807850000000 1.0
C      1  0.5089140000000  0.4800240000000  0.5232910000000 1.0
C      1  0.4844770000000  0.4843020000000  0.4816490000000 1.0
C      1  0.4906660000000  0.5200490000000  0.5240870000000 1.0
C      1  0.4016720000000  0.4839260000000  0.4881630000000 1.0
C      1  0.5786250000000  0.5026980000000  0.4781390000000 1.0
C      1  0.4995690000000  0.5004030000000  0.5029770000000 1.0
END
