TITL C-132111-2732-4 3.88548150516419 125000 -747.755589612128 0 0 109 (C1) n - 1
REM
REM in /rds/project/t2_vol4/rds-t2-cs072/BORA/CARBON/from-Arr/AIRSS/Generating-Clusters/GAP-ML-2020/Higher-Symm/SD-CG/HFTN-CG
REM
REM
REM
REM
REM
REM ./C.cell (b20cbc046b6831c77cfcea5457e17084)
REM AIRSS Version 0.9.1 bugfix July 2018 build 013d7b7c2542+ Fri, 06 Jul 2018 19:26:36 +0100
REM compiler GCC version 9.3.0
REM options -cpp -mtune=generic -march=x86-64 -g -O0
REM seed 1943255339 470059723 -1829611295 -526430828 1574831731 -37293901 2044382507 59805883 2119730203 1147783262 -1342777729 1344083602 1020421095 -59708313 -712518289 357675009 1160205043 -1823938343 -201334369 1024363239 -1014143684 -1758938742 -147128385 1599726645 -1684534678 -1447695101 -424969213 1121749759 1887937472 325194327 1698338927 1990133901 1863608543
REM
CELL 1.54180   50.00000   50.00000   50.00000   90.00000   90.00000   90.00000
LATT -1
SFAC C  
C      1  0.5602980000000  0.5717520000000  0.5295530000000 1.0
C      1  0.4597850000000  0.5673550000000  0.5288060000000 1.0
C      1  0.4131870000000  0.4806810000000  0.5286890000000 1.0
C      1  0.4809920000000  0.4081330000000  0.5289730000000 1.0
C      1  0.5697790000000  0.4385010000000  0.5410210000000 1.0
C      1  0.4430450000000  0.5579520000000  0.4676330000000 1.0
C      1  0.5394730000000  0.5818170000000  0.4702490000000 1.0
C      1  0.5792920000000  0.4765920000000  0.4847070000000 1.0
C      1  0.5093570000000  0.4178560000000  0.4723610000000 1.0
C      1  0.4223970000000  0.4630790000000  0.4682720000000 1.0
C      1  0.4942040000000  0.5679210000000  0.4674680000000 1.0
C      1  0.4309980000000  0.5132820000000  0.4693740000000 1.0
C      1  0.4660110000000  0.4410090000000  0.4665170000000 1.0
C      1  0.5442270000000  0.4477260000000  0.4762120000000 1.0
C      1  0.5736810000000  0.5413770000000  0.4658510000000 1.0
C      1  0.5093860000000  0.5646130000000  0.5335200000000 1.0
C      1  0.5751180000000  0.5284680000000  0.5225880000000 1.0
C      1  0.5210750000000  0.4354230000000  0.5462210000000 1.0
C      1  0.4511710000000  0.4427210000000  0.5253030000000 1.0
C      1  0.4318470000000  0.5235930000000  0.5285670000000 1.0
C      1  0.4758700000000  0.5009370000000  0.5486690000000 1.0
C      1  0.4835910000000  0.4706950000000  0.5478740000000 1.0
C      1  0.5138710000000  0.4648100000000  0.5498430000000 1.0
C      1  0.5508610000000  0.4988800000000  0.5385550000000 1.0
C      1  0.5187040000000  0.5373810000000  0.5423970000000 1.0
C      1  0.5348460000000  0.5183280000000  0.4476180000000 1.0
C      1  0.5571220000000  0.4913180000000  0.4735810000000 1.0
C      1  0.5102920000000  0.4728770000000  0.4562860000000 1.0
C      1  0.4725640000000  0.4901600000000  0.4616700000000 1.0
C      1  0.5066270000000  0.5245620000000  0.4462640000000 1.0
C      1  0.5192400000000  0.4528010000000  0.4373770000000 1.0
C      1  0.5712420000000  0.5177560000000  0.4245120000000 1.0
C      1  0.5138220000000  0.5698890000000  0.4265360000000 1.0
C      1  0.4449140000000  0.5312960000000  0.4247590000000 1.0
C      1  0.4433040000000  0.4565630000000  0.4253420000000 1.0
C      1  0.4661230000000  0.4304240000000  0.5692090000000 1.0
C      1  0.4308280000000  0.5035620000000  0.5715330000000 1.0
C      1  0.4865290000000  0.5527760000000  0.5710800000000 1.0
C      1  0.5635440000000  0.5344790000000  0.5659170000000 1.0
C      1  0.5412470000000  0.4518850000000  0.5809680000000 1.0
C      1  0.4833050000000  0.4640530000000  0.4733370000000 1.0
C      1  0.5321880000000  0.4757480000000  0.4779520000000 1.0
C      1  0.5520850000000  0.5206490000000  0.4725500000000 1.0
C      1  0.4983500000000  0.5401850000000  0.4689790000000 1.0
C      1  0.4571560000000  0.5063060000000  0.4781390000000 1.0
C      1  0.5303560000000  0.4791470000000  0.5301610000000 1.0
C      1  0.4752070000000  0.4588800000000  0.5223890000000 1.0
C      1  0.4558300000000  0.5089030000000  0.5266940000000 1.0
C      1  0.5003580000000  0.5139430000000  0.5369500000000 1.0
C      1  0.5439050000000  0.5262840000000  0.5236090000000 1.0
C      1  0.4057840000000  0.4840340000000  0.5009590000000 1.0
C      1  0.4808900000000  0.4048510000000  0.5002170000000 1.0
C      1  0.5766350000000  0.4504830000000  0.5180500000000 1.0
C      1  0.5664890000000  0.5766440000000  0.5022440000000 1.0
C      1  0.4605670000000  0.5759050000000  0.5017680000000 1.0
C      1  0.5875700000000  0.4790810000000  0.5122610000000 1.0
C      1  0.5112960000000  0.4092950000000  0.5003040000000 1.0
C      1  0.4163360000000  0.4560360000000  0.4946580000000 1.0
C      1  0.4347260000000  0.5603420000000  0.4951510000000 1.0
C      1  0.5375590000000  0.5884770000000  0.4979110000000 1.0
C      1  0.4720650000000  0.5343290000000  0.5873540000000 1.0
C      1  0.4780150000000  0.4939220000000  0.5976420000000 1.0
C      1  0.4918430000000  0.4705530000000  0.5922670000000 1.0
C      1  0.5330100000000  0.5005650000000  0.5847330000000 1.0
C      1  0.5167160000000  0.5225780000000  0.5920170000000 1.0
C      1  0.5067920000000  0.5072070000000  0.3905770000000 1.0
C      1  0.5268910000000  0.4931270000000  0.4063100000000 1.0
C      1  0.4895250000000  0.4646990000000  0.3984450000000 1.0
C      1  0.4611910000000  0.4947740000000  0.3939450000000 1.0
C      1  0.4914750000000  0.5303940000000  0.4004790000000 1.0
C      1  0.5138860000000  0.5435920000000  0.5722620000000 1.0
C      1  0.4584350000000  0.5081430000000  0.5774570000000 1.0
C      1  0.4758450000000  0.4546710000000  0.5741400000000 1.0
C      1  0.5214660000000  0.4728480000000  0.5809320000000 1.0
C      1  0.5532050000000  0.5089960000000  0.5669810000000 1.0
C      1  0.5044160000000  0.5458020000000  0.4194470000000 1.0
C      1  0.5455280000000  0.5072370000000  0.4236680000000 1.0
C      1  0.5157380000000  0.4643940000000  0.4114900000000 1.0
C      1  0.4589390000000  0.4679730000000  0.4071040000000 1.0
C      1  0.4622660000000  0.5219160000000  0.4056970000000 1.0
C      1  0.5167160000000  0.5787290000000  0.4525370000000 1.0
C      1  0.4359010000000  0.5349530000000  0.4505630000000 1.0
C      1  0.4414150000000  0.4495080000000  0.4518600000000 1.0
C      1  0.5282130000000  0.4329890000000  0.4576540000000 1.0
C      1  0.5832500000000  0.5327470000000  0.4411910000000 1.0
C      1  0.4828440000000  0.5664880000000  0.5453840000000 1.0
C      1  0.5717360000000  0.5476670000000  0.5428000000000 1.0
C      1  0.5479770000000  0.4365710000000  0.5582090000000 1.0
C      1  0.4606050000000  0.4219210000000  0.5435400000000 1.0
C      1  0.4198070000000  0.5038600000000  0.5463010000000 1.0
C      1  0.4791570000000  0.4170840000000  0.4740710000000 1.0
C      1  0.5688420000000  0.4489140000000  0.4894990000000 1.0
C      1  0.5659380000000  0.5677500000000  0.4752910000000 1.0
C      1  0.4677630000000  0.5736360000000  0.4741550000000 1.0
C      1  0.4140640000000  0.4914160000000  0.4739950000000 1.0
C      1  0.5097620000000  0.4158490000000  0.5290880000000 1.0
C      1  0.4258080000000  0.4543350000000  0.5215220000000 1.0
C      1  0.4347910000000  0.5509350000000  0.5226050000000 1.0
C      1  0.5314800000000  0.5800400000000  0.5245840000000 1.0
C      1  0.5789290000000  0.5007640000000  0.5271220000000 1.0
C      1  0.5090880000000  0.5309070000000  0.4930500000000 1.0
C      1  0.5155870000000  0.4815170000000  0.5046870000000 1.0
C      1  0.4681960000000  0.5085140000000  0.5027030000000 1.0
C      1  0.5360670000000  0.5290480000000  0.4961530000000 1.0
C      1  0.4919130000000  0.4645770000000  0.5012220000000 1.0
C      1  0.4977470000000  0.5090870000000  0.5078370000000 1.0
C      1  0.4946630000000  0.4975140000000  0.4464800000000 1.0
C      1  0.4873240000000  0.4882650000000  0.3828530000000 1.0
C      1  0.4912710000000  0.5185520000000  0.6028260000000 1.0
END
