TITL C-148573-4786-7 68.5630874593972 125000 -635.311451605378 0 0 95 (C1) n - 1
REM
REM in /rds/project/t2_vol4/rds-t2-cs072/BORA/CARBON/from-Arr/AIRSS/Generating-Clusters/GAP-ML-2020/Higher-Symm/SD-CG/HFTN-CG
REM
REM
REM
REM
REM
REM ./C.cell (b20cbc046b6831c77cfcea5457e17084)
REM AIRSS Version 0.9.1 bugfix July 2018 build 013d7b7c2542+ Fri, 06 Jul 2018 19:26:36 +0100
REM compiler GCC version 9.3.0
REM options -cpp -mtune=generic -march=x86-64 -g -O0
REM seed 301944486 681617189 1936838373 1989033965 1615421982 1310499829 881729753 250887300 1996775587 131786931 1253884253 1711030640 1598205634 -1608470426 1201392713 -658296016 1601660844 -62328124 -2136792387 -968402718 376003222 -1369929900 -1101071124 1469702856 1961840843 -788314020 -1065693257 -678516110 -1164410397 1510154245 1155383381 -312143003 724960336
REM
CELL 1.54180   50.00000   50.00000   50.00000   90.00000   90.00000   90.00000
LATT -1
SFAC C  
C      1  0.5465920000000  0.5640180000000  0.4303030000000 1.0
C      1  0.4535180000000  0.5625480000000  0.4302290000000 1.0
C      1  0.4290030000000  0.4744340000000  0.4318680000000 1.0
C      1  0.4978550000000  0.4272600000000  0.4307640000000 1.0
C      1  0.5727140000000  0.4778110000000  0.4294920000000 1.0
C      1  0.5433580000000  0.5617030000000  0.5696130000000 1.0
C      1  0.4535170000000  0.5640920000000  0.5688970000000 1.0
C      1  0.4253500000000  0.4764640000000  0.5715390000000 1.0
C      1  0.5030740000000  0.4243850000000  0.5710560000000 1.0
C      1  0.5690430000000  0.4765440000000  0.5697450000000 1.0
C      1  0.5709890000000  0.4764470000000  0.4572740000000 1.0
C      1  0.5451540000000  0.5599150000000  0.4577800000000 1.0
C      1  0.4565980000000  0.5592230000000  0.4576290000000 1.0
C      1  0.4322150000000  0.4763740000000  0.4593280000000 1.0
C      1  0.4989880000000  0.4270330000000  0.4583470000000 1.0
C      1  0.5686790000000  0.4764010000000  0.5421640000000 1.0
C      1  0.5432850000000  0.5588900000000  0.5420110000000 1.0
C      1  0.4571640000000  0.5599520000000  0.5416110000000 1.0
C      1  0.4288340000000  0.4767990000000  0.5439370000000 1.0
C      1  0.5013960000000  0.4265310000000  0.5433840000000 1.0
C      1  0.4681470000000  0.5422490000000  0.4253640000000 1.0
C      1  0.4519860000000  0.4851590000000  0.4309260000000 1.0
C      1  0.5016910000000  0.4522440000000  0.4285080000000 1.0
C      1  0.5495670000000  0.4879790000000  0.4269040000000 1.0
C      1  0.5287070000000  0.5463460000000  0.4267410000000 1.0
C      1  0.4654290000000  0.5420070000000  0.5726990000000 1.0
C      1  0.4496170000000  0.4827540000000  0.5765340000000 1.0
C      1  0.4990050000000  0.4494340000000  0.5717050000000 1.0
C      1  0.5458710000000  0.4867820000000  0.5716970000000 1.0
C      1  0.5264660000000  0.5429630000000  0.5723480000000 1.0
C      1  0.4184620000000  0.5258630000000  0.4861960000000 1.0
C      1  0.4493840000000  0.4290940000000  0.4880530000000 1.0
C      1  0.5518730000000  0.4281050000000  0.4850870000000 1.0
C      1  0.5837500000000  0.5260540000000  0.4859050000000 1.0
C      1  0.5007070000000  0.5859780000000  0.4848940000000 1.0
C      1  0.4185420000000  0.5260290000000  0.5148740000000 1.0
C      1  0.4488190000000  0.4284480000000  0.5166090000000 1.0
C      1  0.5516320000000  0.4283780000000  0.5137060000000 1.0
C      1  0.5830640000000  0.5258540000000  0.5145570000000 1.0
C      1  0.5005370000000  0.5862500000000  0.5135810000000 1.0
C      1  0.4845900000000  0.5212900000000  0.4235860000000 1.0
C      1  0.4772300000000  0.4962370000000  0.4383230000000 1.0
C      1  0.5028560000000  0.4785900000000  0.4397990000000 1.0
C      1  0.5252700000000  0.4985040000000  0.4368680000000 1.0
C      1  0.5115430000000  0.5252550000000  0.4338250000000 1.0
C      1  0.4795080000000  0.5184770000000  0.5670510000000 1.0
C      1  0.4746160000000  0.4919610000000  0.5783560000000 1.0
C      1  0.4960510000000  0.4766150000000  0.5637380000000 1.0
C      1  0.5209480000000  0.4955510000000  0.5604920000000 1.0
C      1  0.5088900000000  0.5229280000000  0.5627670000000 1.0
C      1  0.5020970000000  0.5240250000000  0.5315260000000 1.0
C      1  0.4773430000000  0.5084760000000  0.5347790000000 1.0
C      1  0.4858690000000  0.4797560000000  0.5349310000000 1.0
C      1  0.5119290000000  0.4799030000000  0.5222350000000 1.0
C      1  0.5235270000000  0.5042520000000  0.5289630000000 1.0
C      1  0.5024270000000  0.5239960000000  0.4658610000000 1.0
C      1  0.4780440000000  0.5067140000000  0.4679790000000 1.0
C      1  0.4869940000000  0.4827140000000  0.4807900000000 1.0
C      1  0.5125610000000  0.4781340000000  0.4698980000000 1.0
C      1  0.5249500000000  0.5050730000000  0.4677980000000 1.0
C      1  0.5727270000000  0.4974720000000  0.5216930000000 1.0
C      1  0.5242910000000  0.5678410000000  0.5213110000000 1.0
C      1  0.4431180000000  0.5430670000000  0.5219470000000 1.0
C      1  0.4399070000000  0.4571400000000  0.5249610000000 1.0
C      1  0.5211380000000  0.4296150000000  0.5214980000000 1.0
C      1  0.5732800000000  0.4973990000000  0.4779860000000 1.0
C      1  0.5248100000000  0.5676440000000  0.4778360000000 1.0
C      1  0.4429800000000  0.5429060000000  0.4782010000000 1.0
C      1  0.4415580000000  0.4581000000000  0.4807280000000 1.0
C      1  0.5215780000000  0.4284850000000  0.4772710000000 1.0
C      1  0.5588400000000  0.4577560000000  0.5213530000000 1.0
C      1  0.5576800000000  0.5422420000000  0.5219900000000 1.0
C      1  0.4774480000000  0.5674050000000  0.5212590000000 1.0
C      1  0.4290670000000  0.4980660000000  0.5231390000000 1.0
C      1  0.4789130000000  0.4299340000000  0.5245060000000 1.0
C      1  0.5596350000000  0.4573870000000  0.4769260000000 1.0
C      1  0.5588620000000  0.5427490000000  0.4776840000000 1.0
C      1  0.4776140000000  0.5670370000000  0.4770800000000 1.0
C      1  0.4292340000000  0.4981240000000  0.4792880000000 1.0
C      1  0.4795090000000  0.4312630000000  0.4803240000000 1.0
C      1  0.5010020000000  0.5475350000000  0.5142360000000 1.0
C      1  0.4553070000000  0.5148020000000  0.5159730000000 1.0
C      1  0.4704580000000  0.4595500000000  0.5195040000000 1.0
C      1  0.5280720000000  0.4589600000000  0.5127300000000 1.0
C      1  0.5466960000000  0.5136970000000  0.5141850000000 1.0
C      1  0.5015780000000  0.5473850000000  0.4840260000000 1.0
C      1  0.4554970000000  0.5146960000000  0.4854740000000 1.0
C      1  0.4715730000000  0.4610790000000  0.4899640000000 1.0
C      1  0.5291200000000  0.4582330000000  0.4833260000000 1.0
C      1  0.5474440000000  0.5140790000000  0.4843020000000 1.0
C      1  0.5464310000000  0.5613450000000  0.4999350000000 1.0
C      1  0.4557870000000  0.5616110000000  0.4995080000000 1.0
C      1  0.4272890000000  0.4756320000000  0.5017070000000 1.0
C      1  0.5002140000000  0.4217250000000  0.5007070000000 1.0
C      1  0.5735200000000  0.4747940000000  0.4997630000000 1.0
END
