TITL C-146872-8098-4 -0.0334827340003066 125000 -742.443302944323 0 0 105 (C1) n - 1
REM
REM in /rds/project/t2_vol4/rds-t2-cs072/BORA/CARBON/from-Arr/AIRSS/Generating-Clusters/GAP-ML-2020/Higher-Symm/SD-CG/HFTN-CG
REM
REM
REM
REM
REM
REM ./C.cell (b20cbc046b6831c77cfcea5457e17084)
REM AIRSS Version 0.9.1 bugfix July 2018 build 013d7b7c2542+ Fri, 06 Jul 2018 19:26:36 +0100
REM compiler GCC version 9.3.0
REM options -cpp -mtune=generic -march=x86-64 -g -O0
REM seed 1439845239 -1545261805 1929536816 357340954 -1400403347 -121876354 1764542613 1373936045 775641281 1948488123 1055808573 -1761581764 1711248002 -1906822411 -1940926111 1316463826 -49217854 -1130133186 1358143684 -1196741828 -1343606524 1915507648 -1727504657 773881527 68295146 -1677521607 641442547 -1328452332 1491866626 2123179137 -1535219508 328141360 655355437
REM
CELL 1.54180   50.00000   50.00000   50.00000   90.00000   90.00000   90.00000
LATT -1
SFAC C  
C      1  0.4839800000000  0.4017440000000  0.4987910000000 1.0
C      1  0.5098340000000  0.4023820000000  0.4870130000000 1.0
C      1  0.5072940000000  0.4026920000000  0.5149670000000 1.0
C      1  0.5165440000000  0.5971820000000  0.4992340000000 1.0
C      1  0.4907690000000  0.5981970000000  0.4870270000000 1.0
C      1  0.4932470000000  0.5979730000000  0.5156810000000 1.0
C      1  0.5709330000000  0.5458700000000  0.4596540000000 1.0
C      1  0.4981980000000  0.5427990000000  0.5799110000000 1.0
C      1  0.4273550000000  0.5493330000000  0.4583240000000 1.0
C      1  0.4288750000000  0.4545990000000  0.4589690000000 1.0
C      1  0.5000270000000  0.4491100000000  0.5825180000000 1.0
C      1  0.5719920000000  0.4507430000000  0.4602080000000 1.0
C      1  0.4968130000000  0.4665990000000  0.4794800000000 1.0
C      1  0.5096680000000  0.4705000000000  0.5231920000000 1.0
C      1  0.4846520000000  0.4677790000000  0.5064010000000 1.0
C      1  0.4991470000000  0.5346880000000  0.4872010000000 1.0
C      1  0.4880630000000  0.5384250000000  0.5165640000000 1.0
C      1  0.5271860000000  0.5288760000000  0.4960430000000 1.0
C      1  0.4760110000000  0.5763060000000  0.4724850000000 1.0
C      1  0.5367660000000  0.5761220000000  0.4936660000000 1.0
C      1  0.4860280000000  0.5766700000000  0.5340700000000 1.0
C      1  0.5225650000000  0.4258290000000  0.4729000000000 1.0
C      1  0.4634640000000  0.4232370000000  0.4934400000000 1.0
C      1  0.5122270000000  0.4239440000000  0.5347060000000 1.0
C      1  0.5269060000000  0.4501020000000  0.5745150000000 1.0
C      1  0.4211390000000  0.4516670000000  0.4856540000000 1.0
C      1  0.5530060000000  0.4509940000000  0.4398610000000 1.0
C      1  0.4718060000000  0.5493270000000  0.5742710000000 1.0
C      1  0.5785250000000  0.5496040000000  0.4864070000000 1.0
C      1  0.4479260000000  0.5487830000000  0.4393610000000 1.0
C      1  0.5656190000000  0.4466360000000  0.4874860000000 1.0
C      1  0.4777960000000  0.4433080000000  0.5656750000000 1.0
C      1  0.4528180000000  0.4427820000000  0.4481930000000 1.0
C      1  0.4317810000000  0.5550760000000  0.4855160000000 1.0
C      1  0.5186010000000  0.5515410000000  0.5618330000000 1.0
C      1  0.5464420000000  0.5568870000000  0.4487090000000 1.0
C      1  0.4554630000000  0.5682710000000  0.4916650000000 1.0
C      1  0.5287720000000  0.5692760000000  0.4663960000000 1.0
C      1  0.5086700000000  0.5560360000000  0.5345390000000 1.0
C      1  0.5401280000000  0.4373100000000  0.4934860000000 1.0
C      1  0.4702590000000  0.4298580000000  0.4658140000000 1.0
C      1  0.4847940000000  0.4317230000000  0.5413020000000 1.0
C      1  0.4867670000000  0.5106270000000  0.5247970000000 1.0
C      1  0.4857220000000  0.5089950000000  0.4785810000000 1.0
C      1  0.5288960000000  0.5009400000000  0.4981330000000 1.0
C      1  0.5150200000000  0.4978730000000  0.5245360000000 1.0
C      1  0.5101540000000  0.4911370000000  0.4754780000000 1.0
C      1  0.4723450000000  0.4966500000000  0.5034320000000 1.0
C      1  0.5019450000000  0.5574150000000  0.4664970000000 1.0
C      1  0.5313490000000  0.5520940000000  0.5162080000000 1.0
C      1  0.4643910000000  0.5577430000000  0.5162760000000 1.0
C      1  0.4963780000000  0.4422820000000  0.4633760000000 1.0
C      1  0.4704760000000  0.4434000000000  0.5187090000000 1.0
C      1  0.5294030000000  0.4472970000000  0.5180910000000 1.0
C      1  0.5075130000000  0.4469070000000  0.4354920000000 1.0
C      1  0.5521550000000  0.4478150000000  0.5384170000000 1.0
C      1  0.4413690000000  0.4466730000000  0.5264440000000 1.0
C      1  0.4928940000000  0.5516760000000  0.4379970000000 1.0
C      1  0.4453230000000  0.5543670000000  0.5382540000000 1.0
C      1  0.5590460000000  0.5533860000000  0.5268260000000 1.0
C      1  0.4358100000000  0.4336120000000  0.5023620000000 1.0
C      1  0.5307280000000  0.4346330000000  0.4445490000000 1.0
C      1  0.5346720000000  0.4326770000000  0.5540740000000 1.0
C      1  0.5645920000000  0.5678710000000  0.5031710000000 1.0
C      1  0.4698740000000  0.5657910000000  0.4443350000000 1.0
C      1  0.4650500000000  0.5675190000000  0.5538230000000 1.0
C      1  0.4576650000000  0.4669090000000  0.4318750000000 1.0
C      1  0.5792900000000  0.4713150000000  0.4955770000000 1.0
C      1  0.4653450000000  0.4696560000000  0.5715870000000 1.0
C      1  0.5429320000000  0.5326280000000  0.4324080000000 1.0
C      1  0.4203950000000  0.5293140000000  0.4945120000000 1.0
C      1  0.5370440000000  0.5310920000000  0.5708800000000 1.0
C      1  0.5801030000000  0.4840160000000  0.5202590000000 1.0
C      1  0.4442260000000  0.4833450000000  0.5593130000000 1.0
C      1  0.4784530000000  0.4820380000000  0.4213030000000 1.0
C      1  0.4201960000000  0.5166400000000  0.5195130000000 1.0
C      1  0.5579720000000  0.5169220000000  0.5592470000000 1.0
C      1  0.5222370000000  0.5171430000000  0.4218210000000 1.0
C      1  0.4322040000000  0.5291810000000  0.5419270000000 1.0
C      1  0.4961350000000  0.5280280000000  0.4227670000000 1.0
C      1  0.5707340000000  0.5297050000000  0.5374620000000 1.0
C      1  0.5671850000000  0.4714580000000  0.5426690000000 1.0
C      1  0.5047740000000  0.4711040000000  0.4211620000000 1.0
C      1  0.4311570000000  0.4707410000000  0.5375230000000 1.0
C      1  0.5872390000000  0.5248300000000  0.4946180000000 1.0
C      1  0.4602410000000  0.5250550000000  0.5778370000000 1.0
C      1  0.4498560000000  0.5212430000000  0.4308740000000 1.0
C      1  0.4125550000000  0.4756600000000  0.4956530000000 1.0
C      1  0.5356070000000  0.4773560000000  0.5784180000000 1.0
C      1  0.5512440000000  0.4785310000000  0.4309230000000 1.0
C      1  0.4429400000000  0.5117680000000  0.5621320000000 1.0
C      1  0.4738390000000  0.5104010000000  0.4207900000000 1.0
C      1  0.5831510000000  0.5124950000000  0.5184510000000 1.0
C      1  0.5569370000000  0.4885020000000  0.5631710000000 1.0
C      1  0.5271100000000  0.4889350000000  0.4203200000000 1.0
C      1  0.4177250000000  0.4880240000000  0.5189040000000 1.0
C      1  0.4896440000000  0.4759160000000  0.5869040000000 1.0
C      1  0.4339190000000  0.4783790000000  0.4434490000000 1.0
C      1  0.5816700000000  0.4774870000000  0.4668850000000 1.0
C      1  0.5152290000000  0.5204080000000  0.5863730000000 1.0
C      1  0.5667710000000  0.5217510000000  0.4443510000000 1.0
C      1  0.4186910000000  0.5223500000000  0.4659630000000 1.0
C      1  0.4305920000000  0.5057560000000  0.4455340000000 1.0
C      1  0.5701610000000  0.4942300000000  0.4461620000000 1.0
C      1  0.5128750000000  0.4927520000000  0.5874990000000 1.0
END
