TITL C-149063-9415-8 -0.00111954212942852 125000 -252.805043290117 0 0 39 (S4) n - 1
REM
REM in /rds/project/t2_vol4/rds-t2-cs072/BORA/CARBON/from-Arr/AIRSS/Generating-Clusters/GAP-ML-2020/Higher-Symm/SD-CG/HFTN-CG
REM
REM
REM
REM
REM
REM ./C.cell (b20cbc046b6831c77cfcea5457e17084)
REM AIRSS Version 0.9.1 bugfix July 2018 build 013d7b7c2542+ Fri, 06 Jul 2018 19:26:36 +0100
REM compiler GCC version 9.3.0
REM options -cpp -mtune=generic -march=x86-64 -g -O0
REM seed -1185250179 -1542196130 1624906213 -827360061 -825955993 -1669908287 1482246991 -1990084275 1254760631 1269162249 -1769126017 1706865870 -1544767090 -560931665 -919937989 -1099088634 -62537720 -1533630864 293720730 -189935758 -318650415 -597796523 -487682838 1252260717 -1388504445 -738145800 -46993806 430904716 -1443113040 -796078739 1546224377 947435080 -1803253616
REM
CELL 1.54180   50.00000   50.00000   50.00000   90.00000   90.00000   90.00000
LATT -1
SFAC C  
C      1  0.4762930000000  0.4566370000000  0.5418780000000 1.0
C      1  0.4562770000000  0.5244950000000  0.4595600000000 1.0
C      1  0.5258400000000  0.5432740000000  0.5407390000000 1.0
C      1  0.5429030000000  0.4749360000000  0.4581530000000 1.0
C      1  0.5166650000000  0.4547160000000  0.5130100000000 1.0
C      1  0.4549440000000  0.4836950000000  0.4878530000000 1.0
C      1  0.4844600000000  0.5450310000000  0.5133240000000 1.0
C      1  0.5452440000000  0.5159000000000  0.4861420000000 1.0
C      1  0.4550360000000  0.4433490000000  0.4736350000000 1.0
C      1  0.4444190000000  0.5447260000000  0.5283760000000 1.0
C      1  0.5446380000000  0.5561630000000  0.4717030000000 1.0
C      1  0.5572200000000  0.4551050000000  0.5266160000000 1.0
C      1  0.5611060000000  0.5378430000000  0.4808120000000 1.0
C      1  0.5387090000000  0.4387760000000  0.5176440000000 1.0
C      1  0.4389040000000  0.4617230000000  0.4832220000000 1.0
C      1  0.4625940000000  0.5610000000000  0.5186520000000 1.0
C      1  0.5044110000000  0.5377480000000  0.4693870000000 1.0
C      1  0.5388700000000  0.4952920000000  0.5299170000000 1.0
C      1  0.4951530000000  0.4617450000000  0.4697740000000 1.0
C      1  0.4628790000000  0.5045560000000  0.5312510000000 1.0
C      1  0.4877630000000  0.4560230000000  0.5167280000000 1.0
C      1  0.4561820000000  0.5126490000000  0.4845430000000 1.0
C      1  0.5134770000000  0.5437430000000  0.5160130000000 1.0
C      1  0.5438910000000  0.4869270000000  0.4830460000000 1.0
C      1  0.4829370000000  0.4761540000000  0.4931150000000 1.0
C      1  0.4768020000000  0.5171200000000  0.5078020000000 1.0
C      1  0.5174560000000  0.5234740000000  0.4923590000000 1.0
C      1  0.5241170000000  0.4825940000000  0.5070550000000 1.0
C      1  0.5151820000000  0.4786720000000  0.4554710000000 1.0
C      1  0.4800930000000  0.4843140000000  0.5448970000000 1.0
C      1  0.4838840000000  0.5207410000000  0.4559090000000 1.0
C      1  0.5221540000000  0.5156150000000  0.5440530000000 1.0
C      1  0.5613770000000  0.4800240000000  0.5352010000000 1.0
C      1  0.4797700000000  0.4393200000000  0.4644720000000 1.0
C      1  0.4405740000000  0.5198580000000  0.5372490000000 1.0
C      1  0.5195920000000  0.5601410000000  0.4634070000000 1.0
C      1  0.5012630000000  0.4999870000000  0.5522460000000 1.0
C      1  0.4993940000000  0.4996840000000  0.4479190000000 1.0
C      1  0.5003280000000  0.4998360000000  0.5000820000000 1.0
END
