TITL C-146856-8651-14 -66.8444403519625 125000 -129.876638356768 0 0 20 (C1) n - 1
REM
REM in /rds/project/t2_vol4/rds-t2-cs072/BORA/CARBON/from-Arr/AIRSS/Generating-Clusters/GAP-ML-2020/Higher-Symm/SD-CG/HFTN-CG
REM
REM
REM
REM
REM
REM ./C.cell (b20cbc046b6831c77cfcea5457e17084)
REM AIRSS Version 0.9.1 bugfix July 2018 build 013d7b7c2542+ Fri, 06 Jul 2018 19:26:36 +0100
REM compiler GCC version 9.3.0
REM options -cpp -mtune=generic -march=x86-64 -g -O0
REM seed 235880632 -1129567232 -1894084398 -1585316874 1875096246 1543287557 1855335441 575930907 570287097 -922613524 -992266268 -2024370552 137536781 -1329285374 1408610868 -1872956250 1504310525 23312784 -150161441 919227992 -1450054720 800516523 1732545020 2061417999 -1942698474 307976282 358245945 287426061 1954880440 1324322817 -829252962 -427173549 -1829978924
REM
CELL 1.54180   50.00000   50.00000   50.00000   90.00000   90.00000   90.00000
LATT -1
SFAC C  
C      1  0.4413590000000  0.4935370000000  0.5427030000000 1.0
C      1  0.4572410000000  0.4950100000000  0.4950880000000 1.0
C      1  0.5036210000000  0.4677560000000  0.5380390000000 1.0
C      1  0.4708070000000  0.5323600000000  0.4622740000000 1.0
C      1  0.5022670000000  0.4724510000000  0.4834300000000 1.0
C      1  0.4412750000000  0.4980140000000  0.5172060000000 1.0
C      1  0.4637260000000  0.4768600000000  0.5452980000000 1.0
C      1  0.5551050000000  0.5238500000000  0.4827270000000 1.0
C      1  0.5647160000000  0.5306850000000  0.4583780000000 1.0
C      1  0.5231200000000  0.4639840000000  0.4957370000000 1.0
C      1  0.4598440000000  0.5150580000000  0.4762420000000 1.0
C      1  0.4884950000000  0.4806440000000  0.5586890000000 1.0
C      1  0.5268840000000  0.4728470000000  0.5228780000000 1.0
C      1  0.4787490000000  0.4616470000000  0.5240600000000 1.0
C      1  0.4909580000000  0.5471820000000  0.4531930000000 1.0
C      1  0.5524360000000  0.5085410000000  0.5039060000000 1.0
C      1  0.5160750000000  0.5476050000000  0.4564070000000 1.0
C      1  0.4775210000000  0.4740330000000  0.4978150000000 1.0
C      1  0.5443490000000  0.4939510000000  0.5228110000000 1.0
C      1  0.5414540000000  0.5439850000000  0.4631190000000 1.0
END
