TITL C-148576-4750-7 61.1067236716208 125000 -1106.86418961562 0 0 153 (C1) n - 1
REM
REM in /rds/project/t2_vol4/rds-t2-cs072/BORA/CARBON/from-Arr/AIRSS/Generating-Clusters/GAP-ML-2020/Higher-Symm/SD-CG/HFTN-CG
REM
REM
REM
REM
REM
REM ./C.cell (b20cbc046b6831c77cfcea5457e17084)
REM AIRSS Version 0.9.1 bugfix July 2018 build 013d7b7c2542+ Fri, 06 Jul 2018 19:26:36 +0100
REM compiler GCC version 9.3.0
REM options -cpp -mtune=generic -march=x86-64 -g -O0
REM seed 1229682852 -1979027452 892311006 1190981121 723982086 1687096590 1419458630 764577017 -1264233859 1614863975 -2129163182 -969909322 1782955733 -847581253 1887462084 -962068426 -1527770791 653119678 1981394694 1413787094 223359127 1341871277 1134794782 -25383268 802885410 -2014634479 -167495009 1028536332 1195701043 2134541088 -1841209477 -749509627 -835901048
REM
CELL 1.54180   50.00000   50.00000   50.00000   90.00000   90.00000   90.00000
LATT -1
SFAC C  
C      1  0.5242980000000  0.5237710000000  0.3989230000000 1.0
C      1  0.5248450000000  0.4768580000000  0.6008000000000 1.0
C      1  0.4755740000000  0.4771960000000  0.3997630000000 1.0
C      1  0.4759990000000  0.5224520000000  0.6003740000000 1.0
C      1  0.5245690000000  0.3993150000000  0.5233080000000 1.0
C      1  0.5252200000000  0.6006120000000  0.4766320000000 1.0
C      1  0.4756620000000  0.3992680000000  0.4773150000000 1.0
C      1  0.4764110000000  0.5996320000000  0.5228970000000 1.0
C      1  0.4295010000000  0.4708350000000  0.4277230000000 1.0
C      1  0.4300980000000  0.5284660000000  0.5720410000000 1.0
C      1  0.5711540000000  0.5294340000000  0.4277060000000 1.0
C      1  0.5706490000000  0.4709100000000  0.5724930000000 1.0
C      1  0.4296760000000  0.4276770000000  0.4710840000000 1.0
C      1  0.4305710000000  0.5711280000000  0.5288030000000 1.0
C      1  0.5705040000000  0.4279570000000  0.5293060000000 1.0
C      1  0.5715010000000  0.5725300000000  0.4706280000000 1.0
C      1  0.5332210000000  0.4266960000000  0.4081740000000 1.0
C      1  0.5331290000000  0.5745070000000  0.5928770000000 1.0
C      1  0.4668380000000  0.5747640000000  0.4067920000000 1.0
C      1  0.4671290000000  0.4244790000000  0.5936750000000 1.0
C      1  0.5333080000000  0.4078360000000  0.4258890000000 1.0
C      1  0.5332010000000  0.5924000000000  0.5741810000000 1.0
C      1  0.4669960000000  0.4062180000000  0.5752990000000 1.0
C      1  0.4672020000000  0.5925990000000  0.4255480000000 1.0
C      1  0.5000690000000  0.6098380000000  0.4854870000000 1.0
C      1  0.4995480000000  0.3895660000000  0.5146080000000 1.0
C      1  0.5007080000000  0.3896640000000  0.4860270000000 1.0
C      1  0.5012310000000  0.6096680000000  0.5140740000000 1.0
C      1  0.4997580000000  0.4853480000000  0.6103830000000 1.0
C      1  0.4992290000000  0.5148150000000  0.3890850000000 1.0
C      1  0.5004330000000  0.4861950000000  0.3899330000000 1.0
C      1  0.5009160000000  0.5139090000000  0.6103480000000 1.0
C      1  0.4721200000000  0.5345030000000  0.5156740000000 1.0
C      1  0.4722620000000  0.4639310000000  0.4846000000000 1.0
C      1  0.5274530000000  0.4631190000000  0.5177520000000 1.0
C      1  0.5315950000000  0.5371890000000  0.4819040000000 1.0
C      1  0.4723970000000  0.5154850000000  0.5356310000000 1.0
C      1  0.4707520000000  0.4823580000000  0.4643470000000 1.0
C      1  0.5299200000000  0.5168630000000  0.4620500000000 1.0
C      1  0.5282710000000  0.4821080000000  0.5370410000000 1.0
C      1  0.4553570000000  0.4370920000000  0.5403840000000 1.0
C      1  0.4577040000000  0.5606630000000  0.4606690000000 1.0
C      1  0.5437000000000  0.5611200000000  0.5388800000000 1.0
C      1  0.5432500000000  0.4388620000000  0.4613100000000 1.0
C      1  0.4564260000000  0.5393360000000  0.4374110000000 1.0
C      1  0.4553470000000  0.4592650000000  0.5627600000000 1.0
C      1  0.5443700000000  0.5395310000000  0.5619700000000 1.0
C      1  0.5421460000000  0.4623250000000  0.4401130000000 1.0
C      1  0.5516360000000  0.4287630000000  0.5513510000000 1.0
C      1  0.5526680000000  0.5717530000000  0.4484120000000 1.0
C      1  0.4493970000000  0.5702210000000  0.5507420000000 1.0
C      1  0.4485570000000  0.4286730000000  0.4490130000000 1.0
C      1  0.5522780000000  0.5514530000000  0.4283610000000 1.0
C      1  0.5516800000000  0.4488670000000  0.5714700000000 1.0
C      1  0.4491270000000  0.5503940000000  0.5711060000000 1.0
C      1  0.4484510000000  0.4487860000000  0.4287680000000 1.0
C      1  0.4134530000000  0.5498120000000  0.5300830000000 1.0
C      1  0.4128080000000  0.4492380000000  0.4697060000000 1.0
C      1  0.5873760000000  0.4494750000000  0.5306290000000 1.0
C      1  0.5884400000000  0.5510690000000  0.4695000000000 1.0
C      1  0.4131280000000  0.5297400000000  0.5505760000000 1.0
C      1  0.4126140000000  0.4694050000000  0.4492910000000 1.0
C      1  0.5881880000000  0.5306560000000  0.4492020000000 1.0
C      1  0.5876220000000  0.4696160000000  0.5510390000000 1.0
C      1  0.5162700000000  0.4794130000000  0.4465810000000 1.0
C      1  0.5189170000000  0.5221740000000  0.5563510000000 1.0
C      1  0.4822130000000  0.5222650000000  0.4426740000000 1.0
C      1  0.4814090000000  0.4764190000000  0.5571460000000 1.0
C      1  0.5177760000000  0.4437620000000  0.4781200000000 1.0
C      1  0.5183700000000  0.5541210000000  0.5213710000000 1.0
C      1  0.4814970000000  0.4428630000000  0.5234480000000 1.0
C      1  0.4841440000000  0.5544920000000  0.4773220000000 1.0
C      1  0.4648950000000  0.5894460000000  0.4527060000000 1.0
C      1  0.4637930000000  0.4086120000000  0.5481150000000 1.0
C      1  0.5358840000000  0.4100730000000  0.4530090000000 1.0
C      1  0.5360920000000  0.5895970000000  0.5470330000000 1.0
C      1  0.4640150000000  0.4516620000000  0.5912310000000 1.0
C      1  0.4636250000000  0.5476100000000  0.4088570000000 1.0
C      1  0.5350070000000  0.4538540000000  0.4114210000000 1.0
C      1  0.5362740000000  0.5473950000000  0.5906490000000 1.0
C      1  0.5258760000000  0.5088130000000  0.5325390000000 1.0
C      1  0.5200500000000  0.4919150000000  0.4739360000000 1.0
C      1  0.4765340000000  0.4886370000000  0.5317820000000 1.0
C      1  0.4739060000000  0.5094120000000  0.4666950000000 1.0
C      1  0.5245320000000  0.5278100000000  0.5091690000000 1.0
C      1  0.5232980000000  0.4681840000000  0.4912860000000 1.0
C      1  0.4812960000000  0.5273670000000  0.4889870000000 1.0
C      1  0.4767250000000  0.4683540000000  0.5113010000000 1.0
C      1  0.4752510000000  0.5785160000000  0.5418150000000 1.0
C      1  0.4743490000000  0.4201850000000  0.4581100000000 1.0
C      1  0.5258720000000  0.4197870000000  0.5428360000000 1.0
C      1  0.5268650000000  0.5801370000000  0.4571940000000 1.0
C      1  0.4749790000000  0.5414690000000  0.5793570000000 1.0
C      1  0.4742940000000  0.4579240000000  0.4205530000000 1.0
C      1  0.5262220000000  0.5429270000000  0.4198060000000 1.0
C      1  0.5259450000000  0.4574140000000  0.5803330000000 1.0
C      1  0.4581630000000  0.4015070000000  0.5004090000000 1.0
C      1  0.4590590000000  0.5970800000000  0.4998670000000 1.0
C      1  0.5426140000000  0.5979960000000  0.4998140000000 1.0
C      1  0.5419950000000  0.4019920000000  0.5001970000000 1.0
C      1  0.4579020000000  0.5001330000000  0.4015150000000 1.0
C      1  0.4584500000000  0.4993420000000  0.5981540000000 1.0
C      1  0.5423530000000  0.5000210000000  0.5984150000000 1.0
C      1  0.5416990000000  0.5006840000000  0.4022360000000 1.0
C      1  0.5626540000000  0.5022810000000  0.4210650000000 1.0
C      1  0.5634060000000  0.4983250000000  0.5796410000000 1.0
C      1  0.4367910000000  0.4981610000000  0.4202540000000 1.0
C      1  0.4374330000000  0.5011710000000  0.5793330000000 1.0
C      1  0.5629170000000  0.4209180000000  0.5019430000000 1.0
C      1  0.5635310000000  0.5791440000000  0.4980180000000 1.0
C      1  0.4371770000000  0.4203780000000  0.4984630000000 1.0
C      1  0.4383960000000  0.5780440000000  0.5016530000000 1.0
C      1  0.5826500000000  0.5171440000000  0.5373380000000 1.0
C      1  0.5809730000000  0.4838810000000  0.4637330000000 1.0
C      1  0.4178750000000  0.4822690000000  0.5374140000000 1.0
C      1  0.4178180000000  0.5167610000000  0.4623210000000 1.0
C      1  0.5822850000000  0.5369730000000  0.5169330000000 1.0
C      1  0.5812600000000  0.4637040000000  0.4836410000000 1.0
C      1  0.4192740000000  0.5360410000000  0.4829730000000 1.0
C      1  0.4179520000000  0.4624740000000  0.5171060000000 1.0
C      1  0.4352010000000  0.5596210000000  0.4802390000000 1.0
C      1  0.4328220000000  0.4381560000000  0.5203050000000 1.0
C      1  0.5666560000000  0.4392420000000  0.4803880000000 1.0
C      1  0.5669770000000  0.5609120000000  0.5197060000000 1.0
C      1  0.4328510000000  0.4792210000000  0.5616720000000 1.0
C      1  0.4328230000000  0.5200380000000  0.4380500000000 1.0
C      1  0.5655030000000  0.4810150000000  0.4399260000000 1.0
C      1  0.5676990000000  0.5202210000000  0.5616860000000 1.0
C      1  0.4730230000000  0.4755670000000  0.6045040000000 1.0
C      1  0.4722610000000  0.5240220000000  0.3948440000000 1.0
C      1  0.5276630000000  0.5237390000000  0.6044850000000 1.0
C      1  0.5268790000000  0.4770310000000  0.3972170000000 1.0
C      1  0.4734870000000  0.6031150000000  0.4761760000000 1.0
C      1  0.4727240000000  0.3952940000000  0.5242290000000 1.0
C      1  0.5278720000000  0.6034840000000  0.5235190000000 1.0
C      1  0.5274100000000  0.3959420000000  0.4764410000000 1.0
C      1  0.4914040000000  0.5547040000000  0.5334420000000 1.0
C      1  0.4909590000000  0.4436910000000  0.4661530000000 1.0
C      1  0.5082050000000  0.4427060000000  0.5359720000000 1.0
C      1  0.5108920000000  0.5560650000000  0.4653500000000 1.0
C      1  0.4917050000000  0.5334970000000  0.5556700000000 1.0
C      1  0.4902540000000  0.4655650000000  0.4447070000000 1.0
C      1  0.5096950000000  0.5343650000000  0.4437310000000 1.0
C      1  0.5082320000000  0.4641340000000  0.5574380000000 1.0
C      1  0.4094330000000  0.4688410000000  0.4904470000000 1.0
C      1  0.4102230000000  0.5300900000000  0.5094470000000 1.0
C      1  0.5912580000000  0.5314850000000  0.4903870000000 1.0
C      1  0.5904830000000  0.4692930000000  0.5100430000000 1.0
C      1  0.4091530000000  0.4902510000000  0.4687370000000 1.0
C      1  0.4096740000000  0.5088780000000  0.5310920000000 1.0
C      1  0.5909820000000  0.4905010000000  0.5315580000000 1.0
C      1  0.5910800000000  0.5100670000000  0.4690630000000 1.0
C      1  0.5064380000000  0.5119530000000  0.4927720000000 1.0
END
