TITL C-146857-7153-3 -0.126771948954385 125000 -236.526763967891 0 0 34 (D2) n - 1
REM
REM in /rds/project/t2_vol4/rds-t2-cs072/BORA/CARBON/from-Arr/AIRSS/Generating-Clusters/GAP-ML-2020/Higher-Symm/SD-CG/HFTN-CG
REM
REM
REM
REM
REM
REM ./C.cell (b20cbc046b6831c77cfcea5457e17084)
REM AIRSS Version 0.9.1 bugfix July 2018 build 013d7b7c2542+ Fri, 06 Jul 2018 19:26:36 +0100
REM compiler GCC version 9.3.0
REM options -cpp -mtune=generic -march=x86-64 -g -O0
REM seed 1232242588 -1171687223 738539756 529670057 2061924640 -1857781400 456967591 1884696709 1533206710 1297281592 -5508234 1034246834 -1490930169 514314047 -1414252809 -1844101723 -1172409948 -1120230456 1241808573 1997917190 -2006370721 -125147241 -46544919 1559632331 1323398710 -26292836 -2022121750 -1708836055 1482536845 -1444007090 -1649906948 2029670423 517293087
REM
CELL 1.54180   50.00000   50.00000   50.00000   90.00000   90.00000   90.00000
LATT -1
SFAC C  
C      1  0.4778440000000  0.4925700000000  0.5440970000000 1.0
C      1  0.5221790000000  0.4918020000000  0.4560610000000 1.0
C      1  0.5233720000000  0.5093120000000  0.5433050000000 1.0
C      1  0.4766040000000  0.5084270000000  0.4565380000000 1.0
C      1  0.4588390000000  0.4870280000000  0.4664760000000 1.0
C      1  0.5411980000000  0.4877800000000  0.5337720000000 1.0
C      1  0.5402080000000  0.5133800000000  0.4650940000000 1.0
C      1  0.4597550000000  0.5139230000000  0.5346580000000 1.0
C      1  0.4773930000000  0.5334760000000  0.4729170000000 1.0
C      1  0.5225130000000  0.5340450000000  0.5264560000000 1.0
C      1  0.5218530000000  0.4670670000000  0.4729260000000 1.0
C      1  0.4782410000000  0.4675220000000  0.5277010000000 1.0
C      1  0.5652070000000  0.4807600000000  0.4930960000000 1.0
C      1  0.4348490000000  0.4807090000000  0.5072770000000 1.0
C      1  0.4346210000000  0.5201780000000  0.4945420000000 1.0
C      1  0.5653230000000  0.5204630000000  0.5050850000000 1.0
C      1  0.4353190000000  0.4952360000000  0.4808120000000 1.0
C      1  0.5646950000000  0.4957830000000  0.5192830000000 1.0
C      1  0.5641200000000  0.5054390000000  0.4789220000000 1.0
C      1  0.4358660000000  0.5056530000000  0.5209830000000 1.0
C      1  0.4980750000000  0.5416240000000  0.5142400000000 1.0
C      1  0.5018090000000  0.5413530000000  0.4849870000000 1.0
C      1  0.5023310000000  0.4597080000000  0.5149550000000 1.0
C      1  0.4977850000000  0.4594260000000  0.4858180000000 1.0
C      1  0.4574060000000  0.5363990000000  0.4935290000000 1.0
C      1  0.5424920000000  0.5366360000000  0.5057920000000 1.0
C      1  0.5424060000000  0.4645290000000  0.4930250000000 1.0
C      1  0.4576960000000  0.4645470000000  0.5076540000000 1.0
C      1  0.5294690000000  0.4654830000000  0.5195220000000 1.0
C      1  0.4706310000000  0.4650380000000  0.4811440000000 1.0
C      1  0.4710770000000  0.5359430000000  0.5196690000000 1.0
C      1  0.5288230000000  0.5356470000000  0.4796660000000 1.0
C      1  0.4992310000000  0.5000050000000  0.4447470000000 1.0
C      1  0.5007690000000  0.5010500000000  0.5552530000000 1.0
END
