TITL C-149058-9508-7 -0.107983554981612 125000 -451.922424755462 0 0 63 (C1) n - 1
REM
REM in /rds/project/t2_vol4/rds-t2-cs072/BORA/CARBON/from-Arr/AIRSS/Generating-Clusters/GAP-ML-2020/Higher-Symm/SD-CG/HFTN-CG
REM
REM
REM
REM
REM
REM ./C.cell (b20cbc046b6831c77cfcea5457e17084)
REM AIRSS Version 0.9.1 bugfix July 2018 build 013d7b7c2542+ Fri, 06 Jul 2018 19:26:36 +0100
REM compiler GCC version 9.3.0
REM options -cpp -mtune=generic -march=x86-64 -g -O0
REM seed -856314505 -187646769 -1134891785 467243946 -1886841626 1994393474 -1376837870 1690168787 1102730515 -1517823171 -1075870450 55507751 -1623876813 -740071179 1192115554 -317295450 1632343139 -2098765864 17611871 1536041018 -208934434 1272352500 321769580 1989030280 -68141137 -2084840270 -1740199964 437031678 -1578779776 -658593329 1829854244 1017264909 -473161844
REM
CELL 1.54180   50.00000   50.00000   50.00000   90.00000   90.00000   90.00000
LATT -1
SFAC C  
C      1  0.4556110000000  0.4729060000000  0.5489220000000 1.0
C      1  0.5412990000000  0.5296640000000  0.4532470000000 1.0
C      1  0.4556860000000  0.5197500000000  0.4595330000000 1.0
C      1  0.5430000000000  0.4746640000000  0.5427010000000 1.0
C      1  0.4908280000000  0.5015220000000  0.4200610000000 1.0
C      1  0.5103990000000  0.5008440000000  0.5719070000000 1.0
C      1  0.4944970000000  0.5457810000000  0.4469900000000 1.0
C      1  0.5027600000000  0.4540870000000  0.5613180000000 1.0
C      1  0.5494880000000  0.4838770000000  0.4530990000000 1.0
C      1  0.4489490000000  0.5196470000000  0.5440500000000 1.0
C      1  0.5601000000000  0.4809140000000  0.5001050000000 1.0
C      1  0.4343100000000  0.5153370000000  0.4954210000000 1.0
C      1  0.5400520000000  0.5410340000000  0.5430100000000 1.0
C      1  0.4594930000000  0.4557570000000  0.4609950000000 1.0
C      1  0.5217670000000  0.4322510000000  0.5344860000000 1.0
C      1  0.4770580000000  0.5743500000000  0.4778980000000 1.0
C      1  0.4387910000000  0.4988810000000  0.4723240000000 1.0
C      1  0.5569930000000  0.4938380000000  0.5260130000000 1.0
C      1  0.4825130000000  0.5081130000000  0.5734690000000 1.0
C      1  0.5193460000000  0.4963130000000  0.4202100000000 1.0
C      1  0.4595510000000  0.4408370000000  0.5045050000000 1.0
C      1  0.5407170000000  0.5580170000000  0.5001070000000 1.0
C      1  0.5214840000000  0.4771530000000  0.5622840000000 1.0
C      1  0.4828590000000  0.5178960000000  0.4455810000000 1.0
C      1  0.4989890000000  0.4986940000000  0.4631430000000 1.0
C      1  0.4966430000000  0.5002570000000  0.5096150000000 1.0
C      1  0.5552690000000  0.5224240000000  0.5255440000000 1.0
C      1  0.4407870000000  0.4713890000000  0.4767220000000 1.0
C      1  0.5249880000000  0.5670230000000  0.4784840000000 1.0
C      1  0.4758200000000  0.4358700000000  0.5263370000000 1.0
C      1  0.4486760000000  0.5372730000000  0.4827200000000 1.0
C      1  0.5407170000000  0.4511540000000  0.5263140000000 1.0
C      1  0.4749180000000  0.4400960000000  0.4804990000000 1.0
C      1  0.5270800000000  0.5599210000000  0.5244340000000 1.0
C      1  0.5004190000000  0.5696510000000  0.5182130000000 1.0
C      1  0.5034760000000  0.4355690000000  0.4877750000000 1.0
C      1  0.5584420000000  0.5224950000000  0.4756270000000 1.0
C      1  0.4387960000000  0.4777700000000  0.5259790000000 1.0
C      1  0.4676350000000  0.5421580000000  0.5446400000000 1.0
C      1  0.5320570000000  0.4617550000000  0.4521140000000 1.0
C      1  0.5220940000000  0.5501450000000  0.4555030000000 1.0
C      1  0.4753530000000  0.4524420000000  0.5495790000000 1.0
C      1  0.5144480000000  0.4685960000000  0.4289280000000 1.0
C      1  0.4878420000000  0.5353330000000  0.5645450000000 1.0
C      1  0.4775940000000  0.5668310000000  0.4517380000000 1.0
C      1  0.5157960000000  0.4302130000000  0.5612670000000 1.0
C      1  0.4589470000000  0.4986600000000  0.5612060000000 1.0
C      1  0.5391070000000  0.5061300000000  0.4376320000000 1.0
C      1  0.5015260000000  0.4287790000000  0.5153860000000 1.0
C      1  0.5018340000000  0.5784350000000  0.4906880000000 1.0
C      1  0.5570070000000  0.5353560000000  0.5000830000000 1.0
C      1  0.4401910000000  0.4612610000000  0.5034980000000 1.0
C      1  0.5177240000000  0.5292840000000  0.5667580000000 1.0
C      1  0.4857160000000  0.4724570000000  0.4242700000000 1.0
C      1  0.5619140000000  0.4944070000000  0.4761440000000 1.0
C      1  0.4351580000000  0.5062360000000  0.5220830000000 1.0
C      1  0.5457910000000  0.4562210000000  0.4990400000000 1.0
C      1  0.4604950000000  0.5592420000000  0.4961910000000 1.0
C      1  0.4639380000000  0.4615070000000  0.4345110000000 1.0
C      1  0.5411230000000  0.5437110000000  0.5714500000000 1.0
C      1  0.5283260000000  0.4474700000000  0.4773530000000 1.0
C      1  0.4735600000000  0.5593250000000  0.5226250000000 1.0
C      1  0.5080180000000  0.5019420000000  0.4876860000000 1.0
END
