TITL C-146876-9880-3 1286.08986364217 125000 -655.673107283837 0 0 97 (C1) n - 1
REM
REM in /rds/project/t2_vol4/rds-t2-cs072/BORA/CARBON/from-Arr/AIRSS/Generating-Clusters/GAP-ML-2020/Higher-Symm/SD-CG/HFTN-CG
REM
REM
REM
REM
REM
REM ./C.cell (b20cbc046b6831c77cfcea5457e17084)
REM AIRSS Version 0.9.1 bugfix July 2018 build 013d7b7c2542+ Fri, 06 Jul 2018 19:26:36 +0100
REM compiler GCC version 9.3.0
REM options -cpp -mtune=generic -march=x86-64 -g -O0
REM seed -1737065729 -1487339627 -1675000332 -2054594026 -2067522831 -1199824407 1835971210 1464709555 81059302 -820219610 741139415 -772335728 2119038225 1259068348 -1746590509 2146314842 -989904202 176452414 1649119378 674441522 -1915554813 -1526915617 1549067465 2043571878 -1428196920 -684273680 1951531102 -293534045 308330204 708394282 1710456876 -974340550 84485124
REM
CELL 1.54180   50.00000   50.00000   50.00000   90.00000   90.00000   90.00000
LATT -1
SFAC C  
C      1  0.5179540000000  0.4974190000000  0.5873760000000 1.0
C      1  0.5233750000000  0.4311170000000  0.5588690000000 1.0
C      1  0.5378510000000  0.4228530000000  0.4853580000000 1.0
C      1  0.5328430000000  0.4615100000000  0.4211500000000 1.0
C      1  0.5294780000000  0.5349680000000  0.4183240000000 1.0
C      1  0.5339340000000  0.5741330000000  0.4777440000000 1.0
C      1  0.5267760000000  0.5616030000000  0.5534090000000 1.0
C      1  0.4926280000000  0.4938990000000  0.3989000000000 1.0
C      1  0.4937920000000  0.5741330000000  0.4368300000000 1.0
C      1  0.4986390000000  0.5918980000000  0.5154220000000 1.0
C      1  0.4847900000000  0.5452230000000  0.5849660000000 1.0
C      1  0.4824870000000  0.4603070000000  0.5933070000000 1.0
C      1  0.4974100000000  0.4025140000000  0.5256070000000 1.0
C      1  0.4971940000000  0.4226520000000  0.4474220000000 1.0
C      1  0.4136170000000  0.5245290000000  0.5352070000000 1.0
C      1  0.4162810000000  0.4759180000000  0.5212410000000 1.0
C      1  0.4231950000000  0.4591920000000  0.4986840000000 1.0
C      1  0.4260070000000  0.4710010000000  0.4726060000000 1.0
C      1  0.4279210000000  0.4994890000000  0.4688650000000 1.0
C      1  0.4208560000000  0.5440270000000  0.4925660000000 1.0
C      1  0.4191770000000  0.5494500000000  0.5212110000000 1.0
C      1  0.4385350000000  0.4572180000000  0.5646460000000 1.0
C      1  0.4531620000000  0.4169070000000  0.5062530000000 1.0
C      1  0.4532000000000  0.4424860000000  0.4391260000000 1.0
C      1  0.4514320000000  0.5119550000000  0.4237540000000 1.0
C      1  0.4516980000000  0.5742290000000  0.4633190000000 1.0
C      1  0.4545420000000  0.5827100000000  0.5363260000000 1.0
C      1  0.4387760000000  0.5237290000000  0.5791690000000 1.0
C      1  0.5374580000000  0.4603200000000  0.5171280000000 1.0
C      1  0.5428650000000  0.4768510000000  0.4643030000000 1.0
C      1  0.5389990000000  0.5039980000000  0.4539610000000 1.0
C      1  0.5432270000000  0.5285240000000  0.4694460000000 1.0
C      1  0.5405000000000  0.5287660000000  0.5244630000000 1.0
C      1  0.5328170000000  0.5047020000000  0.5443870000000 1.0
C      1  0.5345110000000  0.4736670000000  0.5430580000000 1.0
C      1  0.4202280000000  0.5216440000000  0.5621560000000 1.0
C      1  0.4229880000000  0.4660940000000  0.5469830000000 1.0
C      1  0.4351280000000  0.4340230000000  0.5021890000000 1.0
C      1  0.4353590000000  0.4540170000000  0.4526110000000 1.0
C      1  0.4481360000000  0.5095140000000  0.4506970000000 1.0
C      1  0.4320390000000  0.5631440000000  0.4751010000000 1.0
C      1  0.4322600000000  0.5710070000000  0.5329480000000 1.0
C      1  0.5665260000000  0.4613500000000  0.4516240000000 1.0
C      1  0.5633730000000  0.5428810000000  0.4300240000000 1.0
C      1  0.5646320000000  0.5483490000000  0.4563200000000 1.0
C      1  0.5591900000000  0.5384300000000  0.5503070000000 1.0
C      1  0.5541210000000  0.5149920000000  0.5649160000000 1.0
C      1  0.5571590000000  0.4595920000000  0.5605470000000 1.0
C      1  0.5679340000000  0.4373440000000  0.4629990000000 1.0
C      1  0.5158810000000  0.4332340000000  0.4680470000000 1.0
C      1  0.5125730000000  0.4832320000000  0.4174550000000 1.0
C      1  0.5109710000000  0.5495260000000  0.4364370000000 1.0
C      1  0.5147610000000  0.5722830000000  0.5007310000000 1.0
C      1  0.5046350000000  0.5430130000000  0.5627670000000 1.0
C      1  0.5073380000000  0.4707110000000  0.5862830000000 1.0
C      1  0.5187250000000  0.4166870000000  0.5352450000000 1.0
C      1  0.5592150000000  0.4641780000000  0.4233540000000 1.0
C      1  0.5531070000000  0.5429360000000  0.4057860000000 1.0
C      1  0.5594960000000  0.5730790000000  0.4698680000000 1.0
C      1  0.5532710000000  0.5634100000000  0.5606560000000 1.0
C      1  0.5431200000000  0.5082610000000  0.5891590000000 1.0
C      1  0.5502580000000  0.4352860000000  0.5662660000000 1.0
C      1  0.5638820000000  0.4160820000000  0.4773790000000 1.0
C      1  0.4730660000000  0.5031750000000  0.5313040000000 1.0
C      1  0.4772700000000  0.4750830000000  0.5256680000000 1.0
C      1  0.4872370000000  0.4654500000000  0.5013300000000 1.0
C      1  0.4900990000000  0.4866340000000  0.4669950000000 1.0
C      1  0.4776200000000  0.5129160000000  0.4630300000000 1.0
C      1  0.4815580000000  0.5305980000000  0.4878860000000 1.0
C      1  0.4786370000000  0.5262830000000  0.5155340000000 1.0
C      1  0.5215720000000  0.5081810000000  0.4313080000000 1.0
C      1  0.5209530000000  0.5496990000000  0.4639690000000 1.0
C      1  0.5204180000000  0.5527710000000  0.5242360000000 1.0
C      1  0.5089710000000  0.5130910000000  0.5620730000000 1.0
C      1  0.5113930000000  0.4594850000000  0.5582820000000 1.0
C      1  0.5269850000000  0.4336710000000  0.5117680000000 1.0
C      1  0.5230890000000  0.4575300000000  0.4512560000000 1.0
C      1  0.4815790000000  0.5780610000000  0.5311160000000 1.0
C      1  0.4667610000000  0.5255170000000  0.5797970000000 1.0
C      1  0.4658040000000  0.4549530000000  0.5715380000000 1.0
C      1  0.4811870000000  0.4148900000000  0.5070250000000 1.0
C      1  0.4811580000000  0.4425120000000  0.4391420000000 1.0
C      1  0.4771940000000  0.5112550000000  0.4139670000000 1.0
C      1  0.4795890000000  0.5730230000000  0.4595700000000 1.0
C      1  0.4915720000000  0.5481930000000  0.5325820000000 1.0
C      1  0.4801470000000  0.5074360000000  0.5592460000000 1.0
C      1  0.4837370000000  0.4587820000000  0.5485010000000 1.0
C      1  0.4980760000000  0.4378430000000  0.4959400000000 1.0
C      1  0.4969100000000  0.4692260000000  0.4442410000000 1.0
C      1  0.4937930000000  0.5215830000000  0.4377130000000 1.0
C      1  0.4957000000000  0.5550770000000  0.4802120000000 1.0
C      1  0.4124850000000  0.5037290000000  0.5156270000000 1.0
C      1  0.5570360000000  0.4954740000000  0.4993460000000 1.0
C      1  0.4179870000000  0.5153850000000  0.4898220000000 1.0
C      1  0.5506740000000  0.5213080000000  0.4979580000000 1.0
C      1  0.5358620000000  0.4774140000000  0.4937690000000 1.0
C      1  0.5051400000000  0.4833690000000  0.4899680000000 1.0
END
