TITL C-148559-4625-3 -143.762052378021 125000 -889.587681482436 0 0 132 (C1) n - 1
REM
REM in /rds/project/t2_vol4/rds-t2-cs072/BORA/CARBON/from-Arr/AIRSS/Generating-Clusters/GAP-ML-2020/Higher-Symm/SD-CG/HFTN-CG
REM
REM
REM
REM
REM
REM ./C.cell (b20cbc046b6831c77cfcea5457e17084)
REM AIRSS Version 0.9.1 bugfix July 2018 build 013d7b7c2542+ Fri, 06 Jul 2018 19:26:36 +0100
REM compiler GCC version 9.3.0
REM options -cpp -mtune=generic -march=x86-64 -g -O0
REM seed -660838873 685912980 1404032571 -14345569 1450801105 -1889573280 -8880224 -1900797755 -1710251204 -1391974686 1553374458 -588447558 -1086108687 -199088830 -586378511 707890222 -734451932 -931184922 -1385646105 -935896520 -5201137 1344643411 1142393326 969415345 725292854 1442988170 668122243 1893684171 1768582825 861525859 1918562332 837381243 482976073
REM
CELL 1.54180   50.00000   50.00000   50.00000   90.00000   90.00000   90.00000
LATT -1
SFAC C  
C      1  0.5659000000000  0.5453980000000  0.5267740000000 1.0
C      1  0.5535290000000  0.5331150000000  0.5749570000000 1.0
C      1  0.5263240000000  0.5664930000000  0.5486020000000 1.0
C      1  0.4266430000000  0.4457230000000  0.5339040000000 1.0
C      1  0.5621840000000  0.4556900000000  0.4773830000000 1.0
C      1  0.4367990000000  0.5501750000000  0.4772400000000 1.0
C      1  0.4557040000000  0.4732800000000  0.5667850000000 1.0
C      1  0.5416210000000  0.4724390000000  0.4352570000000 1.0
C      1  0.4513610000000  0.5300230000000  0.4316780000000 1.0
C      1  0.4739900000000  0.4339700000000  0.5475120000000 1.0
C      1  0.5369840000000  0.4245630000000  0.4451460000000 1.0
C      1  0.4747880000000  0.5709730000000  0.4482200000000 1.0
C      1  0.5472580000000  0.5674500000000  0.5268630000000 1.0
C      1  0.5338350000000  0.5542920000000  0.5748200000000 1.0
C      1  0.5646510000000  0.5245010000000  0.5482850000000 1.0
C      1  0.4511350000000  0.4316450000000  0.5263870000000 1.0
C      1  0.4607360000000  0.5678780000000  0.4737800000000 1.0
C      1  0.5445390000000  0.4323330000000  0.4729190000000 1.0
C      1  0.4716450000000  0.4493950000000  0.5730260000000 1.0
C      1  0.4653740000000  0.5556910000000  0.4262450000000 1.0
C      1  0.5349190000000  0.4448590000000  0.4268260000000 1.0
C      1  0.4330960000000  0.4719750000000  0.5456070000000 1.0
C      1  0.4320810000000  0.5296950000000  0.4558550000000 1.0
C      1  0.5610620000000  0.4774540000000  0.4565930000000 1.0
C      1  0.5205950000000  0.5031180000000  0.5414050000000 1.0
C      1  0.5093340000000  0.5482070000000  0.5296710000000 1.0
C      1  0.5493110000000  0.5265270000000  0.5091500000000 1.0
C      1  0.4739190000000  0.4860780000000  0.5426300000000 1.0
C      1  0.5197070000000  0.4884490000000  0.4519200000000 1.0
C      1  0.4695990000000  0.5136730000000  0.4508760000000 1.0
C      1  0.4909500000000  0.4470090000000  0.5240490000000 1.0
C      1  0.4971630000000  0.4518040000000  0.4733020000000 1.0
C      1  0.5002270000000  0.5361670000000  0.4798870000000 1.0
C      1  0.4568630000000  0.4738150000000  0.4985160000000 1.0
C      1  0.5414020000000  0.4719380000000  0.4945800000000 1.0
C      1  0.4538740000000  0.5303170000000  0.4963980000000 1.0
C      1  0.5007680000000  0.5216380000000  0.5365470000000 1.0
C      1  0.5471000000000  0.5063930000000  0.5298170000000 1.0
C      1  0.5299540000000  0.5493310000000  0.5090430000000 1.0
C      1  0.4977540000000  0.4735950000000  0.5315470000000 1.0
C      1  0.4951670000000  0.5259650000000  0.4544560000000 1.0
C      1  0.4949060000000  0.4757230000000  0.4606780000000 1.0
C      1  0.4504330000000  0.4870710000000  0.5228010000000 1.0
C      1  0.4504030000000  0.5127850000000  0.4733760000000 1.0
C      1  0.5410930000000  0.4944200000000  0.4737970000000 1.0
C      1  0.4675090000000  0.4477210000000  0.5051770000000 1.0
C      1  0.4779920000000  0.5487270000000  0.4945610000000 1.0
C      1  0.5217620000000  0.4479640000000  0.4889780000000 1.0
C      1  0.5369430000000  0.5161830000000  0.5922540000000 1.0
C      1  0.5187660000000  0.5953970000000  0.5391710000000 1.0
C      1  0.5943280000000  0.5406220000000  0.5201030000000 1.0
C      1  0.4675580000000  0.4885590000000  0.5898320000000 1.0
C      1  0.5374020000000  0.4827970000000  0.4067520000000 1.0
C      1  0.4651880000000  0.5174830000000  0.4061210000000 1.0
C      1  0.4826460000000  0.4061010000000  0.5428390000000 1.0
C      1  0.5212190000000  0.4021830000000  0.4556890000000 1.0
C      1  0.4874490000000  0.6030500000000  0.4724650000000 1.0
C      1  0.4083240000000  0.4575920000000  0.5157600000000 1.0
C      1  0.5897170000000  0.4627300000000  0.4843470000000 1.0
C      1  0.4078650000000  0.5469220000000  0.4853600000000 1.0
C      1  0.5154810000000  0.5381850000000  0.5909850000000 1.0
C      1  0.5942650000000  0.5184320000000  0.5404780000000 1.0
C      1  0.5418500000000  0.5957840000000  0.5192120000000 1.0
C      1  0.4882820000000  0.4658310000000  0.5911130000000 1.0
C      1  0.4822860000000  0.5430880000000  0.4071340000000 1.0
C      1  0.5216240000000  0.4560060000000  0.4030130000000 1.0
C      1  0.4067020000000  0.4836340000000  0.5353670000000 1.0
C      1  0.4051170000000  0.5232020000000  0.4661590000000 1.0
C      1  0.5888450000000  0.4853120000000  0.4624380000000 1.0
C      1  0.4641570000000  0.4029350000000  0.5201890000000 1.0
C      1  0.4635360000000  0.5954390000000  0.4859150000000 1.0
C      1  0.5387540000000  0.4036400000000  0.4822450000000 1.0
C      1  0.5320630000000  0.4534180000000  0.5653160000000 1.0
C      1  0.4446640000000  0.5785870000000  0.5302180000000 1.0
C      1  0.5749190000000  0.5318820000000  0.4668760000000 1.0
C      1  0.4713440000000  0.5542480000000  0.5670490000000 1.0
C      1  0.5279600000000  0.5573030000000  0.4295090000000 1.0
C      1  0.4745010000000  0.4422850000000  0.4240810000000 1.0
C      1  0.5298510000000  0.4148650000000  0.5274470000000 1.0
C      1  0.4535590000000  0.4174160000000  0.4717730000000 1.0
C      1  0.5554560000000  0.5795350000000  0.4723850000000 1.0
C      1  0.4166760000000  0.4758880000000  0.4697690000000 1.0
C      1  0.5806110000000  0.4750740000000  0.5579360000000 1.0
C      1  0.4287280000000  0.5296280000000  0.5426990000000 1.0
C      1  0.4554040000000  0.5297780000000  0.5625710000000 1.0
C      1  0.5751080000000  0.4649090000000  0.5313530000000 1.0
C      1  0.5291560000000  0.5688950000000  0.4565810000000 1.0
C      1  0.5568380000000  0.4720260000000  0.5736490000000 1.0
C      1  0.5290270000000  0.5273380000000  0.4184150000000 1.0
C      1  0.4641230000000  0.4704770000000  0.4224240000000 1.0
C      1  0.4228060000000  0.5576740000000  0.5314700000000 1.0
C      1  0.4277180000000  0.4296140000000  0.4774460000000 1.0
C      1  0.5781290000000  0.5594130000000  0.4754570000000 1.0
C      1  0.4724550000000  0.4190980000000  0.4449980000000 1.0
C      1  0.4721410000000  0.5743330000000  0.5438950000000 1.0
C      1  0.5289290000000  0.4248680000000  0.5561730000000 1.0
C      1  0.4954140000000  0.4030750000000  0.4481320000000 1.0
C      1  0.4142120000000  0.4512520000000  0.4862850000000 1.0
C      1  0.4636000000000  0.4908220000000  0.4034720000000 1.0
C      1  0.5002380000000  0.5844530000000  0.4562860000000 1.0
C      1  0.4927050000000  0.5975120000000  0.5432250000000 1.0
C      1  0.5100870000000  0.4057170000000  0.5498790000000 1.0
C      1  0.5978380000000  0.5520360000000  0.4953790000000 1.0
C      1  0.4038600000000  0.5559240000000  0.5104810000000 1.0
C      1  0.5924110000000  0.4594740000000  0.5108110000000 1.0
C      1  0.5411240000000  0.5083990000000  0.4006800000000 1.0
C      1  0.4673030000000  0.5172610000000  0.5880270000000 1.0
C      1  0.5386130000000  0.4869620000000  0.5924780000000 1.0
C      1  0.3989770000000  0.4965430000000  0.4651610000000 1.0
C      1  0.4610210000000  0.3971230000000  0.4945230000000 1.0
C      1  0.4977080000000  0.4475310000000  0.4114730000000 1.0
C      1  0.5921510000000  0.5117230000000  0.4594490000000 1.0
C      1  0.6005430000000  0.4959220000000  0.5532660000000 1.0
C      1  0.4067470000000  0.5093560000000  0.5425980000000 1.0
C      1  0.5512550000000  0.5988640000000  0.4933090000000 1.0
C      1  0.5426780000000  0.3978070000000  0.5079070000000 1.0
C      1  0.4484830000000  0.5962200000000  0.5087580000000 1.0
C      1  0.5092250000000  0.5503760000000  0.4113770000000 1.0
C      1  0.5171890000000  0.4663970000000  0.5894710000000 1.0
C      1  0.4864990000000  0.5399370000000  0.5881310000000 1.0
C      1  0.5141860000000  0.5131700000000  0.4388150000000 1.0
C      1  0.5136530000000  0.4338210000000  0.5126910000000 1.0
C      1  0.4491910000000  0.5171550000000  0.5221860000000 1.0
C      1  0.5242200000000  0.4736890000000  0.5413550000000 1.0
C      1  0.4730850000000  0.5158250000000  0.5416670000000 1.0
C      1  0.4865570000000  0.5612960000000  0.5198500000000 1.0
C      1  0.5489720000000  0.4765740000000  0.5228300000000 1.0
C      1  0.4465530000000  0.4828380000000  0.4727740000000 1.0
C      1  0.5486190000000  0.5232850000000  0.4789790000000 1.0
C      1  0.4752260000000  0.4355420000000  0.4811310000000 1.0
C      1  0.5267250000000  0.5458710000000  0.4793090000000 1.0
C      1  0.4687190000000  0.4831440000000  0.4495950000000 1.0
END
