TITL C-140567-4487-3 0.00541234344288357 125000 -33.2672294248302 0 0 6 (D6h) n - 1
REM
REM in /rds/project/t2_vol4/rds-t2-cs072/BORA/CARBON/from-Arr/AIRSS/Generating-Clusters/GAP-ML-2020/Higher-Symm/SD-CG/HFTN-CG
REM
REM
REM
REM
REM
REM ./C.cell (b20cbc046b6831c77cfcea5457e17084)
REM AIRSS Version 0.9.1 bugfix July 2018 build 013d7b7c2542+ Fri, 06 Jul 2018 19:26:36 +0100
REM compiler GCC version 9.3.0
REM options -cpp -mtune=generic -march=x86-64 -g -O0
REM seed -728262302 -1667541200 -2065066854 -18495840 -758855414 1889506775 1195507767 -1453937252 -104457127 -260708989 -1637864369 -340520448 -165613120 317857286 753561681 -835646019 -1081290776 772101866 160985782 -1192565416 -703169620 -1411838075 -929423980 942118107 398181736 -1812043421 -85181858 343286456 965595584 417914496 -866660331 1833866401 -1386690068
REM
CELL 1.54180   50.00000   50.00000   50.00000   90.00000   90.00000   90.00000
LATT -1
SFAC C  
C      1  0.4824700000000  0.5000000000000  0.5210330000000 1.0
C      1  0.4730200000000  0.5000000000000  0.4953350000000 1.0
C      1  0.4905500000000  0.5000000000000  0.4743020000000 1.0
C      1  0.5175300000000  0.5000000000000  0.4789670000000 1.0
C      1  0.5269800000000  0.5000000000000  0.5046650000000 1.0
C      1  0.5094500000000  0.5000000000000  0.5256980000000 1.0
END
