TITL C-148579-4804-4 -0.285819789455267 125000 -1048.27895963212 0 0 151 (C1) n - 1
REM
REM in /rds/project/t2_vol4/rds-t2-cs072/BORA/CARBON/from-Arr/AIRSS/Generating-Clusters/GAP-ML-2020/Higher-Symm/SD-CG/HFTN-CG
REM
REM
REM
REM
REM
REM ./C.cell (b20cbc046b6831c77cfcea5457e17084)
REM AIRSS Version 0.9.1 bugfix July 2018 build 013d7b7c2542+ Fri, 06 Jul 2018 19:26:36 +0100
REM compiler GCC version 9.3.0
REM options -cpp -mtune=generic -march=x86-64 -g -O0
REM seed 1419969212 -1872049189 -980818946 2055393810 -1066685688 -398401318 -1288066114 1202746635 722359626 1257361525 1770478235 -1945876969 -842162057 -2102145018 176831271 -461985153 -1036068651 99768974 1424623749 -124057165 -1791011670 -1465380036 -1131524327 -1030727482 -341530268 1518547010 -1261623676 487283921 1454818341 -1104872112 1007542373 426719803 -375330806
REM
CELL 1.54180   50.00000   50.00000   50.00000   90.00000   90.00000   90.00000
LATT -1
SFAC C  
C      1  0.4721610000000  0.4634510000000  0.4420910000000 1.0
C      1  0.5268860000000  0.4633440000000  0.4437710000000 1.0
C      1  0.5442890000000  0.5134760000000  0.4471840000000 1.0
C      1  0.5000570000000  0.5449820000000  0.4472820000000 1.0
C      1  0.4559260000000  0.5146130000000  0.4457570000000 1.0
C      1  0.4724900000000  0.5361540000000  0.4337060000000 1.0
C      1  0.5261610000000  0.5370330000000  0.4350630000000 1.0
C      1  0.5445560000000  0.4875930000000  0.4330290000000 1.0
C      1  0.5012360000000  0.4561640000000  0.4300690000000 1.0
C      1  0.4565760000000  0.4859980000000  0.4305810000000 1.0
C      1  0.5656550000000  0.5325090000000  0.5746200000000 1.0
C      1  0.4952440000000  0.5723720000000  0.5727640000000 1.0
C      1  0.4353920000000  0.5196330000000  0.5802880000000 1.0
C      1  0.4684560000000  0.4473980000000  0.5918900000000 1.0
C      1  0.5464350000000  0.4557440000000  0.5846470000000 1.0
C      1  0.5651010000000  0.4780970000000  0.5804430000000 1.0
C      1  0.4956880000000  0.4385400000000  0.5923080000000 1.0
C      1  0.4376050000000  0.4905950000000  0.5844020000000 1.0
C      1  0.4657340000000  0.5660910000000  0.5794530000000 1.0
C      1  0.5494810000000  0.5590950000000  0.5781340000000 1.0
C      1  0.4150310000000  0.4180800000000  0.4859040000000 1.0
C      1  0.5475060000000  0.3909940000000  0.4851890000000 1.0
C      1  0.6143330000000  0.5126990000000  0.4961690000000 1.0
C      1  0.5217270000000  0.6133840000000  0.4942840000000 1.0
C      1  0.3987050000000  0.5556960000000  0.4951930000000 1.0
C      1  0.4141720000000  0.5797790000000  0.4937080000000 1.0
C      1  0.5494920000000  0.6059480000000  0.4935670000000 1.0
C      1  0.6137940000000  0.4840130000000  0.4959980000000 1.0
C      1  0.5203810000000  0.3829160000000  0.4846860000000 1.0
C      1  0.3973540000000  0.4407230000000  0.4860490000000 1.0
C      1  0.4600350000000  0.5131210000000  0.3923320000000 1.0
C      1  0.4784560000000  0.4669300000000  0.3910290000000 1.0
C      1  0.5286510000000  0.4702110000000  0.3923110000000 1.0
C      1  0.5408510000000  0.5181790000000  0.3951260000000 1.0
C      1  0.4983670000000  0.5447720000000  0.3955710000000 1.0
C      1  0.4630090000000  0.4875410000000  0.4013650000000 1.0
C      1  0.4751940000000  0.5329810000000  0.4040210000000 1.0
C      1  0.5224600000000  0.5355560000000  0.4052490000000 1.0
C      1  0.5407910000000  0.4918940000000  0.4036420000000 1.0
C      1  0.5035590000000  0.4626100000000  0.4009820000000 1.0
C      1  0.5310410000000  0.5456020000000  0.5961750000000 1.0
C      1  0.4754870000000  0.5455150000000  0.5973960000000 1.0
C      1  0.4606710000000  0.4940200000000  0.6018970000000 1.0
C      1  0.5043120000000  0.4633700000000  0.6060670000000 1.0
C      1  0.5483920000000  0.4944070000000  0.5988760000000 1.0
C      1  0.5301750000000  0.4717700000000  0.6031040000000 1.0
C      1  0.4764150000000  0.4722990000000  0.6064760000000 1.0
C      1  0.4593250000000  0.5228170000000  0.5977920000000 1.0
C      1  0.5038400000000  0.5532530000000  0.5945510000000 1.0
C      1  0.5483310000000  0.5217380000000  0.5964020000000 1.0
C      1  0.5273460000000  0.4606840000000  0.4745320000000 1.0
C      1  0.5450230000000  0.5130770000000  0.4782100000000 1.0
C      1  0.4990590000000  0.5455160000000  0.4782280000000 1.0
C      1  0.4541470000000  0.5131490000000  0.4765930000000 1.0
C      1  0.4708230000000  0.4604510000000  0.4724000000000 1.0
C      1  0.5259560000000  0.5358740000000  0.4893870000000 1.0
C      1  0.5437110000000  0.4839820000000  0.4893870000000 1.0
C      1  0.4992800000000  0.4524180000000  0.4846830000000 1.0
C      1  0.4551290000000  0.4825560000000  0.4866430000000 1.0
C      1  0.4709160000000  0.5352670000000  0.4903350000000 1.0
C      1  0.4193170000000  0.5747520000000  0.4642540000000 1.0
C      1  0.4043800000000  0.4465840000000  0.4574580000000 1.0
C      1  0.5196320000000  0.3914300000000  0.4557070000000 1.0
C      1  0.6082570000000  0.4849610000000  0.4663950000000 1.0
C      1  0.5466490000000  0.5993460000000  0.4644010000000 1.0
C      1  0.4203270000000  0.4226340000000  0.4564200000000 1.0
C      1  0.4017210000000  0.5521100000000  0.4652410000000 1.0
C      1  0.5194720000000  0.6085810000000  0.4647120000000 1.0
C      1  0.6099240000000  0.5136770000000  0.4663490000000 1.0
C      1  0.5473640000000  0.3990530000000  0.4563230000000 1.0
C      1  0.5087830000000  0.4080720000000  0.5264130000000 1.0
C      1  0.5851200000000  0.4710310000000  0.5363430000000 1.0
C      1  0.5540330000000  0.5746060000000  0.5332160000000 1.0
C      1  0.4444040000000  0.5751890000000  0.5328280000000 1.0
C      1  0.4020400000000  0.4661850000000  0.5277180000000 1.0
C      1  0.5030110000000  0.5874130000000  0.5330930000000 1.0
C      1  0.5853040000000  0.5252360000000  0.5350430000000 1.0
C      1  0.5358040000000  0.4176350000000  0.5241590000000 1.0
C      1  0.4473120000000  0.4203930000000  0.5253830000000 1.0
C      1  0.4161560000000  0.5272490000000  0.5351110000000 1.0
C      1  0.4210350000000  0.5144020000000  0.4846980000000 1.0
C      1  0.4609050000000  0.4286310000000  0.4785270000000 1.0
C      1  0.5530590000000  0.4389000000000  0.4811870000000 1.0
C      1  0.5721470000000  0.5327040000000  0.4863550000000 1.0
C      1  0.4901160000000  0.5779450000000  0.4853860000000 1.0
C      1  0.4205400000000  0.4825200000000  0.4833200000000 1.0
C      1  0.4599730000000  0.5685100000000  0.4863240000000 1.0
C      1  0.5543840000000  0.5589010000000  0.4864350000000 1.0
C      1  0.5717260000000  0.4646380000000  0.4863590000000 1.0
C      1  0.4908550000000  0.4196440000000  0.4800400000000 1.0
C      1  0.4258310000000  0.5155560000000  0.4390890000000 1.0
C      1  0.4637270000000  0.4350300000000  0.4331970000000 1.0
C      1  0.5516930000000  0.4455980000000  0.4360270000000 1.0
C      1  0.5687980000000  0.5313170000000  0.4407320000000 1.0
C      1  0.4910720000000  0.5741980000000  0.4398540000000 1.0
C      1  0.4261200000000  0.4872060000000  0.4353920000000 1.0
C      1  0.4636830000000  0.5655020000000  0.4386500000000 1.0
C      1  0.5517110000000  0.5544040000000  0.4393550000000 1.0
C      1  0.5686420000000  0.4686970000000  0.4379610000000 1.0
C      1  0.4911400000000  0.4269780000000  0.4325080000000 1.0
C      1  0.4392800000000  0.5793420000000  0.5065260000000 1.0
C      1  0.4027700000000  0.4642950000000  0.5009770000000 1.0
C      1  0.5019860000000  0.3992730000000  0.4994920000000 1.0
C      1  0.5927960000000  0.4696970000000  0.5086410000000 1.0
C      1  0.5566120000000  0.5816790000000  0.5065730000000 1.0
C      1  0.4408730000000  0.4190630000000  0.4993980000000 1.0
C      1  0.4095710000000  0.5322080000000  0.5076190000000 1.0
C      1  0.5029240000000  0.5952580000000  0.5064550000000 1.0
C      1  0.5922970000000  0.5263370000000  0.5080930000000 1.0
C      1  0.5495970000000  0.4156040000000  0.4994870000000 1.0
C      1  0.4989040000000  0.5315850000000  0.5349300000000 1.0
C      1  0.4572420000000  0.5038710000000  0.5302660000000 1.0
C      1  0.4730090000000  0.4576090000000  0.5268690000000 1.0
C      1  0.5181300000000  0.4632420000000  0.5298230000000 1.0
C      1  0.5338760000000  0.5066640000000  0.5366940000000 1.0
C      1  0.4967830000000  0.4595050000000  0.5129460000000 1.0
C      1  0.4633260000000  0.4808800000000  0.5152010000000 1.0
C      1  0.4711150000000  0.5290560000000  0.5212010000000 1.0
C      1  0.5243360000000  0.5323410000000  0.5185910000000 1.0
C      1  0.5392240000000  0.4818000000000  0.5205040000000 1.0
C      1  0.5852700000000  0.4699050000000  0.4607230000000 1.0
C      1  0.5544820000000  0.5723080000000  0.4606050000000 1.0
C      1  0.4474050000000  0.5729970000000  0.4602350000000 1.0
C      1  0.4136300000000  0.4732910000000  0.4561060000000 1.0
C      1  0.4987190000000  0.4098630000000  0.4531740000000 1.0
C      1  0.5879550000000  0.5301050000000  0.4612000000000 1.0
C      1  0.5564050000000  0.4255260000000  0.4546960000000 1.0
C      1  0.4477460000000  0.4226470000000  0.4525040000000 1.0
C      1  0.4101980000000  0.5262000000000  0.4599040000000 1.0
C      1  0.4975570000000  0.5920690000000  0.4602150000000 1.0
C      1  0.4650520000000  0.4334270000000  0.5444010000000 1.0
C      1  0.5405640000000  0.4406440000000  0.5403650000000 1.0
C      1  0.5567150000000  0.5262450000000  0.5452110000000 1.0
C      1  0.4912260000000  0.5618900000000  0.5432570000000 1.0
C      1  0.4290100000000  0.5018310000000  0.5360010000000 1.0
C      1  0.4643710000000  0.5555360000000  0.5355960000000 1.0
C      1  0.5440890000000  0.5483570000000  0.5332650000000 1.0
C      1  0.5597480000000  0.4614230000000  0.5317700000000 1.0
C      1  0.4933560000000  0.4183040000000  0.5485010000000 1.0
C      1  0.4179730000000  0.4774070000000  0.5463450000000 1.0
C      1  0.5427680000000  0.5795410000000  0.5593630000000 1.0
C      1  0.4439210000000  0.5614710000000  0.5596870000000 1.0
C      1  0.4337040000000  0.4679270000000  0.5681870000000 1.0
C      1  0.5085410000000  0.4265750000000  0.5710850000000 1.0
C      1  0.5844080000000  0.4869190000000  0.5614710000000 1.0
C      1  0.5355530000000  0.4360520000000  0.5680570000000 1.0
C      1  0.4521400000000  0.4460580000000  0.5698610000000 1.0
C      1  0.4264050000000  0.5380630000000  0.5608150000000 1.0
C      1  0.5158780000000  0.5897720000000  0.5588610000000 1.0
C      1  0.5894250000000  0.5156730000000  0.5617800000000 1.0
C      1  0.5078200000000  0.5087110000000  0.5525430000000 1.0
END
