TITL C-148581-6855-1 -0.00313244177953343 125000 -612.197677191173 0 0 90 (C1) n - 1
REM
REM in /rds/project/t2_vol4/rds-t2-cs072/BORA/CARBON/from-Arr/AIRSS/Generating-Clusters/GAP-ML-2020/Higher-Symm/SD-CG/HFTN-CG
REM
REM
REM
REM
REM
REM ./C.cell (b20cbc046b6831c77cfcea5457e17084)
REM AIRSS Version 0.9.1 bugfix July 2018 build 013d7b7c2542+ Fri, 06 Jul 2018 19:26:36 +0100
REM compiler GCC version 9.3.0
REM options -cpp -mtune=generic -march=x86-64 -g -O0
REM seed 1099812014 1062838028 118033911 -2033054105 2115880280 266931355 1676180239 -1573756611 -901186764 653313843 1108907794 -1942903335 1097392324 -530248858 -1691815279 1656914380 131711779 466888144 -1983322982 -1685814988 -58454042 -2132930982 1272155507 165694716 453877084 1467504524 -1659283236 -1286142276 -1212052741 580814977 1444639935 919295653 -1853182984
REM
CELL 1.54180   50.00000   50.00000   50.00000   90.00000   90.00000   90.00000
LATT -1
SFAC C  
C      1  0.4802820000000  0.5269120000000  0.5774010000000 1.0
C      1  0.5506360000000  0.5278150000000  0.5639740000000 1.0
C      1  0.5798240000000  0.5323420000000  0.4983820000000 1.0
C      1  0.5465470000000  0.5376870000000  0.4294000000000 1.0
C      1  0.4818710000000  0.5275820000000  0.4128850000000 1.0
C      1  0.4363430000000  0.5383970000000  0.4687950000000 1.0
C      1  0.4205070000000  0.5307590000000  0.5358450000000 1.0
C      1  0.4294490000000  0.5486630000000  0.5134340000000 1.0
C      1  0.4785100000000  0.5468950000000  0.5541840000000 1.0
C      1  0.5332860000000  0.5441250000000  0.5466890000000 1.0
C      1  0.5534100000000  0.5436010000000  0.4892120000000 1.0
C      1  0.5276740000000  0.5503700000000  0.4468470000000 1.0
C      1  0.4767180000000  0.5443070000000  0.4349900000000 1.0
C      1  0.4471720000000  0.5677010000000  0.4710960000000 1.0
C      1  0.5782210000000  0.4407930000000  0.5042250000000 1.0
C      1  0.5242280000000  0.4361600000000  0.4536420000000 1.0
C      1  0.4975300000000  0.4405120000000  0.4419690000000 1.0
C      1  0.4400960000000  0.4460190000000  0.4803690000000 1.0
C      1  0.4397780000000  0.4463100000000  0.5101920000000 1.0
C      1  0.4986240000000  0.4466650000000  0.5531090000000 1.0
C      1  0.5276400000000  0.4445200000000  0.5502780000000 1.0
C      1  0.5446710000000  0.4657630000000  0.5614500000000 1.0
C      1  0.5748430000000  0.4670020000000  0.4938140000000 1.0
C      1  0.5405160000000  0.4582360000000  0.4523400000000 1.0
C      1  0.4889890000000  0.4632370000000  0.4267340000000 1.0
C      1  0.4365310000000  0.4704720000000  0.4667770000000 1.0
C      1  0.4366140000000  0.4710710000000  0.5234820000000 1.0
C      1  0.4870270000000  0.4652370000000  0.5734420000000 1.0
C      1  0.4554750000000  0.5303910000000  0.4241610000000 1.0
C      1  0.4167630000000  0.5365610000000  0.4913700000000 1.0
C      1  0.4407800000000  0.5227460000000  0.5527370000000 1.0
C      1  0.5046070000000  0.5107900000000  0.5790150000000 1.0
C      1  0.5677090000000  0.5121570000000  0.5471380000000 1.0
C      1  0.5748790000000  0.5344620000000  0.4711010000000 1.0
C      1  0.5298970000000  0.5258420000000  0.4106060000000 1.0
C      1  0.5558090000000  0.4846830000000  0.5407890000000 1.0
C      1  0.5558150000000  0.4758750000000  0.4714150000000 1.0
C      1  0.5316640000000  0.4822410000000  0.4370520000000 1.0
C      1  0.4686030000000  0.4775500000000  0.4423250000000 1.0
C      1  0.4436260000000  0.4877770000000  0.4875200000000 1.0
C      1  0.4571170000000  0.4807190000000  0.5412610000000 1.0
C      1  0.5056660000000  0.4813270000000  0.5869430000000 1.0
C      1  0.5795480000000  0.5133090000000  0.5205190000000 1.0
C      1  0.5661930000000  0.5216220000000  0.4462230000000 1.0
C      1  0.5061900000000  0.5111430000000  0.4099810000000 1.0
C      1  0.4386050000000  0.5179430000000  0.4436780000000 1.0
C      1  0.4123120000000  0.5151620000000  0.5123380000000 1.0
C      1  0.4576260000000  0.5096950000000  0.5743210000000 1.0
C      1  0.5346900000000  0.5110330000000  0.5801140000000 1.0
C      1  0.4849030000000  0.4898010000000  0.4619870000000 1.0
C      1  0.4703480000000  0.5021720000000  0.4842030000000 1.0
C      1  0.4788300000000  0.5023030000000  0.5328020000000 1.0
C      1  0.5045420000000  0.5040050000000  0.5482170000000 1.0
C      1  0.5270810000000  0.4929220000000  0.5323960000000 1.0
C      1  0.5308520000000  0.4921090000000  0.4832160000000 1.0
C      1  0.5130920000000  0.4965800000000  0.4585650000000 1.0
C      1  0.5584740000000  0.4952020000000  0.4472280000000 1.0
C      1  0.5096740000000  0.4820270000000  0.4173790000000 1.0
C      1  0.4417880000000  0.4880480000000  0.4448150000000 1.0
C      1  0.4243310000000  0.4905270000000  0.5075130000000 1.0
C      1  0.4625690000000  0.4811950000000  0.5689460000000 1.0
C      1  0.5344800000000  0.4817970000000  0.5822200000000 1.0
C      1  0.5740960000000  0.4849390000000  0.5167860000000 1.0
C      1  0.5209030000000  0.5232460000000  0.5318440000000 1.0
C      1  0.5288940000000  0.5241240000000  0.4861440000000 1.0
C      1  0.5129410000000  0.5284330000000  0.4608320000000 1.0
C      1  0.4863050000000  0.5422450000000  0.4632500000000 1.0
C      1  0.4638860000000  0.5313420000000  0.4820650000000 1.0
C      1  0.4587860000000  0.5445880000000  0.5105310000000 1.0
C      1  0.4643250000000  0.5292110000000  0.5356880000000 1.0
C      1  0.5373210000000  0.4293840000000  0.5268570000000 1.0
C      1  0.5650150000000  0.4259310000000  0.5202110000000 1.0
C      1  0.5130000000000  0.4226860000000  0.4774730000000 1.0
C      1  0.4861750000000  0.4257340000000  0.4653440000000 1.0
C      1  0.4640230000000  0.4284950000000  0.4819930000000 1.0
C      1  0.4641030000000  0.4310800000000  0.5118530000000 1.0
C      1  0.4866720000000  0.4414630000000  0.5264580000000 1.0
C      1  0.5212880000000  0.5692110000000  0.5378510000000 1.0
C      1  0.5390760000000  0.5699220000000  0.4906980000000 1.0
C      1  0.5214440000000  0.5710280000000  0.4671540000000 1.0
C      1  0.4934590000000  0.5697080000000  0.4706520000000 1.0
C      1  0.4703350000000  0.5784500000000  0.4851230000000 1.0
C      1  0.4734270000000  0.5691610000000  0.5133890000000 1.0
C      1  0.4908980000000  0.5671450000000  0.5375990000000 1.0
C      1  0.5037620000000  0.4544830000000  0.5073880000000 1.0
C      1  0.5084610000000  0.5267480000000  0.5064020000000 1.0
C      1  0.5191940000000  0.4311690000000  0.5040910000000 1.0
C      1  0.5142280000000  0.4821890000000  0.5070830000000 1.0
C      1  0.4905810000000  0.5021080000000  0.5060410000000 1.0
C      1  0.5325970000000  0.5795050000000  0.5154500000000 1.0
END
