TITL C-149066-603-4 0.239084799978126 125000 -714.535765292227 0 0 104 (C1) n - 1
REM
REM in /rds/project/t2_vol4/rds-t2-cs072/BORA/CARBON/from-Arr/AIRSS/Generating-Clusters/GAP-ML-2020/Higher-Symm/SD-CG/HFTN-CG
REM
REM
REM
REM
REM
REM ./C.cell (b20cbc046b6831c77cfcea5457e17084)
REM AIRSS Version 0.9.1 bugfix July 2018 build 013d7b7c2542+ Fri, 06 Jul 2018 19:26:36 +0100
REM compiler GCC version 9.3.0
REM options -cpp -mtune=generic -march=x86-64 -g -O0
REM seed -865381456 -1141287437 1370411878 384536175 1355038138 -1574469012 -526737441 -1321640892 -35613635 792630688 -220407425 -219892903 -1402200192 1333146837 880847785 1397899708 -665785651 800933709 -767154376 1875581921 243577656 -107508052 -1097046513 1706368881 1849131808 718578059 1115178728 1722267230 -1076830989 1039737319 -1085356102 1132628590 993583947
REM
CELL 1.54180   50.00000   50.00000   50.00000   90.00000   90.00000   90.00000
LATT -1
SFAC C  
C      1  0.5150870000000  0.5230270000000  0.4157170000000 1.0
C      1  0.5131400000000  0.4758930000000  0.4122050000000 1.0
C      1  0.4694730000000  0.4998860000000  0.4147590000000 1.0
C      1  0.5141200000000  0.4737540000000  0.5876860000000 1.0
C      1  0.5133160000000  0.5242430000000  0.5908760000000 1.0
C      1  0.4709620000000  0.4980550000000  0.5922550000000 1.0
C      1  0.4849420000000  0.4726120000000  0.5871130000000 1.0
C      1  0.4849640000000  0.5228420000000  0.5895100000000 1.0
C      1  0.5284860000000  0.4995580000000  0.5925150000000 1.0
C      1  0.4860740000000  0.5237580000000  0.4119060000000 1.0
C      1  0.4837850000000  0.4758150000000  0.4118450000000 1.0
C      1  0.5289520000000  0.4985610000000  0.4167760000000 1.0
C      1  0.4838500000000  0.4239640000000  0.4651620000000 1.0
C      1  0.4379300000000  0.5481090000000  0.4747370000000 1.0
C      1  0.5774520000000  0.5285860000000  0.4698330000000 1.0
C      1  0.4811390000000  0.5762000000000  0.5333600000000 1.0
C      1  0.4474020000000  0.4419280000000  0.5271690000000 1.0
C      1  0.5800090000000  0.4530830000000  0.5221790000000 1.0
C      1  0.5101410000000  0.5752110000000  0.5310820000000 1.0
C      1  0.5575980000000  0.4383050000000  0.5282530000000 1.0
C      1  0.4348930000000  0.4676690000000  0.5235110000000 1.0
C      1  0.5125690000000  0.4247980000000  0.4669250000000 1.0
C      1  0.5576660000000  0.5515710000000  0.4714680000000 1.0
C      1  0.4187040000000  0.5231480000000  0.4706880000000 1.0
C      1  0.4462700000000  0.4926270000000  0.5355980000000 1.0
C      1  0.5235850000000  0.5320420000000  0.5351980000000 1.0
C      1  0.5218410000000  0.4850010000000  0.5441500000000 1.0
C      1  0.4643060000000  0.5112140000000  0.4621110000000 1.0
C      1  0.5212430000000  0.4691180000000  0.4703320000000 1.0
C      1  0.5164610000000  0.5172520000000  0.4626610000000 1.0
C      1  0.5368100000000  0.4949470000000  0.4649660000000 1.0
C      1  0.4934750000000  0.4765920000000  0.4697620000000 1.0
C      1  0.4644740000000  0.5401400000000  0.4678900000000 1.0
C      1  0.5417400000000  0.5072250000000  0.5409250000000 1.0
C      1  0.4941200000000  0.5266060000000  0.5399980000000 1.0
C      1  0.4736580000000  0.4814700000000  0.5425700000000 1.0
C      1  0.5141860000000  0.5488040000000  0.5746070000000 1.0
C      1  0.5249960000000  0.4605270000000  0.5634200000000 1.0
C      1  0.4472620000000  0.5059470000000  0.5817760000000 1.0
C      1  0.5132590000000  0.4504780000000  0.4263970000000 1.0
C      1  0.5240000000000  0.5385660000000  0.4391360000000 1.0
C      1  0.4497200000000  0.5010990000000  0.4379660000000 1.0
C      1  0.4842320000000  0.4498140000000  0.4256610000000 1.0
C      1  0.4765950000000  0.5475900000000  0.4208950000000 1.0
C      1  0.5508920000000  0.4958330000000  0.4377400000000 1.0
C      1  0.4859340000000  0.5435360000000  0.5666130000000 1.0
C      1  0.4727950000000  0.4604020000000  0.5634230000000 1.0
C      1  0.5541150000000  0.5074560000000  0.5848670000000 1.0
C      1  0.5098700000000  0.5270310000000  0.4884760000000 1.0
C      1  0.5325250000000  0.4662330000000  0.4979600000000 1.0
C      1  0.4539200000000  0.4955500000000  0.4886800000000 1.0
C      1  0.5145640000000  0.4745630000000  0.5181920000000 1.0
C      1  0.5321950000000  0.5318470000000  0.5067180000000 1.0
C      1  0.4519260000000  0.5128080000000  0.5131830000000 1.0
C      1  0.4872200000000  0.4718460000000  0.5166500000000 1.0
C      1  0.4765330000000  0.5289630000000  0.5165810000000 1.0
C      1  0.5537830000000  0.5100630000000  0.5126130000000 1.0
C      1  0.4853930000000  0.5420010000000  0.4914540000000 1.0
C      1  0.4771000000000  0.4772070000000  0.4920840000000 1.0
C      1  0.5545840000000  0.4869190000000  0.4935650000000 1.0
C      1  0.5153050000000  0.4329920000000  0.5528620000000 1.0
C      1  0.4285880000000  0.5372100000000  0.5458060000000 1.0
C      1  0.5578210000000  0.5595350000000  0.5482360000000 1.0
C      1  0.5177170000000  0.5675480000000  0.4466550000000 1.0
C      1  0.4340950000000  0.4775130000000  0.4450850000000 1.0
C      1  0.5593230000000  0.4513910000000  0.4557410000000 1.0
C      1  0.4940520000000  0.5747850000000  0.4591320000000 1.0
C      1  0.5717220000000  0.4764750000000  0.4447120000000 1.0
C      1  0.4430830000000  0.4516650000000  0.4548220000000 1.0
C      1  0.4927990000000  0.4244910000000  0.5374440000000 1.0
C      1  0.5731440000000  0.5374110000000  0.5440030000000 1.0
C      1  0.4410560000000  0.5592780000000  0.5555980000000 1.0
C      1  0.5282620000000  0.4453640000000  0.4511820000000 1.0
C      1  0.4214680000000  0.5019730000000  0.4499160000000 1.0
C      1  0.5435520000000  0.5586100000000  0.4484840000000 1.0
C      1  0.5290080000000  0.5588920000000  0.5503900000000 1.0
C      1  0.4362610000000  0.5109830000000  0.5578170000000 1.0
C      1  0.5421450000000  0.4382290000000  0.5520510000000 1.0
C      1  0.4676990000000  0.5650180000000  0.5567550000000 1.0
C      1  0.5622590000000  0.5150600000000  0.5607960000000 1.0
C      1  0.4682460000000  0.4372650000000  0.5467190000000 1.0
C      1  0.4678570000000  0.4384200000000  0.4457430000000 1.0
C      1  0.5768310000000  0.5050400000000  0.4480140000000 1.0
C      1  0.4747780000000  0.5575880000000  0.4459880000000 1.0
C      1  0.4739480000000  0.4189080000000  0.4916720000000 1.0
C      1  0.4419840000000  0.5596990000000  0.5007280000000 1.0
C      1  0.5913460000000  0.5281730000000  0.4943840000000 1.0
C      1  0.4679910000000  0.5751630000000  0.5070740000000 1.0
C      1  0.4493610000000  0.4300140000000  0.5006120000000 1.0
C      1  0.5777820000000  0.4656430000000  0.4982360000000 1.0
C      1  0.5176610000000  0.5753770000000  0.5039050000000 1.0
C      1  0.5435330000000  0.4363350000000  0.5007540000000 1.0
C      1  0.4320280000000  0.4722620000000  0.4958850000000 1.0
C      1  0.5197730000000  0.4202420000000  0.4937590000000 1.0
C      1  0.5407680000000  0.5576050000000  0.4959500000000 1.0
C      1  0.4132020000000  0.5213230000000  0.4967420000000 1.0
C      1  0.4960640000000  0.4164010000000  0.5097400000000 1.0
C      1  0.4302890000000  0.5355940000000  0.5158280000000 1.0
C      1  0.4918470000000  0.5733640000000  0.4889590000000 1.0
C      1  0.5656720000000  0.4433060000000  0.4811240000000 1.0
C      1  0.4364810000000  0.4475900000000  0.4819040000000 1.0
C      1  0.5788860000000  0.5260280000000  0.5179560000000 1.0
C      1  0.4956220000000  0.4992970000000  0.5499330000000 1.0
C      1  0.4916650000000  0.5018670000000  0.4570420000000 1.0
END
