TITL C-140563-1607-7 0.0332329376487308 125000 -443.836112581248 0 0 65 (C1) n - 1
REM
REM in /rds/project/t2_vol4/rds-t2-cs072/BORA/CARBON/from-Arr/AIRSS/Generating-Clusters/GAP-ML-2020/Higher-Symm/SD-CG/HFTN-CG
REM
REM
REM
REM
REM
REM ./C.cell (b20cbc046b6831c77cfcea5457e17084)
REM AIRSS Version 0.9.1 bugfix July 2018 build 013d7b7c2542+ Fri, 06 Jul 2018 19:26:36 +0100
REM compiler GCC version 9.3.0
REM options -cpp -mtune=generic -march=x86-64 -g -O0
REM seed 1803624548 671469358 -397401958 707192804 -1042308408 -665388809 -1989283550 2020596674 1815751305 -75640435 -369360541 2019039383 -1209799644 -1737970797 816611954 -2117418814 -590292730 -1698318681 -1586042442 -1495172019 1487301068 673218530 -199642424 -1663061978 -2118937162 -493259150 460171499 779870047 718094563 -1058188676 -757277598 -449892245 1995863001
REM
CELL 1.54180   50.00000   50.00000   50.00000   90.00000   90.00000   90.00000
LATT -1
SFAC C  
C      1  0.5225470000000  0.4753460000000  0.5261130000000 1.0
C      1  0.5334820000000  0.4737470000000  0.4973180000000 1.0
C      1  0.5148950000000  0.4886870000000  0.4797790000000 1.0
C      1  0.4911590000000  0.4753690000000  0.4700170000000 1.0
C      1  0.4678230000000  0.4752830000000  0.4889420000000 1.0
C      1  0.4716210000000  0.4772300000000  0.5181190000000 1.0
C      1  0.4966750000000  0.4913990000000  0.5261190000000 1.0
C      1  0.4978330000000  0.5572300000000  0.4490410000000 1.0
C      1  0.4694050000000  0.5566260000000  0.4574460000000 1.0
C      1  0.4411530000000  0.5575220000000  0.5040050000000 1.0
C      1  0.4773950000000  0.5517020000000  0.5458090000000 1.0
C      1  0.5071150000000  0.5517930000000  0.5498320000000 1.0
C      1  0.5493310000000  0.5547690000000  0.5110700000000 1.0
C      1  0.5465600000000  0.5559140000000  0.4811630000000 1.0
C      1  0.4477830000000  0.5166710000000  0.5281760000000 1.0
C      1  0.4919040000000  0.5068110000000  0.5533150000000 1.0
C      1  0.5418860000000  0.5156440000000  0.5425790000000 1.0
C      1  0.5593540000000  0.5134420000000  0.4942480000000 1.0
C      1  0.5328550000000  0.5199790000000  0.4496640000000 1.0
C      1  0.4818950000000  0.5147990000000  0.4445670000000 1.0
C      1  0.4444900000000  0.5168540000000  0.4774200000000 1.0
C      1  0.5457700000000  0.4430650000000  0.5438330000000 1.0
C      1  0.5624770000000  0.4407220000000  0.4969980000000 1.0
C      1  0.5348420000000  0.4425270000000  0.4491150000000 1.0
C      1  0.4694750000000  0.4411400000000  0.4482350000000 1.0
C      1  0.4483880000000  0.4403870000000  0.4679660000000 1.0
C      1  0.4419490000000  0.4441700000000  0.5304410000000 1.0
C      1  0.4912780000000  0.4456970000000  0.5636090000000 1.0
C      1  0.4415090000000  0.5305610000000  0.5030650000000 1.0
C      1  0.4683610000000  0.5259220000000  0.5454410000000 1.0
C      1  0.5169970000000  0.5262610000000  0.5526310000000 1.0
C      1  0.5540340000000  0.5282840000000  0.5192340000000 1.0
C      1  0.5494140000000  0.5299040000000  0.4716920000000 1.0
C      1  0.5063110000000  0.5311480000000  0.4440070000000 1.0
C      1  0.4609070000000  0.5298980000000  0.4576300000000 1.0
C      1  0.5288180000000  0.5752120000000  0.5127130000000 1.0
C      1  0.5261550000000  0.5763340000000  0.4834830000000 1.0
C      1  0.5027580000000  0.5775100000000  0.4692380000000 1.0
C      1  0.4746900000000  0.5766490000000  0.4773940000000 1.0
C      1  0.4633530000000  0.5740890000000  0.5031370000000 1.0
C      1  0.4793650000000  0.5731460000000  0.5264700000000 1.0
C      1  0.5080670000000  0.5737020000000  0.5303290000000 1.0
C      1  0.4935930000000  0.4365160000000  0.5375680000000 1.0
C      1  0.5213940000000  0.4438500000000  0.5262890000000 1.0
C      1  0.5323150000000  0.4425930000000  0.4967290000000 1.0
C      1  0.5187010000000  0.4336410000000  0.4714930000000 1.0
C      1  0.4913690000000  0.4440820000000  0.4689750000000 1.0
C      1  0.4685990000000  0.4443680000000  0.4896950000000 1.0
C      1  0.4695360000000  0.4445200000000  0.5201570000000 1.0
C      1  0.4604660000000  0.4673240000000  0.4380860000000 1.0
C      1  0.4384330000000  0.4684960000000  0.4570830000000 1.0
C      1  0.4299940000000  0.4667350000000  0.5350170000000 1.0
C      1  0.4876320000000  0.4635820000000  0.5829060000000 1.0
C      1  0.5561000000000  0.4644370000000  0.5553150000000 1.0
C      1  0.5775050000000  0.4618070000000  0.4922120000000 1.0
C      1  0.5380330000000  0.4673880000000  0.4441880000000 1.0
C      1  0.4879550000000  0.4890860000000  0.5776250000000 1.0
C      1  0.5430050000000  0.4870910000000  0.5443430000000 1.0
C      1  0.5608810000000  0.4848660000000  0.4935890000000 1.0
C      1  0.5315010000000  0.4923720000000  0.4526520000000 1.0
C      1  0.4810530000000  0.4865080000000  0.4445540000000 1.0
C      1  0.4442850000000  0.4883470000000  0.4764980000000 1.0
C      1  0.4463690000000  0.4886360000000  0.5293430000000 1.0
C      1  0.4945480000000  0.5335880000000  0.4955300000000 1.0
C      1  0.5036690000000  0.5097940000000  0.5008090000000 1.0
END
