TITL C-140568-2874-8 4.26396189313839 125000 -537.376503857028 0 0 79 (C1) n - 1
REM
REM in /rds/project/t2_vol4/rds-t2-cs072/BORA/CARBON/from-Arr/AIRSS/Generating-Clusters/GAP-ML-2020/Higher-Symm/SD-CG/HFTN-CG
REM
REM
REM
REM
REM
REM ./C.cell (b20cbc046b6831c77cfcea5457e17084)
REM AIRSS Version 0.9.1 bugfix July 2018 build 013d7b7c2542+ Fri, 06 Jul 2018 19:26:36 +0100
REM compiler GCC version 9.3.0
REM options -cpp -mtune=generic -march=x86-64 -g -O0
REM seed 396202978 1092989987 562624145 -1684844727 -636874114 -446616348 476809109 345184101 -682196075 1072579891 1023638591 -1118362805 378853650 1301211519 -438378559 1787929258 1031765305 -1378335538 -1815114200 -1760793462 -1956330480 1820535201 -1015162360 476426439 -1062716016 -1898327043 -1867854550 28383885 1595663543 -1658026437 -1460760389 -1574401755 205600279
REM
CELL 1.54180   50.00000   50.00000   50.00000   90.00000   90.00000   90.00000
LATT -1
SFAC C  
C      1  0.5267960000000  0.4322760000000  0.5154490000000 1.0
C      1  0.5446320000000  0.5578540000000  0.5167780000000 1.0
C      1  0.4278470000000  0.5108320000000  0.5163100000000 1.0
C      1  0.5056800000000  0.4247170000000  0.4707130000000 1.0
C      1  0.5624460000000  0.5431210000000  0.4715010000000 1.0
C      1  0.4315070000000  0.5326400000000  0.4710500000000 1.0
C      1  0.4915060000000  0.4413740000000  0.5532290000000 1.0
C      1  0.5516520000000  0.5209070000000  0.5552940000000 1.0
C      1  0.4540710000000  0.5376330000000  0.5534980000000 1.0
C      1  0.4993440000000  0.4826200000000  0.4332120000000 1.0
C      1  0.5153490000000  0.5090390000000  0.4336250000000 1.0
C      1  0.4846690000000  0.5094450000000  0.4333610000000 1.0
C      1  0.5006070000000  0.5591160000000  0.5470670000000 1.0
C      1  0.4515110000000  0.4734610000000  0.5482110000000 1.0
C      1  0.5498430000000  0.4695340000000  0.5469580000000 1.0
C      1  0.5436850000000  0.5004740000000  0.4985850000000 1.0
C      1  0.4787050000000  0.5377980000000  0.4980810000000 1.0
C      1  0.4786470000000  0.4638900000000  0.4978620000000 1.0
C      1  0.5115330000000  0.4892570000000  0.5288390000000 1.0
C      1  0.5039040000000  0.5159950000000  0.5295370000000 1.0
C      1  0.4848780000000  0.4962050000000  0.5289520000000 1.0
C      1  0.5078930000000  0.5422880000000  0.5709230000000 1.0
C      1  0.4651850000000  0.4895460000000  0.5707850000000 1.0
C      1  0.5309570000000  0.4703020000000  0.5691670000000 1.0
C      1  0.5012740000000  0.4316670000000  0.5275740000000 1.0
C      1  0.5560270000000  0.5361270000000  0.5306100000000 1.0
C      1  0.4400120000000  0.5332190000000  0.5283650000000 1.0
C      1  0.4679530000000  0.5631570000000  0.4614810000000 1.0
C      1  0.4614080000000  0.4413340000000  0.4619700000000 1.0
C      1  0.5698410000000  0.4964430000000  0.4616050000000 1.0
C      1  0.5450120000000  0.4560360000000  0.5198840000000 1.0
C      1  0.5150740000000  0.5619480000000  0.5204670000000 1.0
C      1  0.4400160000000  0.4836130000000  0.5210350000000 1.0
C      1  0.5258750000000  0.4779240000000  0.5072210000000 1.0
C      1  0.5064920000000  0.5341430000000  0.5077020000000 1.0
C      1  0.4677650000000  0.4897280000000  0.5069940000000 1.0
C      1  0.5572190000000  0.5230070000000  0.4530160000000 1.0
C      1  0.4515030000000  0.5388140000000  0.4527690000000 1.0
C      1  0.4905810000000  0.4393560000000  0.4526760000000 1.0
C      1  0.4774080000000  0.5655790000000  0.4876260000000 1.0
C      1  0.4550780000000  0.4479560000000  0.4885210000000 1.0
C      1  0.5672090000000  0.4867970000000  0.4874240000000 1.0
C      1  0.4602220000000  0.5510950000000  0.5158860000000 1.0
C      1  0.4756610000000  0.4413650000000  0.5159020000000 1.0
C      1  0.5621890000000  0.5102280000000  0.5182610000000 1.0
C      1  0.4660060000000  0.4502570000000  0.5420980000000 1.0
C      1  0.5598900000000  0.4957160000000  0.5430390000000 1.0
C      1  0.4729680000000  0.5564230000000  0.5415960000000 1.0
C      1  0.4336470000000  0.4663650000000  0.4969580000000 1.0
C      1  0.5624730000000  0.4591630000000  0.4955080000000 1.0
C      1  0.5038070000000  0.5753650000000  0.4959040000000 1.0
C      1  0.5155420000000  0.5550140000000  0.4533120000000 1.0
C      1  0.4446580000000  0.4863960000000  0.4536190000000 1.0
C      1  0.5393660000000  0.4593260000000  0.4525450000000 1.0
C      1  0.4643980000000  0.5189800000000  0.5731140000000 1.0
C      1  0.5048640000000  0.4572770000000  0.5717330000000 1.0
C      1  0.5290980000000  0.5214740000000  0.5730770000000 1.0
C      1  0.4247000000000  0.5117930000000  0.4876270000000 1.0
C      1  0.5274120000000  0.4291110000000  0.4867400000000 1.0
C      1  0.5476380000000  0.5594350000000  0.4878910000000 1.0
C      1  0.5256140000000  0.5278960000000  0.4569370000000 1.0
C      1  0.4630020000000  0.5089130000000  0.4566730000000 1.0
C      1  0.5109000000000  0.4642290000000  0.4562190000000 1.0
C      1  0.5190620000000  0.4955030000000  0.5803410000000 1.0
C      1  0.4862720000000  0.5314980000000  0.5836830000000 1.0
C      1  0.4918010000000  0.4818250000000  0.5808600000000 1.0
C      1  0.5051460000000  0.4722550000000  0.4855970000000 1.0
C      1  0.5223000000000  0.5190410000000  0.4863890000000 1.0
C      1  0.4732300000000  0.5106020000000  0.4857560000000 1.0
C      1  0.4819850000000  0.4601560000000  0.4309620000000 1.0
C      1  0.5433470000000  0.5052870000000  0.4307380000000 1.0
C      1  0.4738980000000  0.5356230000000  0.4309600000000 1.0
C      1  0.4889610000000  0.5574010000000  0.4431860000000 1.0
C      1  0.4557690000000  0.4622590000000  0.4435410000000 1.0
C      1  0.5546530000000  0.4813610000000  0.4428860000000 1.0
C      1  0.4282540000000  0.4853550000000  0.4768340000000 1.0
C      1  0.5484860000000  0.4452680000000  0.4755670000000 1.0
C      1  0.5231960000000  0.5698350000000  0.4763350000000 1.0
C      1  0.5002730000000  0.5006740000000  0.4820490000000 1.0
END
