TITL C-146854-6733-1 -56.5171722001741 125000 -1142.52988087822 0 0 164 (C1) n - 1
REM
REM in /rds/project/t2_vol4/rds-t2-cs072/BORA/CARBON/from-Arr/AIRSS/Generating-Clusters/GAP-ML-2020/Higher-Symm/SD-CG/HFTN-CG
REM
REM
REM
REM
REM
REM ./C.cell (b20cbc046b6831c77cfcea5457e17084)
REM AIRSS Version 0.9.1 bugfix July 2018 build 013d7b7c2542+ Fri, 06 Jul 2018 19:26:36 +0100
REM compiler GCC version 9.3.0
REM options -cpp -mtune=generic -march=x86-64 -g -O0
REM seed 1203900432 1040932072 -1790944784 221511866 1804344447 -1785006449 -1520104596 76380202 407635302 1684813762 1139140667 -2018397236 1607373612 2055024428 552930056 -677077835 -1476257184 -186401648 838946096 -360558961 1846198622 1230661899 -2089072721 -754089149 185624704 -914759240 2065997972 -256160712 906457986 -295163972 390842092 1760447572 -1078953076
REM
CELL 1.54180   50.00000   50.00000   50.00000   90.00000   90.00000   90.00000
LATT -1
SFAC C  
C      1  0.5950710000000  0.5376730000000  0.5778860000000 1.0
C      1  0.5952100000000  0.5780190000000  0.4622710000000 1.0
C      1  0.5943330000000  0.4616970000000  0.4222040000000 1.0
C      1  0.5964140000000  0.4227770000000  0.5385630000000 1.0
C      1  0.4064310000000  0.5380290000000  0.4221170000000 1.0
C      1  0.4047570000000  0.5772600000000  0.5389610000000 1.0
C      1  0.4050520000000  0.4607980000000  0.5770870000000 1.0
C      1  0.4043620000000  0.4227920000000  0.4614320000000 1.0
C      1  0.5562490000000  0.5482760000000  0.4199370000000 1.0
C      1  0.5526760000000  0.4230970000000  0.4527370000000 1.0
C      1  0.5561350000000  0.4517120000000  0.5791480000000 1.0
C      1  0.5561920000000  0.5796940000000  0.5483330000000 1.0
C      1  0.4481160000000  0.5469720000000  0.5770290000000 1.0
C      1  0.4481180000000  0.4233790000000  0.5472430000000 1.0
C      1  0.4447480000000  0.4516010000000  0.4203770000000 1.0
C      1  0.4482370000000  0.5772660000000  0.4528620000000 1.0
C      1  0.5386770000000  0.5203460000000  0.5082520000000 1.0
C      1  0.5387950000000  0.5085810000000  0.4799180000000 1.0
C      1  0.5382590000000  0.4808670000000  0.4921450000000 1.0
C      1  0.5384050000000  0.4921580000000  0.5202970000000 1.0
C      1  0.4632230000000  0.5194640000000  0.4917690000000 1.0
C      1  0.4634790000000  0.5080060000000  0.5196540000000 1.0
C      1  0.4635120000000  0.4803010000000  0.5077270000000 1.0
C      1  0.4630050000000  0.4916580000000  0.4795300000000 1.0
C      1  0.3982400000000  0.4913480000000  0.4816380000000 1.0
C      1  0.3985330000000  0.4813630000000  0.5090550000000 1.0
C      1  0.3985360000000  0.5088330000000  0.5190090000000 1.0
C      1  0.3985720000000  0.5188490000000  0.4914500000000 1.0
C      1  0.6031670000000  0.4905930000000  0.5184120000000 1.0
C      1  0.6028560000000  0.4811120000000  0.4907430000000 1.0
C      1  0.6031890000000  0.5088700000000  0.4814540000000 1.0
C      1  0.6031650000000  0.5182100000000  0.5091600000000 1.0
C      1  0.5391080000000  0.6009000000000  0.5512140000000 1.0
C      1  0.5389640000000  0.5503470000000  0.3988170000000 1.0
C      1  0.5300700000000  0.4108970000000  0.4430940000000 1.0
C      1  0.5392210000000  0.4483990000000  0.6004220000000 1.0
C      1  0.4707050000000  0.5896500000000  0.4433860000000 1.0
C      1  0.4704750000000  0.5564230000000  0.5894380000000 1.0
C      1  0.4706180000000  0.4111500000000  0.5568580000000 1.0
C      1  0.4619230000000  0.4493190000000  0.3991650000000 1.0
C      1  0.5446430000000  0.4571310000000  0.5516220000000 1.0
C      1  0.5446370000000  0.5521480000000  0.5429080000000 1.0
C      1  0.5450310000000  0.5431400000000  0.4478590000000 1.0
C      1  0.5439090000000  0.4504920000000  0.4589200000000 1.0
C      1  0.4560540000000  0.4567290000000  0.4481940000000 1.0
C      1  0.4566990000000  0.5495280000000  0.4581530000000 1.0
C      1  0.4564680000000  0.5423030000000  0.5490920000000 1.0
C      1  0.4569670000000  0.4509100000000  0.5416200000000 1.0
C      1  0.4808280000000  0.4678400000000  0.4027300000000 1.0
C      1  0.4780420000000  0.4058820000000  0.5295730000000 1.0
C      1  0.4781990000000  0.5290580000000  0.5940320000000 1.0
C      1  0.4782470000000  0.5942630000000  0.4708430000000 1.0
C      1  0.5207060000000  0.4673150000000  0.5970730000000 1.0
C      1  0.5228190000000  0.4056420000000  0.4704250000000 1.0
C      1  0.5201030000000  0.5317980000000  0.4024780000000 1.0
C      1  0.5205360000000  0.5975100000000  0.5323160000000 1.0
C      1  0.5959880000000  0.4646330000000  0.5618640000000 1.0
C      1  0.5959730000000  0.5617030000000  0.5356940000000 1.0
C      1  0.5959780000000  0.5355470000000  0.4380070000000 1.0
C      1  0.5944000000000  0.4376530000000  0.4645320000000 1.0
C      1  0.4049820000000  0.4648180000000  0.4381170000000 1.0
C      1  0.4065400000000  0.5623570000000  0.4647290000000 1.0
C      1  0.4064080000000  0.5348410000000  0.5626090000000 1.0
C      1  0.4064220000000  0.4376980000000  0.5349280000000 1.0
C      1  0.5320640000000  0.5061600000000  0.4181290000000 1.0
C      1  0.5364180000000  0.4074670000000  0.4965190000000 1.0
C      1  0.5327080000000  0.4934190000000  0.5823190000000 1.0
C      1  0.5328410000000  0.5825230000000  0.5064780000000 1.0
C      1  0.4650210000000  0.5026370000000  0.5921750000000 1.0
C      1  0.4644980000000  0.4073140000000  0.5033980000000 1.0
C      1  0.4690040000000  0.4935920000000  0.4181600000000 1.0
C      1  0.4648430000000  0.5923000000000  0.4971080000000 1.0
C      1  0.5713990000000  0.5224020000000  0.5779870000000 1.0
C      1  0.5716150000000  0.5781360000000  0.4776680000000 1.0
C      1  0.5714070000000  0.4778190000000  0.4223820000000 1.0
C      1  0.5729420000000  0.4216050000000  0.5232950000000 1.0
C      1  0.4294800000000  0.5220130000000  0.4219260000000 1.0
C      1  0.4277270000000  0.5787330000000  0.5230560000000 1.0
C      1  0.4280180000000  0.4766650000000  0.5783800000000 1.0
C      1  0.4279010000000  0.4213570000000  0.4766010000000 1.0
C      1  0.5872090000000  0.5384860000000  0.5198650000000 1.0
C      1  0.5873810000000  0.5198580000000  0.4613400000000 1.0
C      1  0.5864340000000  0.4608160000000  0.4809300000000 1.0
C      1  0.5870430000000  0.4802430000000  0.5387110000000 1.0
C      1  0.4146700000000  0.5391610000000  0.4811840000000 1.0
C      1  0.4147300000000  0.5187350000000  0.5393730000000 1.0
C      1  0.4148540000000  0.4608910000000  0.5187240000000 1.0
C      1  0.4139910000000  0.4804550000000  0.4613620000000 1.0
C      1  0.4359700000000  0.4114540000000  0.5037010000000 1.0
C      1  0.4361930000000  0.5033470000000  0.5887570000000 1.0
C      1  0.4360340000000  0.5887830000000  0.4963030000000 1.0
C      1  0.4384040000000  0.4952220000000  0.4155640000000 1.0
C      1  0.5648780000000  0.4117230000000  0.4961710000000 1.0
C      1  0.5625900000000  0.5045940000000  0.4156940000000 1.0
C      1  0.5630620000000  0.5844110000000  0.5047470000000 1.0
C      1  0.5628740000000  0.4953150000000  0.5843300000000 1.0
C      1  0.5008350000000  0.5342390000000  0.5761170000000 1.0
C      1  0.5010880000000  0.5763300000000  0.4655380000000 1.0
C      1  0.5022600000000  0.4601300000000  0.4234500000000 1.0
C      1  0.5014080000000  0.4236430000000  0.5336920000000 1.0
C      1  0.4987290000000  0.5394710000000  0.4231510000000 1.0
C      1  0.4981120000000  0.5773780000000  0.5389180000000 1.0
C      1  0.4983020000000  0.4608110000000  0.5768170000000 1.0
C      1  0.4994550000000  0.4236400000000  0.4661660000000 1.0
C      1  0.5476140000000  0.5357850000000  0.5684520000000 1.0
C      1  0.5478890000000  0.5686330000000  0.4641810000000 1.0
C      1  0.5478970000000  0.4653260000000  0.4329710000000 1.0
C      1  0.5483840000000  0.4313710000000  0.5354050000000 1.0
C      1  0.4529720000000  0.5346810000000  0.4322220000000 1.0
C      1  0.4519890000000  0.5684610000000  0.5344980000000 1.0
C      1  0.4523100000000  0.4654560000000  0.5678510000000 1.0
C      1  0.4524500000000  0.4310170000000  0.4643970000000 1.0
C      1  0.4242780000000  0.4704650000000  0.4173270000000 1.0
C      1  0.4261800000000  0.4169540000000  0.5297570000000 1.0
C      1  0.4263600000000  0.5294120000000  0.5833160000000 1.0
C      1  0.4262230000000  0.5833980000000  0.4702420000000 1.0
C      1  0.5767520000000  0.4704160000000  0.5825360000000 1.0
C      1  0.5748030000000  0.4167700000000  0.4700370000000 1.0
C      1  0.5767760000000  0.5294350000000  0.4171870000000 1.0
C      1  0.5769510000000  0.5826050000000  0.5296820000000 1.0
C      1  0.4431520000000  0.5373980000000  0.4809810000000 1.0
C      1  0.4424240000000  0.4794320000000  0.4626260000000 1.0
C      1  0.4433580000000  0.4625170000000  0.5185980000000 1.0
C      1  0.4432310000000  0.5190980000000  0.5373300000000 1.0
C      1  0.5587430000000  0.5376410000000  0.5203170000000 1.0
C      1  0.5585890000000  0.4798240000000  0.5374980000000 1.0
C      1  0.5579080000000  0.4624210000000  0.4815430000000 1.0
C      1  0.5589170000000  0.5206020000000  0.4625700000000 1.0
C      1  0.4844780000000  0.5523760000000  0.4690880000000 1.0
C      1  0.4816580000000  0.4734380000000  0.4419590000000 1.0
C      1  0.4849440000000  0.4480020000000  0.5306380000000 1.0
C      1  0.4844200000000  0.5318220000000  0.5518230000000 1.0
C      1  0.5190710000000  0.5583550000000  0.5260990000000 1.0
C      1  0.5189770000000  0.4738750000000  0.5578770000000 1.0
C      1  0.5161660000000  0.4475740000000  0.4703400000000 1.0
C      1  0.5195950000000  0.5263550000000  0.4417010000000 1.0
C      1  0.3960380000000  0.4392250000000  0.4428980000000 1.0
C      1  0.3968420000000  0.4426970000000  0.5602010000000 1.0
C      1  0.3972300000000  0.5601660000000  0.5572400000000 1.0
C      1  0.3987970000000  0.5563260000000  0.4390250000000 1.0
C      1  0.6050780000000  0.4390600000000  0.5570430000000 1.0
C      1  0.6024450000000  0.4434070000000  0.4388530000000 1.0
C      1  0.6030340000000  0.5616260000000  0.4435890000000 1.0
C      1  0.6035000000000  0.5562660000000  0.5617160000000 1.0
C      1  0.4928860000000  0.5142800000000  0.5303220000000 1.0
C      1  0.4928860000000  0.5305820000000  0.4859690000000 1.0
C      1  0.4915420000000  0.4873940000000  0.4671950000000 1.0
C      1  0.4926770000000  0.4699970000000  0.5134710000000 1.0
C      1  0.5101010000000  0.5125000000000  0.4670640000000 1.0
C      1  0.5102680000000  0.5327590000000  0.5117770000000 1.0
C      1  0.5100830000000  0.4883630000000  0.5324670000000 1.0
C      1  0.5087910000000  0.4698180000000  0.4869400000000 1.0
C      1  0.4735460000000  0.4181160000000  0.4778810000000 1.0
C      1  0.4737850000000  0.4769270000000  0.5812840000000 1.0
C      1  0.4735320000000  0.5816740000000  0.5229510000000 1.0
C      1  0.4749100000000  0.5228390000000  0.4205480000000 1.0
C      1  0.5273020000000  0.4183680000000  0.5220560000000 1.0
C      1  0.5260750000000  0.4769100000000  0.4208770000000 1.0
C      1  0.5265150000000  0.5803000000000  0.4777190000000 1.0
C      1  0.5262150000000  0.5221550000000  0.5799960000000 1.0
C      1  0.4931140000000  0.5689990000000  0.4366360000000 1.0
C      1  0.4926870000000  0.5631830000000  0.5681210000000 1.0
C      1  0.5074230000000  0.4306870000000  0.4368050000000 1.0
C      1  0.4931530000000  0.4315640000000  0.5630070000000 1.0
END
