TITL C-149052-9415-5 0.189062215201892 125000 -880.561435150266 0 0 127 (C1) n - 1
REM
REM in /rds/project/t2_vol4/rds-t2-cs072/BORA/CARBON/from-Arr/AIRSS/Generating-Clusters/GAP-ML-2020/Higher-Symm/SD-CG/HFTN-CG
REM
REM
REM
REM
REM
REM ./C.cell (b20cbc046b6831c77cfcea5457e17084)
REM AIRSS Version 0.9.1 bugfix July 2018 build 013d7b7c2542+ Fri, 06 Jul 2018 19:26:36 +0100
REM compiler GCC version 9.3.0
REM options -cpp -mtune=generic -march=x86-64 -g -O0
REM seed -1347165361 -647156150 -128255119 -1177753886 -216885720 752161372 -14923900 1304234358 1623025930 48516209 800809980 -206567634 732968418 -798732994 222152297 -201820817 -1703933718 -194547583 -659282696 -235854267 1045288348 2013220766 36883628 1704384587 247958859 1931742151 1528246991 -1187310476 -1732723287 1833186571 1263873133 -957669623 -400490932
REM
CELL 1.54180   50.00000   50.00000   50.00000   90.00000   90.00000   90.00000
LATT -1
SFAC C  
C      1  0.4740770000000  0.5127970000000  0.4656240000000 1.0
C      1  0.5478250000000  0.5140310000000  0.4917250000000 1.0
C      1  0.4835060000000  0.5140450000000  0.5409210000000 1.0
C      1  0.5117240000000  0.5212230000000  0.5834180000000 1.0
C      1  0.4225830000000  0.5202030000000  0.4686920000000 1.0
C      1  0.5672190000000  0.5217580000000  0.4491000000000 1.0
C      1  0.4134490000000  0.4680150000000  0.4859540000000 1.0
C      1  0.5562580000000  0.4639150000000  0.4283740000000 1.0
C      1  0.5312040000000  0.4685650000000  0.5822050000000 1.0
C      1  0.5425790000000  0.5404880000000  0.4193600000000 1.0
C      1  0.5488390000000  0.5427300000000  0.5766560000000 1.0
C      1  0.4100140000000  0.5415500000000  0.5041990000000 1.0
C      1  0.4835180000000  0.5238610000000  0.5909100000000 1.0
C      1  0.4299240000000  0.5235110000000  0.4406470000000 1.0
C      1  0.5900350000000  0.5242500000000  0.4686660000000 1.0
C      1  0.4343900000000  0.4918920000000  0.4738540000000 1.0
C      1  0.5574390000000  0.4998440000000  0.4660440000000 1.0
C      1  0.5110950000000  0.4934070000000  0.5696900000000 1.0
C      1  0.4610330000000  0.5612930000000  0.4544720000000 1.0
C      1  0.5487250000000  0.5438370000000  0.4929230000000 1.0
C      1  0.4781610000000  0.5608420000000  0.5566020000000 1.0
C      1  0.5120870000000  0.4126220000000  0.5107130000000 1.0
C      1  0.4845390000000  0.4120920000000  0.5050250000000 1.0
C      1  0.5032550000000  0.4120270000000  0.4841120000000 1.0
C      1  0.4694930000000  0.5769050000000  0.5059940000000 1.0
C      1  0.5101090000000  0.5759020000000  0.4728490000000 1.0
C      1  0.5178520000000  0.5724840000000  0.5253700000000 1.0
C      1  0.5459080000000  0.4493990000000  0.5655540000000 1.0
C      1  0.4205020000000  0.4488200000000  0.5072040000000 1.0
C      1  0.5336790000000  0.4461640000000  0.4257410000000 1.0
C      1  0.4960200000000  0.5312730000000  0.4715950000000 1.0
C      1  0.5010110000000  0.5328720000000  0.5011400000000 1.0
C      1  0.4773530000000  0.5315560000000  0.5186160000000 1.0
C      1  0.5687680000000  0.5535150000000  0.5582360000000 1.0
C      1  0.4150250000000  0.5533880000000  0.5300480000000 1.0
C      1  0.5175410000000  0.5530240000000  0.4121110000000 1.0
C      1  0.5062750000000  0.4188240000000  0.4560070000000 1.0
C      1  0.5344800000000  0.4204490000000  0.5274320000000 1.0
C      1  0.4589630000000  0.4196120000000  0.5163920000000 1.0
C      1  0.5113950000000  0.4769380000000  0.5243390000000 1.0
C      1  0.4739050000000  0.4744530000000  0.4969080000000 1.0
C      1  0.5167900000000  0.4749120000000  0.4778130000000 1.0
C      1  0.4022560000000  0.4913440000000  0.5009410000000 1.0
C      1  0.5491660000000  0.4894300000000  0.4162180000000 1.0
C      1  0.5492420000000  0.4920530000000  0.5842870000000 1.0
C      1  0.5321300000000  0.4264400000000  0.4464980000000 1.0
C      1  0.5298170000000  0.4285280000000  0.5543760000000 1.0
C      1  0.4379160000000  0.4277890000000  0.4988850000000 1.0
C      1  0.4846670000000  0.4678470000000  0.5228800000000 1.0
C      1  0.4888860000000  0.4666630000000  0.4742520000000 1.0
C      1  0.5284440000000  0.4686190000000  0.5027690000000 1.0
C      1  0.5048470000000  0.4549970000000  0.5845230000000 1.0
C      1  0.4246490000000  0.4543470000000  0.4617690000000 1.0
C      1  0.5687210000000  0.4561120000000  0.4533260000000 1.0
C      1  0.4413740000000  0.4755530000000  0.4486190000000 1.0
C      1  0.5734470000000  0.4765970000000  0.4747530000000 1.0
C      1  0.4858320000000  0.4765080000000  0.5763150000000 1.0
C      1  0.5308210000000  0.5239890000000  0.5383500000000 1.0
C      1  0.4522480000000  0.5203360000000  0.5067650000000 1.0
C      1  0.5184390000000  0.5206600000000  0.4545130000000 1.0
C      1  0.5421740000000  0.5408660000000  0.4498700000000 1.0
C      1  0.5222830000000  0.5415590000000  0.5623530000000 1.0
C      1  0.4365720000000  0.5404260000000  0.4894210000000 1.0
C      1  0.4701270000000  0.4754100000000  0.4053620000000 1.0
C      1  0.5974910000000  0.4736900000000  0.5213590000000 1.0
C      1  0.4334650000000  0.4752210000000  0.5735280000000 1.0
C      1  0.5592240000000  0.5109440000000  0.5394950000000 1.0
C      1  0.4366640000000  0.5098650000000  0.5315090000000 1.0
C      1  0.5052220000000  0.5092910000000  0.4290640000000 1.0
C      1  0.4162530000000  0.4890380000000  0.5260830000000 1.0
C      1  0.5206330000000  0.4877780000000  0.4152590000000 1.0
C      1  0.5639540000000  0.4897680000000  0.5595130000000 1.0
C      1  0.5040250000000  0.4310030000000  0.5680690000000 1.0
C      1  0.4390720000000  0.4304050000000  0.4696280000000 1.0
C      1  0.5562440000000  0.4310740000000  0.4628340000000 1.0
C      1  0.4605930000000  0.5005990000000  0.4144390000000 1.0
C      1  0.5948750000000  0.4994620000000  0.5088680000000 1.0
C      1  0.4457490000000  0.5004240000000  0.5774120000000 1.0
C      1  0.5112290000000  0.4612190000000  0.4172410000000 1.0
C      1  0.5655350000000  0.4630170000000  0.5508930000000 1.0
C      1  0.4236040000000  0.4624460000000  0.5316510000000 1.0
C      1  0.5624930000000  0.4997970000000  0.5123650000000 1.0
C      1  0.4593830000000  0.4994700000000  0.5480540000000 1.0
C      1  0.4795780000000  0.4988720000000  0.4406560000000 1.0
C      1  0.4270140000000  0.5336980000000  0.5475280000000 1.0
C      1  0.4960760000000  0.5335500000000  0.4131490000000 1.0
C      1  0.5788920000000  0.5337990000000  0.5403800000000 1.0
C      1  0.4818080000000  0.4265610000000  0.4409820000000 1.0
C      1  0.5599430000000  0.4279340000000  0.5143650000000 1.0
C      1  0.4580380000000  0.4272910000000  0.5450760000000 1.0
C      1  0.4460370000000  0.5932400000000  0.5194720000000 1.0
C      1  0.5129350000000  0.5915460000000  0.4461820000000 1.0
C      1  0.5415400000000  0.5860590000000  0.5374650000000 1.0
C      1  0.4668560000000  0.5437110000000  0.5774030000000 1.0
C      1  0.4499590000000  0.5438970000000  0.4337740000000 1.0
C      1  0.5830500000000  0.5411510000000  0.4911400000000 1.0
C      1  0.5410580000000  0.5195640000000  0.5912470000000 1.0
C      1  0.4009930000000  0.5187800000000  0.4901890000000 1.0
C      1  0.5590150000000  0.5169540000000  0.4200810000000 1.0
C      1  0.5581850000000  0.4722030000000  0.5032310000000 1.0
C      1  0.4693330000000  0.4720050000000  0.5485280000000 1.0
C      1  0.4738540000000  0.4711350000000  0.4483360000000 1.0
C      1  0.4586540000000  0.4210480000000  0.4535350000000 1.0
C      1  0.5605860000000  0.4224200000000  0.4879070000000 1.0
C      1  0.4802940000000  0.4214080000000  0.5592690000000 1.0
C      1  0.5105520000000  0.5010940000000  0.5406050000000 1.0
C      1  0.4598520000000  0.4986620000000  0.4880180000000 1.0
C      1  0.5293860000000  0.4995620000000  0.4709290000000 1.0
C      1  0.4540170000000  0.5630230000000  0.4815940000000 1.0
C      1  0.5378650000000  0.5595540000000  0.4713600000000 1.0
C      1  0.5053620000000  0.5630470000000  0.5514560000000 1.0
C      1  0.5960880000000  0.4970540000000  0.4800690000000 1.0
C      1  0.4706520000000  0.4977950000000  0.5915160000000 1.0
C      1  0.4358910000000  0.4976550000000  0.4286630000000 1.0
C      1  0.4836240000000  0.4559770000000  0.4235390000000 1.0
C      1  0.5740450000000  0.4560780000000  0.5241990000000 1.0
C      1  0.4430410000000  0.4565100000000  0.5522260000000 1.0
C      1  0.4883940000000  0.5582370000000  0.4619920000000 1.0
C      1  0.5268200000000  0.5423350000000  0.5145260000000 1.0
C      1  0.4694730000000  0.5580900000000  0.5293640000000 1.0
C      1  0.5619800000000  0.5816530000000  0.5518910000000 1.0
C      1  0.4249610000000  0.5806450000000  0.5266670000000 1.0
C      1  0.5164650000000  0.5799720000000  0.4236900000000 1.0
C      1  0.5934050000000  0.5306740000000  0.5160790000000 1.0
C      1  0.4408470000000  0.5314590000000  0.5719990000000 1.0
C      1  0.4678920000000  0.5318140000000  0.4137600000000 1.0
C      1  0.4998960000000  0.5821130000000  0.5015100000000 1.0
END
