TITL C-148560-4722-3 866.878428290999 125000 -955.480840048522 0 0 138 (C1) n - 1
REM
REM in /rds/project/t2_vol4/rds-t2-cs072/BORA/CARBON/from-Arr/AIRSS/Generating-Clusters/GAP-ML-2020/Higher-Symm/SD-CG/HFTN-CG
REM
REM
REM
REM
REM
REM ./C.cell (b20cbc046b6831c77cfcea5457e17084)
REM AIRSS Version 0.9.1 bugfix July 2018 build 013d7b7c2542+ Fri, 06 Jul 2018 19:26:36 +0100
REM compiler GCC version 9.3.0
REM options -cpp -mtune=generic -march=x86-64 -g -O0
REM seed -146542222 1793027391 2004958661 1846898606 1923755568 2045370397 -351371481 348627234 1291236667 -1421374808 -235841629 798666021 -1615083789 -76399880 -1123794608 1143895445 607158428 -852577775 13823999 -977260697 1851982237 365899871 -1304461529 -104217426 1743278993 -834968307 -1035623010 -1919459231 -1901004146 -1314186111 288719820 487561760 2135305482
REM
CELL 1.54180   50.00000   50.00000   50.00000   90.00000   90.00000   90.00000
LATT -1
SFAC C  
C      1  0.4851820000000  0.5182040000000  0.4208880000000 1.0
C      1  0.4771690000000  0.4908250000000  0.4209070000000 1.0
C      1  0.5007530000000  0.4743680000000  0.4206420000000 1.0
C      1  0.5234390000000  0.4918540000000  0.4208650000000 1.0
C      1  0.5137460000000  0.5187790000000  0.4209760000000 1.0
C      1  0.5048910000000  0.4712730000000  0.5494770000000 1.0
C      1  0.5291530000000  0.4947200000000  0.5492360000000 1.0
C      1  0.5146500000000  0.5256390000000  0.5494280000000 1.0
C      1  0.4791710000000  0.5207220000000  0.5499610000000 1.0
C      1  0.4741970000000  0.4871670000000  0.5491980000000 1.0
C      1  0.5800250000000  0.4359870000000  0.5056900000000 1.0
C      1  0.5855790000000  0.5558970000000  0.5048210000000 1.0
C      1  0.4731720000000  0.5979770000000  0.5048730000000 1.0
C      1  0.3985120000000  0.5042770000000  0.5051080000000 1.0
C      1  0.4643200000000  0.4042390000000  0.5057360000000 1.0
C      1  0.4583410000000  0.4789650000000  0.4680820000000 1.0
C      1  0.5083760000000  0.4518820000000  0.4667490000000 1.0
C      1  0.5464050000000  0.4932770000000  0.4680930000000 1.0
C      1  0.5208330000000  0.5397060000000  0.4682250000000 1.0
C      1  0.4664470000000  0.5320860000000  0.4668260000000 1.0
C      1  0.4347040000000  0.4606920000000  0.4760770000000 1.0
C      1  0.5174630000000  0.4247260000000  0.4761860000000 1.0
C      1  0.5765510000000  0.4922260000000  0.4759840000000 1.0
C      1  0.5298730000000  0.5688070000000  0.4756840000000 1.0
C      1  0.4428560000000  0.5500900000000  0.4755830000000 1.0
C      1  0.4050600000000  0.5305740000000  0.4953410000000 1.0
C      1  0.4412030000000  0.4187810000000  0.4959480000000 1.0
C      1  0.5591890000000  0.4182940000000  0.4960640000000 1.0
C      1  0.5960330000000  0.5305350000000  0.4951650000000 1.0
C      1  0.5003290000000  0.5994830000000  0.4949670000000 1.0
C      1  0.5283120000000  0.4176450000000  0.5416740000000 1.0
C      1  0.5875440000000  0.5010300000000  0.5412420000000 1.0
C      1  0.5258250000000  0.5828940000000  0.5407750000000 1.0
C      1  0.4289390000000  0.5501340000000  0.5413260000000 1.0
C      1  0.4312140000000  0.4483320000000  0.5412700000000 1.0
C      1  0.4651040000000  0.5290730000000  0.5745510000000 1.0
C      1  0.4619260000000  0.4758660000000  0.5741720000000 1.0
C      1  0.5115220000000  0.4559420000000  0.5744240000000 1.0
C      1  0.5458550000000  0.4969830000000  0.5741590000000 1.0
C      1  0.5171440000000  0.5424030000000  0.5741100000000 1.0
C      1  0.5233500000000  0.5686700000000  0.4301950000000 1.0
C      1  0.4398490000000  0.5438140000000  0.4298510000000 1.0
C      1  0.4402770000000  0.4564080000000  0.4307710000000 1.0
C      1  0.5228450000000  0.4276500000000  0.4305200000000 1.0
C      1  0.5744430000000  0.4982780000000  0.4302870000000 1.0
C      1  0.4390210000000  0.5646390000000  0.5015690000000 1.0
C      1  0.4194240000000  0.4616790000000  0.5018960000000 1.0
C      1  0.5116720000000  0.4109210000000  0.5021560000000 1.0
C      1  0.5886320000000  0.4829210000000  0.5018960000000 1.0
C      1  0.5430580000000  0.5778590000000  0.5013520000000 1.0
C      1  0.5727280000000  0.4784910000000  0.5277660000000 1.0
C      1  0.5428440000000  0.5619270000000  0.5274890000000 1.0
C      1  0.4539420000000  0.5600170000000  0.5279900000000 1.0
C      1  0.4301230000000  0.4751250000000  0.5273550000000 1.0
C      1  0.5024470000000  0.4246320000000  0.5280150000000 1.0
C      1  0.5785400000000  0.4485930000000  0.5327710000000 1.0
C      1  0.5732350000000  0.5586060000000  0.5321180000000 1.0
C      1  0.4669530000000  0.5876200000000  0.5322550000000 1.0
C      1  0.4074970000000  0.4953110000000  0.5321940000000 1.0
C      1  0.4758220000000  0.4096250000000  0.5328730000000 1.0
C      1  0.5766860000000  0.4417580000000  0.5593550000000 1.0
C      1  0.5793090000000  0.5547650000000  0.5587110000000 1.0
C      1  0.4729790000000  0.5922000000000  0.5586810000000 1.0
C      1  0.4045360000000  0.5016460000000  0.5588130000000 1.0
C      1  0.4685330000000  0.4093930000000  0.5594120000000 1.0
C      1  0.4659530000000  0.4324540000000  0.5745190000000 1.0
C      1  0.5540540000000  0.4464700000000  0.5745510000000 1.0
C      1  0.5679540000000  0.5346420000000  0.5740100000000 1.0
C      1  0.4883400000000  0.5751610000000  0.5742150000000 1.0
C      1  0.4252890000000  0.5116290000000  0.5741870000000 1.0
C      1  0.4801700000000  0.4278620000000  0.4387740000000 1.0
C      1  0.5609630000000  0.4578700000000  0.4384720000000 1.0
C      1  0.5580310000000  0.5436970000000  0.4379820000000 1.0
C      1  0.4747250000000  0.5684660000000  0.4377940000000 1.0
C      1  0.4267600000000  0.4971770000000  0.4383400000000 1.0
C      1  0.5740770000000  0.5079150000000  0.5653760000000 1.0
C      1  0.5154670000000  0.5725400000000  0.5651830000000 1.0
C      1  0.4358430000000  0.5368730000000  0.5656660000000 1.0
C      1  0.4454640000000  0.4505500000000  0.5656430000000 1.0
C      1  0.5305650000000  0.4324280000000  0.5658920000000 1.0
C      1  0.5384500000000  0.5158790000000  0.5078630000000 1.0
C      1  0.4972470000000  0.5400580000000  0.5081490000000 1.0
C      1  0.4643130000000  0.5086290000000  0.5067050000000 1.0
C      1  0.4789340000000  0.4637010000000  0.5077910000000 1.0
C      1  0.5272540000000  0.4687940000000  0.5077190000000 1.0
C      1  0.5567660000000  0.5683660000000  0.4615530000000 1.0
C      1  0.4518400000000  0.5751620000000  0.4613380000000 1.0
C      1  0.4133050000000  0.4769130000000  0.4619220000000 1.0
C      1  0.4948350000000  0.4099910000000  0.4619750000000 1.0
C      1  0.5838610000000  0.4665710000000  0.4619870000000 1.0
C      1  0.4939100000000  0.5359900000000  0.4802670000000 1.0
C      1  0.4562400000000  0.5065370000000  0.4795790000000 1.0
C      1  0.4833260000000  0.4673340000000  0.4797700000000 1.0
C      1  0.5258450000000  0.4745330000000  0.4799460000000 1.0
C      1  0.5386580000000  0.5193020000000  0.4802910000000 1.0
C      1  0.5387050000000  0.4090150000000  0.5153670000000 1.0
C      1  0.5984750000000  0.5083330000000  0.5146700000000 1.0
C      1  0.5222960000000  0.5953370000000  0.5142080000000 1.0
C      1  0.4162680000000  0.5499610000000  0.5145610000000 1.0
C      1  0.4261110000000  0.4355330000000  0.5151410000000 1.0
C      1  0.5025160000000  0.4489280000000  0.4367090000000 1.0
C      1  0.5478930000000  0.4858950000000  0.4371560000000 1.0
C      1  0.5273480000000  0.5397070000000  0.4373900000000 1.0
C      1  0.4687120000000  0.5382890000000  0.4361540000000 1.0
C      1  0.4537610000000  0.4822660000000  0.4374250000000 1.0
C      1  0.4399570000000  0.4325550000000  0.4698810000000 1.0
C      1  0.5458440000000  0.4208400000000  0.4699630000000 1.0
C      1  0.5891000000000  0.5181990000000  0.4692760000000 1.0
C      1  0.5094180000000  0.5886140000000  0.4691340000000 1.0
C      1  0.4173500000000  0.5363270000000  0.4693200000000 1.0
C      1  0.4831080000000  0.4543050000000  0.5842410000000 1.0
C      1  0.5386210000000  0.4695660000000  0.5843020000000 1.0
C      1  0.5412490000000  0.5270140000000  0.5838460000000 1.0
C      1  0.4873400000000  0.5473480000000  0.5841350000000 1.0
C      1  0.4513970000000  0.5022800000000  0.5842850000000 1.0
C      1  0.5914880000000  0.4562940000000  0.4883120000000 1.0
C      1  0.5692640000000  0.5727500000000  0.4875050000000 1.0
C      1  0.4518960000000  0.5878840000000  0.4877590000000 1.0
C      1  0.4010070000000  0.4809160000000  0.4880220000000 1.0
C      1  0.4873590000000  0.3997660000000  0.4885460000000 1.0
C      1  0.5022170000000  0.4076160000000  0.4351890000000 1.0
C      1  0.5867790000000  0.4721270000000  0.4349450000000 1.0
C      1  0.5519660000000  0.5724810000000  0.4346560000000 1.0
C      1  0.4451970000000  0.5723100000000  0.4345390000000 1.0
C      1  0.4148950000000  0.4702190000000  0.4351840000000 1.0
C      1  0.4721320000000  0.5344310000000  0.5243440000000 1.0
C      1  0.4611320000000  0.4834020000000  0.5220730000000 1.0
C      1  0.5035940000000  0.4569140000000  0.5224760000000 1.0
C      1  0.5420990000000  0.4895050000000  0.5221740000000 1.0
C      1  0.5234820000000  0.5364310000000  0.5225250000000 1.0
C      1  0.4213750000000  0.5257310000000  0.4422000000000 1.0
C      1  0.4514560000000  0.4329340000000  0.4428160000000 1.0
C      1  0.5484960000000  0.4317040000000  0.4426150000000 1.0
C      1  0.5792450000000  0.5239190000000  0.4420690000000 1.0
C      1  0.5006610000000  0.5814800000000  0.4419740000000 1.0
C      1  0.5002490000000  0.5004240000000  0.5537230000000 1.0
C      1  0.4916530000000  0.5102830000000  0.4956670000000 1.0
C      1  0.5013590000000  0.4901620000000  0.4801110000000 1.0
END
