TITL C-146855-6882-1 -5.33721630416233 125000 -774.213809332629 0 0 109 (C1) n - 1
REM
REM in /rds/project/t2_vol4/rds-t2-cs072/BORA/CARBON/from-Arr/AIRSS/Generating-Clusters/GAP-ML-2020/Higher-Symm/SD-CG/HFTN-CG
REM
REM
REM
REM
REM
REM ./C.cell (b20cbc046b6831c77cfcea5457e17084)
REM AIRSS Version 0.9.1 bugfix July 2018 build 013d7b7c2542+ Fri, 06 Jul 2018 19:26:36 +0100
REM compiler GCC version 9.3.0
REM options -cpp -mtune=generic -march=x86-64 -g -O0
REM seed -534180447 -1329740756 -501961138 -327852660 887168751 959934980 -495421431 1608614406 -590547555 -172042952 435773133 743388258 -1658719284 1470770546 639450700 782793198 -1718459354 -966849200 -1149884883 -196495677 -172694350 -1511741522 1483401676 901178665 -178045750 532856755 1307919889 -85538755 -1856148767 971852509 1229468359 -457625688 1416384295
REM
CELL 1.54180   50.00000   50.00000   50.00000   90.00000   90.00000   90.00000
LATT -1
SFAC C  
C      1  0.4110420000000  0.5329170000000  0.4724050000000 1.0
C      1  0.4106380000000  0.4781910000000  0.4676700000000 1.0
C      1  0.4159680000000  0.4613720000000  0.4899140000000 1.0
C      1  0.4224940000000  0.4711470000000  0.5160470000000 1.0
C      1  0.4182950000000  0.4946430000000  0.5329050000000 1.0
C      1  0.4201460000000  0.5226440000000  0.5241440000000 1.0
C      1  0.4142770000000  0.5411230000000  0.5004440000000 1.0
C      1  0.4874390000000  0.5641090000000  0.4397160000000 1.0
C      1  0.4877880000000  0.4923040000000  0.4194860000000 1.0
C      1  0.4888810000000  0.4262620000000  0.4572090000000 1.0
C      1  0.4905550000000  0.4186860000000  0.5306620000000 1.0
C      1  0.4890810000000  0.4714690000000  0.5820480000000 1.0
C      1  0.4896360000000  0.5444740000000  0.5722200000000 1.0
C      1  0.4891130000000  0.5863350000000  0.5109910000000 1.0
C      1  0.5031930000000  0.5208060000000  0.5163960000000 1.0
C      1  0.4858470000000  0.5310970000000  0.4946200000000 1.0
C      1  0.4886020000000  0.5170900000000  0.4704900000000 1.0
C      1  0.5054650000000  0.4947410000000  0.4744530000000 1.0
C      1  0.4922020000000  0.4725730000000  0.4896170000000 1.0
C      1  0.5030920000000  0.4741190000000  0.5160880000000 1.0
C      1  0.4910030000000  0.4968450000000  0.5288290000000 1.0
C      1  0.4613330000000  0.4953210000000  0.5301240000000 1.0
C      1  0.4508730000000  0.5211820000000  0.5225670000000 1.0
C      1  0.4556850000000  0.5312020000000  0.4970720000000 1.0
C      1  0.4618760000000  0.5098170000000  0.4575660000000 1.0
C      1  0.4531920000000  0.4842100000000  0.4656920000000 1.0
C      1  0.4635260000000  0.4684960000000  0.4879480000000 1.0
C      1  0.4529560000000  0.4732960000000  0.5140350000000 1.0
C      1  0.4442910000000  0.5662510000000  0.4689600000000 1.0
C      1  0.4478820000000  0.5254190000000  0.4380500000000 1.0
C      1  0.4432210000000  0.4441240000000  0.4534250000000 1.0
C      1  0.4466590000000  0.4296000000000  0.5090420000000 1.0
C      1  0.4466230000000  0.4608350000000  0.5563570000000 1.0
C      1  0.4456470000000  0.5189720000000  0.5658860000000 1.0
C      1  0.4461680000000  0.5641950000000  0.5286350000000 1.0
C      1  0.4892970000000  0.4149440000000  0.4843780000000 1.0
C      1  0.4901640000000  0.4335660000000  0.5556520000000 1.0
C      1  0.4887510000000  0.5002450000000  0.5862830000000 1.0
C      1  0.4904850000000  0.5664630000000  0.5528700000000 1.0
C      1  0.4881520000000  0.5865000000000  0.4815180000000 1.0
C      1  0.4890420000000  0.5394730000000  0.4227580000000 1.0
C      1  0.4870660000000  0.4635560000000  0.4284360000000 1.0
C      1  0.5491640000000  0.5391980000000  0.5094590000000 1.0
C      1  0.5498860000000  0.5127380000000  0.4622540000000 1.0
C      1  0.5310960000000  0.4883990000000  0.4613500000000 1.0
C      1  0.5429810000000  0.4714570000000  0.4840940000000 1.0
C      1  0.5313520000000  0.4819850000000  0.5114270000000 1.0
C      1  0.5418450000000  0.5002870000000  0.5337100000000 1.0
C      1  0.5296870000000  0.5281890000000  0.5300190000000 1.0
C      1  0.5325870000000  0.5483210000000  0.4366940000000 1.0
C      1  0.5327280000000  0.4784770000000  0.4316790000000 1.0
C      1  0.5334770000000  0.4273470000000  0.4724420000000 1.0
C      1  0.5357340000000  0.4302090000000  0.5407810000000 1.0
C      1  0.5337020000000  0.4870170000000  0.5779650000000 1.0
C      1  0.5339520000000  0.5472660000000  0.5551730000000 1.0
C      1  0.5333560000000  0.5799110000000  0.4946840000000 1.0
C      1  0.4702960000000  0.4432030000000  0.4429630000000 1.0
C      1  0.4722920000000  0.4173250000000  0.5082830000000 1.0
C      1  0.4717690000000  0.4530940000000  0.5675690000000 1.0
C      1  0.4712470000000  0.5223220000000  0.5781850000000 1.0
C      1  0.4717680000000  0.5762000000000  0.5326620000000 1.0
C      1  0.4699770000000  0.5760000000000  0.4611210000000 1.0
C      1  0.4704270000000  0.5173800000000  0.4213850000000 1.0
C      1  0.4320460000000  0.4702430000000  0.4510810000000 1.0
C      1  0.4380050000000  0.4422070000000  0.4836230000000 1.0
C      1  0.4398530000000  0.4506150000000  0.5293660000000 1.0
C      1  0.4403160000000  0.4912120000000  0.5533460000000 1.0
C      1  0.4379290000000  0.5379880000000  0.5428760000000 1.0
C      1  0.4381010000000  0.5581070000000  0.4996950000000 1.0
C      1  0.4313120000000  0.5459440000000  0.4539160000000 1.0
C      1  0.5899890000000  0.4650870000000  0.5039400000000 1.0
C      1  0.5899850000000  0.4793440000000  0.5289270000000 1.0
C      1  0.5909100000000  0.5081820000000  0.5327850000000 1.0
C      1  0.5919720000000  0.5299400000000  0.5134350000000 1.0
C      1  0.5901090000000  0.5300500000000  0.4837230000000 1.0
C      1  0.5915890000000  0.5044280000000  0.4684090000000 1.0
C      1  0.5907360000000  0.4766080000000  0.4770590000000 1.0
C      1  0.5157170000000  0.5297750000000  0.4217190000000 1.0
C      1  0.5142140000000  0.4555310000000  0.4321750000000 1.0
C      1  0.5167590000000  0.4152810000000  0.4926240000000 1.0
C      1  0.5173830000000  0.4400420000000  0.5616170000000 1.0
C      1  0.5159780000000  0.5087600000000  0.5843910000000 1.0
C      1  0.5173520000000  0.5700610000000  0.5443410000000 1.0
C      1  0.5149040000000  0.5826610000000  0.4725300000000 1.0
C      1  0.5165070000000  0.5819510000000  0.5182610000000 1.0
C      1  0.5144860000000  0.5690030000000  0.4469290000000 1.0
C      1  0.5150690000000  0.5005380000000  0.4191190000000 1.0
C      1  0.5154990000000  0.4337380000000  0.4506620000000 1.0
C      1  0.5176820000000  0.4170930000000  0.5217100000000 1.0
C      1  0.5166710000000  0.4638970000000  0.5779660000000 1.0
C      1  0.5164480000000  0.5358390000000  0.5759480000000 1.0
C      1  0.5727110000000  0.5145600000000  0.5540840000000 1.0
C      1  0.5728960000000  0.5474080000000  0.5248420000000 1.0
C      1  0.5722510000000  0.5504710000000  0.4725650000000 1.0
C      1  0.5732760000000  0.5031680000000  0.4471680000000 1.0
C      1  0.5727740000000  0.4614600000000  0.4604920000000 1.0
C      1  0.5714620000000  0.4436200000000  0.5059520000000 1.0
C      1  0.5712990000000  0.4668650000000  0.5464180000000 1.0
C      1  0.5564350000000  0.4440420000000  0.4797380000000 1.0
C      1  0.5607760000000  0.4428760000000  0.5333480000000 1.0
C      1  0.5561290000000  0.4896270000000  0.5592810000000 1.0
C      1  0.5636790000000  0.5415610000000  0.5515410000000 1.0
C      1  0.5563710000000  0.5628550000000  0.4938750000000 1.0
C      1  0.5554060000000  0.5393710000000  0.4513540000000 1.0
C      1  0.5633750000000  0.4775300000000  0.4382590000000 1.0
C      1  0.5481330000000  0.5159630000000  0.4915420000000 1.0
C      1  0.4418930000000  0.5097050000000  0.4793130000000 1.0
C      1  0.5216440000000  0.5055560000000  0.4972670000000 1.0
C      1  0.4132130000000  0.5059100000000  0.4711600000000 1.0
END
