TITL C-148564-4673-6 -0.303265286261532 125000 -1102.43138214887 0 0 160 (C1) n - 1
REM
REM in /rds/project/t2_vol4/rds-t2-cs072/BORA/CARBON/from-Arr/AIRSS/Generating-Clusters/GAP-ML-2020/Higher-Symm/SD-CG/HFTN-CG
REM
REM
REM
REM
REM
REM ./C.cell (b20cbc046b6831c77cfcea5457e17084)
REM AIRSS Version 0.9.1 bugfix July 2018 build 013d7b7c2542+ Fri, 06 Jul 2018 19:26:36 +0100
REM compiler GCC version 9.3.0
REM options -cpp -mtune=generic -march=x86-64 -g -O0
REM seed -1097206354 1483793242 636626067 -1487681113 -1085613451 -1722670600 -1375489067 248077781 1685070394 1088484940 -2036647661 1237838184 -1508961187 -505206008 -1189359209 916079752 -1453082648 382598045 -969186376 -1474003670 -1091690244 -807928108 -1814035161 -394072032 -1855865628 -1942010152 -685364853 1794015147 -2059301486 865309656 -1166133478 1618463358 1376896659
REM
CELL 1.54180   50.00000   50.00000   50.00000   90.00000   90.00000   90.00000
LATT -1
SFAC C  
C      1  0.4018220000000  0.5178540000000  0.4984170000000 1.0
C      1  0.4994100000000  0.4018050000000  0.5209760000000 1.0
C      1  0.5205800000000  0.4992840000000  0.4009950000000 1.0
C      1  0.5969610000000  0.4759510000000  0.4957470000000 1.0
C      1  0.6013630000000  0.5159200000000  0.4956080000000 1.0
C      1  0.4021770000000  0.4777740000000  0.4981900000000 1.0
C      1  0.5060110000000  0.5993810000000  0.5240680000000 1.0
C      1  0.4993960000000  0.3995110000000  0.4803450000000 1.0
C      1  0.5011870000000  0.5947980000000  0.4848090000000 1.0
C      1  0.4808740000000  0.4994330000000  0.4030510000000 1.0
C      1  0.4823050000000  0.5040930000000  0.6018300000000 1.0
C      1  0.5230420000000  0.5005280000000  0.5950550000000 1.0
C      1  0.5191570000000  0.3994270000000  0.5009340000000 1.0
C      1  0.4013830000000  0.4980900000000  0.5181440000000 1.0
C      1  0.5010720000000  0.5196760000000  0.4029080000000 1.0
C      1  0.4830680000000  0.5994150000000  0.5067980000000 1.0
C      1  0.5237290000000  0.5953990000000  0.5017520000000 1.0
C      1  0.4795190000000  0.4007470000000  0.5004400000000 1.0
C      1  0.5992090000000  0.4956170000000  0.5156540000000 1.0
C      1  0.4028180000000  0.4978110000000  0.4782650000000 1.0
C      1  0.5996060000000  0.4961550000000  0.4754780000000 1.0
C      1  0.5003310000000  0.4790480000000  0.4033780000000 1.0
C      1  0.5009130000000  0.4830040000000  0.5948590000000 1.0
C      1  0.5052260000000  0.5214090000000  0.6031130000000 1.0
C      1  0.5013240000000  0.4613900000000  0.4267940000000 1.0
C      1  0.4257360000000  0.4975500000000  0.4608650000000 1.0
C      1  0.4621190000000  0.4234240000000  0.4986940000000 1.0
C      1  0.5010980000000  0.5372990000000  0.4263050000000 1.0
C      1  0.5000030000000  0.4667250000000  0.5708280000000 1.0
C      1  0.5072620000000  0.5446520000000  0.5881140000000 1.0
C      1  0.5779800000000  0.4996090000000  0.4567550000000 1.0
C      1  0.5761060000000  0.4971720000000  0.5332820000000 1.0
C      1  0.4239970000000  0.4991820000000  0.5357630000000 1.0
C      1  0.5411170000000  0.5720980000000  0.5002540000000 1.0
C      1  0.5368780000000  0.4217910000000  0.5013280000000 1.0
C      1  0.4608640000000  0.5808820000000  0.5077460000000 1.0
C      1  0.4648510000000  0.4972970000000  0.4267190000000 1.0
C      1  0.4996170000000  0.4222650000000  0.4622590000000 1.0
C      1  0.4246620000000  0.4598900000000  0.4983500000000 1.0
C      1  0.5397540000000  0.5017450000000  0.4220420000000 1.0
C      1  0.4596620000000  0.5065780000000  0.5835830000000 1.0
C      1  0.5389010000000  0.5011640000000  0.5699240000000 1.0
C      1  0.5012240000000  0.5713980000000  0.4669620000000 1.0
C      1  0.5102930000000  0.5819060000000  0.5450640000000 1.0
C      1  0.4992480000000  0.4257700000000  0.5378540000000 1.0
C      1  0.5798950000000  0.5349990000000  0.4950520000000 1.0
C      1  0.4246250000000  0.5353220000000  0.4998510000000 1.0
C      1  0.5733300000000  0.4598010000000  0.4974750000000 1.0
C      1  0.4292920000000  0.4478170000000  0.4703770000000 1.0
C      1  0.4724130000000  0.4269140000000  0.4495130000000 1.0
C      1  0.4521950000000  0.4699310000000  0.4295100000000 1.0
C      1  0.5741880000000  0.5489800000000  0.4686450000000 1.0
C      1  0.5700420000000  0.4483490000000  0.5263310000000 1.0
C      1  0.4248910000000  0.5485360000000  0.5269890000000 1.0
C      1  0.5285600000000  0.5690970000000  0.4523730000000 1.0
C      1  0.5270310000000  0.4299140000000  0.5496930000000 1.0
C      1  0.4555020000000  0.5772500000000  0.5544800000000 1.0
C      1  0.5515970000000  0.5299750000000  0.4260530000000 1.0
C      1  0.5496560000000  0.4728540000000  0.5669080000000 1.0
C      1  0.4413840000000  0.5300980000000  0.5733740000000 1.0
C      1  0.4503290000000  0.4271070000000  0.4706500000000 1.0
C      1  0.4299910000000  0.4696320000000  0.4489240000000 1.0
C      1  0.4735510000000  0.4485040000000  0.4295930000000 1.0
C      1  0.5518460000000  0.5686430000000  0.4719260000000 1.0
C      1  0.4408360000000  0.5741110000000  0.5295730000000 1.0
C      1  0.5489590000000  0.4277720000000  0.5283250000000 1.0
C      1  0.5737500000000  0.5290520000000  0.4457460000000 1.0
C      1  0.4245710000000  0.5264410000000  0.5488360000000 1.0
C      1  0.5709160000000  0.4707170000000  0.5467550000000 1.0
C      1  0.5284900000000  0.5502140000000  0.4296940000000 1.0
C      1  0.4592400000000  0.5545880000000  0.5725470000000 1.0
C      1  0.5273070000000  0.4524750000000  0.5683900000000 1.0
C      1  0.4802660000000  0.4977860000000  0.4570200000000 1.0
C      1  0.4547530000000  0.4747710000000  0.4988320000000 1.0
C      1  0.4989390000000  0.4511640000000  0.4781660000000 1.0
C      1  0.5278320000000  0.5047710000000  0.4520210000000 1.0
C      1  0.5242020000000  0.5034200000000  0.5384230000000 1.0
C      1  0.4773780000000  0.5146950000000  0.5608000000000 1.0
C      1  0.5494550000000  0.5203270000000  0.4963450000000 1.0
C      1  0.5414730000000  0.4733500000000  0.4967520000000 1.0
C      1  0.4545040000000  0.5189410000000  0.4976940000000 1.0
C      1  0.5018230000000  0.5405570000000  0.4802000000000 1.0
C      1  0.4991590000000  0.4550160000000  0.5215930000000 1.0
C      1  0.4979340000000  0.5532500000000  0.5397970000000 1.0
C      1  0.5019320000000  0.4738220000000  0.4588700000000 1.0
C      1  0.4765810000000  0.4534880000000  0.4997710000000 1.0
C      1  0.4557950000000  0.4972440000000  0.4761990000000 1.0
C      1  0.5019020000000  0.5208610000000  0.4559570000000 1.0
C      1  0.4866280000000  0.5434610000000  0.5659340000000 1.0
C      1  0.5001870000000  0.4804510000000  0.5398940000000 1.0
C      1  0.5270190000000  0.5406910000000  0.5016520000000 1.0
C      1  0.4776240000000  0.5545310000000  0.5174820000000 1.0
C      1  0.5212700000000  0.4513250000000  0.5004280000000 1.0
C      1  0.5498890000000  0.5053840000000  0.4701890000000 1.0
C      1  0.4538390000000  0.4972740000000  0.5203390000000 1.0
C      1  0.5461810000000  0.4976440000000  0.5172800000000 1.0
C      1  0.5452280000000  0.5883320000000  0.4350600000000 1.0
C      1  0.4188890000000  0.5461770000000  0.5862310000000 1.0
C      1  0.5864900000000  0.4315490000000  0.5463780000000 1.0
C      1  0.4540760000000  0.4109030000000  0.4311660000000 1.0
C      1  0.4326750000000  0.5893750000000  0.5687860000000 1.0
C      1  0.5452590000000  0.4141160000000  0.5684750000000 1.0
C      1  0.5663550000000  0.4549890000000  0.5854420000000 1.0
C      1  0.5667320000000  0.5512120000000  0.4098850000000 1.0
C      1  0.4352420000000  0.4519440000000  0.4113610000000 1.0
C      1  0.4019610000000  0.5621660000000  0.5421040000000 1.0
C      1  0.4132490000000  0.4307060000000  0.4506810000000 1.0
C      1  0.5882090000000  0.5690060000000  0.4502540000000 1.0
C      1  0.5884770000000  0.5506160000000  0.4283080000000 1.0
C      1  0.5452080000000  0.4357700000000  0.5869340000000 1.0
C      1  0.4168200000000  0.5866580000000  0.5450100000000 1.0
C      1  0.4141600000000  0.4513200000000  0.4305020000000 1.0
C      1  0.5867050000000  0.4527410000000  0.5656280000000 1.0
C      1  0.4024100000000  0.5424020000000  0.5627870000000 1.0
C      1  0.4361250000000  0.5692520000000  0.5880890000000 1.0
C      1  0.5452680000000  0.5700460000000  0.4134260000000 1.0
C      1  0.4553050000000  0.4315120000000  0.4115820000000 1.0
C      1  0.5658510000000  0.4121430000000  0.5483460000000 1.0
C      1  0.4333310000000  0.4105930000000  0.4511600000000 1.0
C      1  0.5671610000000  0.5877660000000  0.4533930000000 1.0
C      1  0.4734620000000  0.5464160000000  0.4219710000000 1.0
C      1  0.4201200000000  0.4717610000000  0.5465570000000 1.0
C      1  0.5461070000000  0.4150030000000  0.4740200000000 1.0
C      1  0.5285030000000  0.4521260000000  0.4192180000000 1.0
C      1  0.5348000000000  0.5479430000000  0.5847580000000 1.0
C      1  0.4724700000000  0.4576510000000  0.5780130000000 1.0
C      1  0.5839340000000  0.5244410000000  0.5427780000000 1.0
C      1  0.5800020000000  0.4703810000000  0.4491530000000 1.0
C      1  0.4215580000000  0.5261940000000  0.4522960000000 1.0
C      1  0.4544920000000  0.5825540000000  0.4785710000000 1.0
C      1  0.4531030000000  0.4166550000000  0.5259100000000 1.0
C      1  0.5548710000000  0.5783820000000  0.5262170000000 1.0
C      1  0.5473550000000  0.4738180000000  0.4150240000000 1.0
C      1  0.4716570000000  0.4207050000000  0.5474810000000 1.0
C      1  0.4211360000000  0.5459200000000  0.4723480000000 1.0
C      1  0.4555400000000  0.5242560000000  0.4190520000000 1.0
C      1  0.5525910000000  0.5264270000000  0.5779010000000 1.0
C      1  0.4530760000000  0.4777370000000  0.5836370000000 1.0
C      1  0.5384340000000  0.5815650000000  0.5491450000000 1.0
C      1  0.4736860000000  0.5782030000000  0.4579980000000 1.0
C      1  0.5274250000000  0.4175230000000  0.4526830000000 1.0
C      1  0.5787000000000  0.4506910000000  0.4697280000000 1.0
C      1  0.4202150000000  0.4514670000000  0.5270390000000 1.0
C      1  0.5882150000000  0.5432730000000  0.5216680000000 1.0
C      1  0.5662910000000  0.4577140000000  0.4281060000000 1.0
C      1  0.4356880000000  0.5390070000000  0.4319030000000 1.0
C      1  0.4342360000000  0.4623060000000  0.5691960000000 1.0
C      1  0.5650240000000  0.4289510000000  0.4583730000000 1.0
C      1  0.5460860000000  0.4341010000000  0.4350770000000 1.0
C      1  0.4538500000000  0.4386970000000  0.5635580000000 1.0
C      1  0.4357730000000  0.5682000000000  0.4629350000000 1.0
C      1  0.4552710000000  0.5627340000000  0.4393930000000 1.0
C      1  0.5706110000000  0.5438740000000  0.5610460000000 1.0
C      1  0.5500050000000  0.5656990000000  0.5694420000000 1.0
C      1  0.4339650000000  0.4309860000000  0.5402620000000 1.0
C      1  0.5763560000000  0.5636430000000  0.5367720000000 1.0
C      1  0.4771690000000  0.4980920000000  0.5374510000000 1.0
C      1  0.5294100000000  0.4819300000000  0.4701970000000 1.0
C      1  0.4783570000000  0.5352030000000  0.4978060000000 1.0
C      1  0.5172680000000  0.5324430000000  0.5288200000000 1.0
END
