TITL C-140551-871-1 0.212767778530705 125000 -479.377576037539 0 0 69 (C1) n - 1
REM
REM in /rds/project/t2_vol4/rds-t2-cs072/BORA/CARBON/from-Arr/AIRSS/Generating-Clusters/GAP-ML-2020/Higher-Symm/SD-CG/HFTN-CG
REM
REM
REM
REM
REM
REM ./C.cell (b20cbc046b6831c77cfcea5457e17084)
REM AIRSS Version 0.9.1 bugfix July 2018 build 013d7b7c2542+ Fri, 06 Jul 2018 19:26:36 +0100
REM compiler GCC version 9.3.0
REM options -cpp -mtune=generic -march=x86-64 -g -O0
REM seed 1078021295 894008939 1336325620 -1858506913 890734156 -288229435 -70377986 -352440157 1514482392 936670699 -225408622 -438569213 655052690 -1848209704 1866586304 1751594868 -163984672 -2017127542 -1382969272 -1488283359 -873339498 1979556847 -27764892 962812347 -22235698 1571752745 -463835556 1036017349 1195587389 -2047298169 509331874 1251417963 1070483889
REM
CELL 1.54180   50.00000   50.00000   50.00000   90.00000   90.00000   90.00000
LATT -1
SFAC C  
C      1  0.5360490000000  0.4362290000000  0.5244010000000 1.0
C      1  0.4810310000000  0.4424570000000  0.5261410000000 1.0
C      1  0.4412260000000  0.4350870000000  0.4903330000000 1.0
C      1  0.4853750000000  0.4410270000000  0.4511340000000 1.0
C      1  0.5411180000000  0.4390190000000  0.4671510000000 1.0
C      1  0.4852410000000  0.4668990000000  0.4435330000000 1.0
C      1  0.5480430000000  0.4652110000000  0.4656930000000 1.0
C      1  0.5437800000000  0.4606520000000  0.5330250000000 1.0
C      1  0.4788600000000  0.4609190000000  0.5475130000000 1.0
C      1  0.4496250000000  0.4639670000000  0.4946720000000 1.0
C      1  0.4456740000000  0.4844760000000  0.4717040000000 1.0
C      1  0.5082000000000  0.4853000000000  0.4364470000000 1.0
C      1  0.5623240000000  0.4812420000000  0.4869470000000 1.0
C      1  0.5294120000000  0.4777620000000  0.5532800000000 1.0
C      1  0.4557860000000  0.4789300000000  0.5438210000000 1.0
C      1  0.5015830000000  0.5283130000000  0.5556290000000 1.0
C      1  0.4395190000000  0.5304420000000  0.5235150000000 1.0
C      1  0.4668420000000  0.5350630000000  0.4576800000000 1.0
C      1  0.5323410000000  0.5360170000000  0.4554140000000 1.0
C      1  0.5544920000000  0.5291070000000  0.5162750000000 1.0
C      1  0.5553110000000  0.5789010000000  0.4749610000000 1.0
C      1  0.5497040000000  0.5748280000000  0.5407990000000 1.0
C      1  0.4841360000000  0.5717400000000  0.5506180000000 1.0
C      1  0.4609380000000  0.5697090000000  0.4997010000000 1.0
C      1  0.4963340000000  0.5772890000000  0.4536230000000 1.0
C      1  0.5600710000000  0.5039930000000  0.5299380000000 1.0
C      1  0.4898230000000  0.5030460000000  0.5635150000000 1.0
C      1  0.4325030000000  0.5057750000000  0.5112900000000 1.0
C      1  0.4702950000000  0.5114160000000  0.4408740000000 1.0
C      1  0.5458710000000  0.5101120000000  0.4541660000000 1.0
C      1  0.5543450000000  0.5521310000000  0.4709920000000 1.0
C      1  0.5478060000000  0.5474770000000  0.5396010000000 1.0
C      1  0.4760270000000  0.5469800000000  0.5567530000000 1.0
C      1  0.4438510000000  0.5490150000000  0.5011250000000 1.0
C      1  0.4868330000000  0.5541610000000  0.4440680000000 1.0
C      1  0.5604880000000  0.4794000000000  0.5163440000000 1.0
C      1  0.5007730000000  0.4770190000000  0.5594730000000 1.0
C      1  0.4404760000000  0.4802520000000  0.5198210000000 1.0
C      1  0.4628400000000  0.4858770000000  0.4493180000000 1.0
C      1  0.5350020000000  0.4850530000000  0.4474620000000 1.0
C      1  0.4427930000000  0.5344200000000  0.4757930000000 1.0
C      1  0.5087220000000  0.5366250000000  0.4364230000000 1.0
C      1  0.5652750000000  0.5321310000000  0.4891010000000 1.0
C      1  0.5311160000000  0.5292570000000  0.5559950000000 1.0
C      1  0.4543520000000  0.5293820000000  0.5481400000000 1.0
C      1  0.4976560000000  0.5114120000000  0.4328530000000 1.0
C      1  0.5631140000000  0.5074670000000  0.4763860000000 1.0
C      1  0.5419120000000  0.5033750000000  0.5519950000000 1.0
C      1  0.4624260000000  0.5035970000000  0.5557260000000 1.0
C      1  0.4358130000000  0.5083850000000  0.4826290000000 1.0
C      1  0.5007630000000  0.5698010000000  0.5258060000000 1.0
C      1  0.4867060000000  0.5768650000000  0.5010640000000 1.0
C      1  0.5067210000000  0.5736890000000  0.4801650000000 1.0
C      1  0.5332850000000  0.5794220000000  0.4922470000000 1.0
C      1  0.5298910000000  0.5766210000000  0.5207370000000 1.0
C      1  0.5199030000000  0.4209020000000  0.5080810000000 1.0
C      1  0.4917680000000  0.4177610000000  0.5149420000000 1.0
C      1  0.4501990000000  0.4116890000000  0.4876860000000 1.0
C      1  0.4945580000000  0.4205890000000  0.4673480000000 1.0
C      1  0.5222080000000  0.4222140000000  0.4785520000000 1.0
C      1  0.5014290000000  0.5369430000000  0.5247280000000 1.0
C      1  0.4824750000000  0.5194540000000  0.5061650000000 1.0
C      1  0.4872200000000  0.5282760000000  0.4794190000000 1.0
C      1  0.5141640000000  0.5395890000000  0.4806350000000 1.0
C      1  0.5235540000000  0.5259750000000  0.5060370000000 1.0
C      1  0.4990050000000  0.4768400000000  0.4930000000000 1.0
C      1  0.4779010000000  0.4116720000000  0.4898000000000 1.0
C      1  0.4789690000000  0.4597440000000  0.5017150000000 1.0
C      1  0.5039440000000  0.5009450000000  0.5030050000000 1.0
END
