TITL C-146878-8317-7 -0.0619172021081192 125000 -460.118060586032 0 0 68 (C1) n - 1
REM
REM in /rds/project/t2_vol4/rds-t2-cs072/BORA/CARBON/from-Arr/AIRSS/Generating-Clusters/GAP-ML-2020/Higher-Symm/SD-CG/HFTN-CG
REM
REM
REM
REM
REM
REM ./C.cell (b20cbc046b6831c77cfcea5457e17084)
REM AIRSS Version 0.9.1 bugfix July 2018 build 013d7b7c2542+ Fri, 06 Jul 2018 19:26:36 +0100
REM compiler GCC version 9.3.0
REM options -cpp -mtune=generic -march=x86-64 -g -O0
REM seed -2003473248 -1286281534 1252041432 -144737280 -979645476 -344688959 -1177621972 1666763580 -1034307725 -2084532928 -1370868281 450984785 -480319560 546831507 -2074503436 1836344645 542018395 1640253389 500844778 1415931940 -16771978 106340268 1186159647 880157449 1084676124 -1162678184 570993004 861855198 385826534 341165006 -1626787321 852982683 1139064850
REM
CELL 1.54180   50.00000   50.00000   50.00000   90.00000   90.00000   90.00000
LATT -1
SFAC C  
C      1  0.4818620000000  0.5090430000000  0.5627160000000 1.0
C      1  0.4625020000000  0.4731070000000  0.5340980000000 1.0
C      1  0.5788660000000  0.4837710000000  0.5102140000000 1.0
C      1  0.5009490000000  0.5046640000000  0.5214360000000 1.0
C      1  0.4872880000000  0.4821500000000  0.5102250000000 1.0
C      1  0.4538910000000  0.5432850000000  0.4519750000000 1.0
C      1  0.5328890000000  0.5129020000000  0.5554020000000 1.0
C      1  0.5062410000000  0.4547640000000  0.5138380000000 1.0
C      1  0.4477890000000  0.5061100000000  0.4811180000000 1.0
C      1  0.5432600000000  0.4673110000000  0.5519020000000 1.0
C      1  0.5537900000000  0.4941350000000  0.5515340000000 1.0
C      1  0.5367750000000  0.5357870000000  0.5384700000000 1.0
C      1  0.4948880000000  0.5093700000000  0.4373760000000 1.0
C      1  0.4804300000000  0.4848640000000  0.4410130000000 1.0
C      1  0.4352590000000  0.5498580000000  0.4969940000000 1.0
C      1  0.4892140000000  0.5640120000000  0.4522730000000 1.0
C      1  0.4619460000000  0.4438460000000  0.4626320000000 1.0
C      1  0.5178970000000  0.5212260000000  0.4788590000000 1.0
C      1  0.4809500000000  0.4956630000000  0.4839400000000 1.0
C      1  0.5772990000000  0.4559790000000  0.5153860000000 1.0
C      1  0.5334300000000  0.4585240000000  0.5083990000000 1.0
C      1  0.4382950000000  0.5326580000000  0.4730830000000 1.0
C      1  0.4665840000000  0.4334470000000  0.5109010000000 1.0
C      1  0.4825020000000  0.5336480000000  0.4497500000000 1.0
C      1  0.5612610000000  0.5341820000000  0.4908120000000 1.0
C      1  0.4704840000000  0.4458980000000  0.5371230000000 1.0
C      1  0.5144520000000  0.4696730000000  0.5561510000000 1.0
C      1  0.5656260000000  0.4863190000000  0.4836400000000 1.0
C      1  0.5073660000000  0.4987700000000  0.5533070000000 1.0
C      1  0.4328710000000  0.5343130000000  0.5206170000000 1.0
C      1  0.4739520000000  0.5349740000000  0.5491430000000 1.0
C      1  0.5385290000000  0.5443830000000  0.4753190000000 1.0
C      1  0.4906970000000  0.4441390000000  0.4689820000000 1.0
C      1  0.4354780000000  0.4651040000000  0.4941720000000 1.0
C      1  0.4481650000000  0.4403360000000  0.4902170000000 1.0
C      1  0.5147500000000  0.5539470000000  0.5346570000000 1.0
C      1  0.5471870000000  0.5231560000000  0.4534360000000 1.0
C      1  0.4549220000000  0.4687680000000  0.4498050000000 1.0
C      1  0.4415790000000  0.4810320000000  0.5170680000000 1.0
C      1  0.4473300000000  0.5095540000000  0.5109800000000 1.0
C      1  0.5670600000000  0.5130480000000  0.4717040000000 1.0
C      1  0.5244670000000  0.4786030000000  0.4636250000000 1.0
C      1  0.5778160000000  0.4424240000000  0.4899360000000 1.0
C      1  0.4625740000000  0.5686910000000  0.4614880000000 1.0
C      1  0.4426470000000  0.5344570000000  0.5476780000000 1.0
C      1  0.4909760000000  0.4359890000000  0.4976400000000 1.0
C      1  0.4948870000000  0.4756660000000  0.4649210000000 1.0
C      1  0.5516090000000  0.5233410000000  0.5161850000000 1.0
C      1  0.5229190000000  0.5060550000000  0.4514930000000 1.0
C      1  0.4377990000000  0.4807380000000  0.4700700000000 1.0
C      1  0.5645090000000  0.4550310000000  0.4708190000000 1.0
C      1  0.4380890000000  0.5096520000000  0.5589320000000 1.0
C      1  0.5382960000000  0.4516690000000  0.4559860000000 1.0
C      1  0.4598470000000  0.5625320000000  0.4897040000000 1.0
C      1  0.5070140000000  0.5593380000000  0.5076150000000 1.0
C      1  0.4824040000000  0.5445650000000  0.4993000000000 1.0
C      1  0.5164490000000  0.4359320000000  0.4545360000000 1.0
C      1  0.5077860000000  0.5791450000000  0.4637570000000 1.0
C      1  0.5679760000000  0.5021390000000  0.5282120000000 1.0
C      1  0.4935280000000  0.5549340000000  0.5528730000000 1.0
C      1  0.4985580000000  0.4507490000000  0.5421770000000 1.0
C      1  0.5366400000000  0.4820360000000  0.4915470000000 1.0
C      1  0.5254930000000  0.5070990000000  0.5034580000000 1.0
C      1  0.4897020000000  0.5250640000000  0.4777120000000 1.0
C      1  0.5527580000000  0.4529320000000  0.5290570000000 1.0
C      1  0.4598220000000  0.4924480000000  0.5566970000000 1.0
C      1  0.5221890000000  0.5672520000000  0.4838700000000 1.0
C      1  0.4767460000000  0.5237980000000  0.5200460000000 1.0
END
