TITL C-146865-8061-6 -0.0973916783581295 125000 -846.578513365838 0 0 125 (C1) n - 1
REM
REM in /rds/project/t2_vol4/rds-t2-cs072/BORA/CARBON/from-Arr/AIRSS/Generating-Clusters/GAP-ML-2020/Higher-Symm/SD-CG/HFTN-CG
REM
REM
REM
REM
REM
REM ./C.cell (b20cbc046b6831c77cfcea5457e17084)
REM AIRSS Version 0.9.1 bugfix July 2018 build 013d7b7c2542+ Fri, 06 Jul 2018 19:26:36 +0100
REM compiler GCC version 9.3.0
REM options -cpp -mtune=generic -march=x86-64 -g -O0
REM seed 1695996194 -287743294 398174066 902737831 -1265745657 -1995549778 1967703475 -910401939 -722823485 -1375971468 1175580490 -1063600765 1279571749 1254659360 -215466540 1795428735 -1305135500 740799759 346578280 1199047060 156920804 42681250 1553359393 1575862714 -751576777 -77180115 -1518058328 251099213 690759742 1715092746 294176844 -993220105 -1706407754
REM
CELL 1.54180   50.00000   50.00000   50.00000   90.00000   90.00000   90.00000
LATT -1
SFAC C  
C      1  0.5083590000000  0.5345160000000  0.4276930000000 1.0
C      1  0.5094520000000  0.4415970000000  0.4436380000000 1.0
C      1  0.5083010000000  0.4285330000000  0.5369890000000 1.0
C      1  0.5051000000000  0.5092190000000  0.5798430000000 1.0
C      1  0.5090070000000  0.5816550000000  0.5077510000000 1.0
C      1  0.5124780000000  0.4706600000000  0.4354430000000 1.0
C      1  0.5118310000000  0.5513700000000  0.4524980000000 1.0
C      1  0.5114880000000  0.5648530000000  0.5322970000000 1.0
C      1  0.5114950000000  0.4830330000000  0.5684290000000 1.0
C      1  0.5122230000000  0.4271560000000  0.5065100000000 1.0
C      1  0.5399730000000  0.5162540000000  0.5392310000000 1.0
C      1  0.5392450000000  0.5426540000000  0.4973140000000 1.0
C      1  0.5408700000000  0.5102330000000  0.4601680000000 1.0
C      1  0.5387060000000  0.4636700000000  0.4774360000000 1.0
C      1  0.5387040000000  0.4664780000000  0.5258200000000 1.0
C      1  0.5248720000000  0.4891150000000  0.5396160000000 1.0
C      1  0.5240620000000  0.4565730000000  0.5019760000000 1.0
C      1  0.5247470000000  0.4841630000000  0.4616730000000 1.0
C      1  0.5251700000000  0.5322140000000  0.4735930000000 1.0
C      1  0.5248240000000  0.5367700000000  0.5219260000000 1.0
C      1  0.4634380000000  0.4440690000000  0.4506270000000 1.0
C      1  0.4626250000000  0.4333710000000  0.5354800000000 1.0
C      1  0.4552700000000  0.5083920000000  0.5853990000000 1.0
C      1  0.4614050000000  0.5792960000000  0.5067590000000 1.0
C      1  0.4625040000000  0.5296310000000  0.4323570000000 1.0
C      1  0.4603720000000  0.5579390000000  0.4480810000000 1.0
C      1  0.4594040000000  0.5706360000000  0.5372080000000 1.0
C      1  0.4582140000000  0.4788110000000  0.5781290000000 1.0
C      1  0.4640620000000  0.4312670000000  0.5041450000000 1.0
C      1  0.4614210000000  0.4695130000000  0.4269780000000 1.0
C      1  0.6204920000000  0.5417270000000  0.5004580000000 1.0
C      1  0.6205320000000  0.5113830000000  0.4622220000000 1.0
C      1  0.6214050000000  0.4658690000000  0.4769760000000 1.0
C      1  0.6199350000000  0.4684900000000  0.5241780000000 1.0
C      1  0.6195930000000  0.5150490000000  0.5391980000000 1.0
C      1  0.6093960000000  0.4583030000000  0.5009140000000 1.0
C      1  0.6091100000000  0.4861800000000  0.4627870000000 1.0
C      1  0.6092630000000  0.5317380000000  0.4767520000000 1.0
C      1  0.6084800000000  0.5355150000000  0.5245740000000 1.0
C      1  0.6081670000000  0.4899880000000  0.5375070000000 1.0
C      1  0.4864160000000  0.4860870000000  0.4299890000000 1.0
C      1  0.4887790000000  0.4233120000000  0.4887800000000 1.0
C      1  0.4845280000000  0.4689990000000  0.5627200000000 1.0
C      1  0.4845190000000  0.5588460000000  0.5404930000000 1.0
C      1  0.4851790000000  0.5608160000000  0.4653830000000 1.0
C      1  0.4872520000000  0.5168970000000  0.4232000000000 1.0
C      1  0.4862440000000  0.5784060000000  0.4910650000000 1.0
C      1  0.4790200000000  0.5178040000000  0.5758240000000 1.0
C      1  0.4862810000000  0.4408790000000  0.5494760000000 1.0
C      1  0.4883620000000  0.4315680000000  0.4597830000000 1.0
C      1  0.4609360000000  0.4676870000000  0.4715550000000 1.0
C      1  0.4579680000000  0.4788040000000  0.5159320000000 1.0
C      1  0.4658480000000  0.5132090000000  0.5459970000000 1.0
C      1  0.4602790000000  0.5320870000000  0.5031200000000 1.0
C      1  0.4609400000000  0.5148510000000  0.4612820000000 1.0
C      1  0.4756300000000  0.5323330000000  0.4791170000000 1.0
C      1  0.4767290000000  0.5322560000000  0.5268540000000 1.0
C      1  0.4754750000000  0.4876420000000  0.5373650000000 1.0
C      1  0.4716620000000  0.4621840000000  0.4977300000000 1.0
C      1  0.4755860000000  0.4899200000000  0.4602940000000 1.0
C      1  0.3902290000000  0.4614730000000  0.5011890000000 1.0
C      1  0.3918720000000  0.4887280000000  0.5419690000000 1.0
C      1  0.3925070000000  0.5341040000000  0.5277470000000 1.0
C      1  0.3898310000000  0.5319740000000  0.4789870000000 1.0
C      1  0.3889030000000  0.4878400000000  0.4607650000000 1.0
C      1  0.3799660000000  0.5406380000000  0.5036250000000 1.0
C      1  0.3832000000000  0.5147200000000  0.5447360000000 1.0
C      1  0.3799690000000  0.4686320000000  0.5264120000000 1.0
C      1  0.3780710000000  0.4681950000000  0.4771020000000 1.0
C      1  0.3775160000000  0.5130320000000  0.4627190000000 1.0
C      1  0.4304880000000  0.4653550000000  0.4711290000000 1.0
C      1  0.4322760000000  0.4686580000000  0.5221430000000 1.0
C      1  0.4342200000000  0.5133250000000  0.5454670000000 1.0
C      1  0.4330900000000  0.5412680000000  0.5022040000000 1.0
C      1  0.4308720000000  0.5136020000000  0.4587870000000 1.0
C      1  0.4195580000000  0.5355070000000  0.4745870000000 1.0
C      1  0.4222570000000  0.5375960000000  0.5296220000000 1.0
C      1  0.4212490000000  0.4864580000000  0.5453660000000 1.0
C      1  0.4203120000000  0.4562680000000  0.4982220000000 1.0
C      1  0.4189600000000  0.4860080000000  0.4546170000000 1.0
C      1  0.5679030000000  0.4643490000000  0.5244500000000 1.0
C      1  0.5670120000000  0.5121120000000  0.5304790000000 1.0
C      1  0.5683950000000  0.5464510000000  0.5001550000000 1.0
C      1  0.5677580000000  0.5089690000000  0.4709540000000 1.0
C      1  0.5679680000000  0.4631350000000  0.4747080000000 1.0
C      1  0.5777440000000  0.5394500000000  0.5269440000000 1.0
C      1  0.5782080000000  0.4873230000000  0.5403190000000 1.0
C      1  0.5789330000000  0.4520850000000  0.5002740000000 1.0
C      1  0.5788860000000  0.4847090000000  0.4581440000000 1.0
C      1  0.5792180000000  0.5354460000000  0.4749840000000 1.0
C      1  0.5584080000000  0.5554480000000  0.5482280000000 1.0
C      1  0.5599890000000  0.5622260000000  0.4612650000000 1.0
C      1  0.5607890000000  0.4847940000000  0.4302020000000 1.0
C      1  0.5609190000000  0.4256160000000  0.4933900000000 1.0
C      1  0.5601860000000  0.4727960000000  0.5659550000000 1.0
C      1  0.5528660000000  0.4498020000000  0.5475260000000 1.0
C      1  0.5534990000000  0.4375060000000  0.4662360000000 1.0
C      1  0.5491180000000  0.5117370000000  0.4310780000000 1.0
C      1  0.5533340000000  0.5702640000000  0.4893920000000 1.0
C      1  0.5465980000000  0.5327260000000  0.5635470000000 1.0
C      1  0.5405340000000  0.5736050000000  0.5364760000000 1.0
C      1  0.5412010000000  0.5578300000000  0.4424780000000 1.0
C      1  0.5420930000000  0.4643970000000  0.4278190000000 1.0
C      1  0.5414690000000  0.4187160000000  0.5115930000000 1.0
C      1  0.5411090000000  0.4863700000000  0.5792870000000 1.0
C      1  0.5373140000000  0.4271640000000  0.5403000000000 1.0
C      1  0.5384770000000  0.4384010000000  0.4420820000000 1.0
C      1  0.5371850000000  0.5351040000000  0.4230490000000 1.0
C      1  0.5378280000000  0.5849030000000  0.5079970000000 1.0
C      1  0.5335020000000  0.5165170000000  0.5816100000000 1.0
C      1  0.4370780000000  0.5302680000000  0.5692990000000 1.0
C      1  0.4404440000000  0.5689500000000  0.4921320000000 1.0
C      1  0.4385910000000  0.5142070000000  0.4285100000000 1.0
C      1  0.4386860000000  0.4365860000000  0.4631200000000 1.0
C      1  0.4407790000000  0.4482690000000  0.5433610000000 1.0
C      1  0.4371710000000  0.4677950000000  0.5638600000000 1.0
C      1  0.4380400000000  0.4299130000000  0.4910570000000 1.0
C      1  0.4387810000000  0.4855300000000  0.4279160000000 1.0
C      1  0.4382900000000  0.5611370000000  0.4647450000000 1.0
C      1  0.4388230000000  0.5543960000000  0.5502440000000 1.0
C      1  0.5003420000000  0.4915850000000  0.4768600000000 1.0
C      1  0.4994560000000  0.4736860000000  0.5000450000000 1.0
C      1  0.5009820000000  0.4922280000000  0.5230920000000 1.0
C      1  0.5014040000000  0.5193940000000  0.4859010000000 1.0
C      1  0.5017860000000  0.5202530000000  0.5150040000000 1.0
END
