TITL C-140545-9096-6 -0.117475836228177 125000 -849.186723029711 0 0 118 (C2) n - 1
REM
REM in /rds/project/t2_vol4/rds-t2-cs072/BORA/CARBON/from-Arr/AIRSS/Generating-Clusters/GAP-ML-2020/Higher-Symm/SD-CG/HFTN-CG
REM
REM
REM
REM
REM
REM ./C.cell (b20cbc046b6831c77cfcea5457e17084)
REM AIRSS Version 0.9.1 bugfix July 2018 build 013d7b7c2542+ Fri, 06 Jul 2018 19:26:36 +0100
REM compiler GCC version 9.3.0
REM options -cpp -mtune=generic -march=x86-64 -g -O0
REM seed 252448298 25406550 -561248749 -1537016521 -101250088 -838200386 460774744 -1192968411 -409798184 -1686129502 -552671174 771500973 1817815006 -720758287 175763894 -75160478 493267104 1493125275 1748554122 36783216 -1760130789 -769615947 140642555 -333527629 -1986103463 -1403661684 1234078565 795896105 -1837116806 1114789979 1346809518 1379027651 -152974847
REM
CELL 1.54180   50.00000   50.00000   50.00000   90.00000   90.00000   90.00000
LATT -1
SFAC C  
C      1  0.5500070000000  0.5589720000000  0.4863180000000 1.0
C      1  0.4510010000000  0.5593320000000  0.5127140000000 1.0
C      1  0.5499990000000  0.4416430000000  0.5136760000000 1.0
C      1  0.4509900000000  0.4412990000000  0.4872920000000 1.0
C      1  0.4871700000000  0.5606060000000  0.5513430000000 1.0
C      1  0.5134030000000  0.5584450000000  0.4483950000000 1.0
C      1  0.5134000000000  0.4421770000000  0.5516030000000 1.0
C      1  0.4871550000000  0.4400190000000  0.4486580000000 1.0
C      1  0.4860960000000  0.4681210000000  0.4127090000000 1.0
C      1  0.5157390000000  0.4700050000000  0.5882270000000 1.0
C      1  0.4861110000000  0.5325050000000  0.5872930000000 1.0
C      1  0.5157340000000  0.5306160000000  0.4117710000000 1.0
C      1  0.4148370000000  0.4692320000000  0.4858070000000 1.0
C      1  0.5869950000000  0.4690760000000  0.5150950000000 1.0
C      1  0.5869990000000  0.5315330000000  0.4848940000000 1.0
C      1  0.4148440000000  0.5314050000000  0.5142030000000 1.0
C      1  0.4658480000000  0.4895140000000  0.5825430000000 1.0
C      1  0.5356800000000  0.4877950000000  0.4188620000000 1.0
C      1  0.4658400000000  0.5111150000000  0.4174610000000 1.0
C      1  0.5356920000000  0.5128230000000  0.5811340000000 1.0
C      1  0.5816700000000  0.4886640000000  0.4652410000000 1.0
C      1  0.4203140000000  0.4886580000000  0.5351480000000 1.0
C      1  0.4203120000000  0.5119780000000  0.4648610000000 1.0
C      1  0.5816760000000  0.5119470000000  0.5347500000000 1.0
C      1  0.5111450000000  0.4674030000000  0.5320350000000 1.0
C      1  0.4947840000000  0.4613570000000  0.4707220000000 1.0
C      1  0.5111470000000  0.5332190000000  0.4679630000000 1.0
C      1  0.4947940000000  0.5392670000000  0.5292780000000 1.0
C      1  0.5257450000000  0.4635390000000  0.5081540000000 1.0
C      1  0.4746390000000  0.4615980000000  0.4943000000000 1.0
C      1  0.4746460000000  0.5390300000000  0.5057030000000 1.0
C      1  0.5257500000000  0.5370800000000  0.4918430000000 1.0
C      1  0.4654470000000  0.4143010000000  0.4850680000000 1.0
C      1  0.5325760000000  0.4172980000000  0.5117710000000 1.0
C      1  0.4654620000000  0.5863280000000  0.5149360000000 1.0
C      1  0.5325880000000  0.5833210000000  0.4882260000000 1.0
C      1  0.4849040000000  0.4136410000000  0.4648000000000 1.0
C      1  0.5107610000000  0.4185400000000  0.5332540000000 1.0
C      1  0.5107700000000  0.5820820000000  0.4667440000000 1.0
C      1  0.4849220000000  0.5869840000000  0.5352020000000 1.0
C      1  0.4595150000000  0.5352510000000  0.5786990000000 1.0
C      1  0.5421200000000  0.5342750000000  0.4206810000000 1.0
C      1  0.4595000000000  0.4653790000000  0.4213050000000 1.0
C      1  0.5421240000000  0.4663410000000  0.5793140000000 1.0
C      1  0.5782620000000  0.5347560000000  0.4584400000000 1.0
C      1  0.4229390000000  0.5346230000000  0.5408660000000 1.0
C      1  0.4229290000000  0.4660130000000  0.4591430000000 1.0
C      1  0.5782620000000  0.4658550000000  0.5415510000000 1.0
C      1  0.4879010000000  0.4954550000000  0.4068900000000 1.0
C      1  0.5140260000000  0.4976250000000  0.5930360000000 1.0
C      1  0.4879120000000  0.5051710000000  0.5931110000000 1.0
C      1  0.5140160000000  0.5029960000000  0.4069630000000 1.0
C      1  0.4093750000000  0.4966820000000  0.4869710000000 1.0
C      1  0.5926800000000  0.4964380000000  0.5130080000000 1.0
C      1  0.5926790000000  0.5041710000000  0.4869810000000 1.0
C      1  0.4093770000000  0.5039560000000  0.5130400000000 1.0
C      1  0.4688230000000  0.4625780000000  0.5723620000000 1.0
C      1  0.5324460000000  0.4608740000000  0.4299010000000 1.0
C      1  0.4688210000000  0.5380510000000  0.4276420000000 1.0
C      1  0.5324610000000  0.5397440000000  0.5700950000000 1.0
C      1  0.5708990000000  0.4619180000000  0.4686860000000 1.0
C      1  0.4312940000000  0.4617130000000  0.5324620000000 1.0
C      1  0.4312970000000  0.5389210000000  0.4675460000000 1.0
C      1  0.5709090000000  0.5386940000000  0.5313060000000 1.0
C      1  0.5101210000000  0.6006530000000  0.5333230000000 1.0
C      1  0.4841850000000  0.5904440000000  0.4678010000000 1.0
C      1  0.5101010000000  0.3999690000000  0.4666760000000 1.0
C      1  0.4841740000000  0.4101820000000  0.5322010000000 1.0
C      1  0.5316730000000  0.5914240000000  0.5152380000000 1.0
C      1  0.4663660000000  0.5999830000000  0.4896310000000 1.0
C      1  0.4663520000000  0.4006460000000  0.5103730000000 1.0
C      1  0.5316560000000  0.4091940000000  0.4847580000000 1.0
C      1  0.5731580000000  0.4532700000000  0.4965780000000 1.0
C      1  0.4282180000000  0.4527190000000  0.5047890000000 1.0
C      1  0.5731650000000  0.5473420000000  0.5034130000000 1.0
C      1  0.4282250000000  0.5479160000000  0.4952200000000 1.0
C      1  0.4965660000000  0.4539810000000  0.5752340000000 1.0
C      1  0.5049610000000  0.4513820000000  0.4258740000000 1.0
C      1  0.5049770000000  0.5492400000000  0.5741260000000 1.0
C      1  0.4965640000000  0.5466430000000  0.4247670000000 1.0
C      1  0.4594730000000  0.4228600000000  0.5440430000000 1.0
C      1  0.5270020000000  0.4059900000000  0.4444650000000 1.0
C      1  0.4594800000000  0.5777690000000  0.4559620000000 1.0
C      1  0.5270240000000  0.5946290000000  0.5555310000000 1.0
C      1  0.5435830000000  0.4225100000000  0.4602710000000 1.0
C      1  0.4434760000000  0.4056200000000  0.5278630000000 1.0
C      1  0.4434880000000  0.5950120000000  0.4721430000000 1.0
C      1  0.5436000000000  0.5781060000000  0.5397240000000 1.0
C      1  0.4277270000000  0.5093470000000  0.5536390000000 1.0
C      1  0.5739310000000  0.5090930000000  0.4463800000000 1.0
C      1  0.4277200000000  0.4912880000000  0.4463690000000 1.0
C      1  0.5739360000000  0.4915180000000  0.5536120000000 1.0
C      1  0.5541310000000  0.5087580000000  0.4261830000000 1.0
C      1  0.4473580000000  0.5097600000000  0.5740680000000 1.0
C      1  0.4473480000000  0.4908720000000  0.4259380000000 1.0
C      1  0.5541390000000  0.4918570000000  0.5738100000000 1.0
C      1  0.5599360000000  0.4451570000000  0.5412250000000 1.0
C      1  0.4406200000000  0.4449730000000  0.4592470000000 1.0
C      1  0.5599400000000  0.5554570000000  0.4587680000000 1.0
C      1  0.4406330000000  0.5556600000000  0.5407600000000 1.0
C      1  0.5412750000000  0.4450540000000  0.5613530000000 1.0
C      1  0.4593440000000  0.4445340000000  0.4393230000000 1.0
C      1  0.4593590000000  0.5560960000000  0.5606810000000 1.0
C      1  0.5412770000000  0.5555620000000  0.4386430000000 1.0
C      1  0.5290160000000  0.5116760000000  0.5079040000000 1.0
C      1  0.4728790000000  0.5121100000000  0.4922540000000 1.0
C      1  0.5290140000000  0.4889430000000  0.4920930000000 1.0
C      1  0.4728780000000  0.4885180000000  0.5077490000000 1.0
C      1  0.5085580000000  0.5126060000000  0.5300830000000 1.0
C      1  0.4929330000000  0.5108390000000  0.4697060000000 1.0
C      1  0.4929340000000  0.4897850000000  0.5302950000000 1.0
C      1  0.5085530000000  0.4880160000000  0.4699160000000 1.0
C      1  0.5503580000000  0.4494310000000  0.4514710000000 1.0
C      1  0.4516010000000  0.5506150000000  0.4485750000000 1.0
C      1  0.4515980000000  0.4500160000000  0.5514300000000 1.0
C      1  0.5503710000000  0.5511840000000  0.5485230000000 1.0
C      1  0.5024500000000  0.5501320000000  0.5042390000000 1.0
C      1  0.5024420000000  0.4504910000000  0.4957610000000 1.0
END
