TITL C-140557-267-7 -0.0259682538918951 125000 -608.575698204355 0 0 90 (C3) n - 1
REM
REM in /rds/project/t2_vol4/rds-t2-cs072/BORA/CARBON/from-Arr/AIRSS/Generating-Clusters/GAP-ML-2020/Higher-Symm/SD-CG/HFTN-CG
REM
REM
REM
REM
REM
REM ./C.cell (b20cbc046b6831c77cfcea5457e17084)
REM AIRSS Version 0.9.1 bugfix July 2018 build 013d7b7c2542+ Fri, 06 Jul 2018 19:26:36 +0100
REM compiler GCC version 9.3.0
REM options -cpp -mtune=generic -march=x86-64 -g -O0
REM seed -2002404866 -883208474 2136764257 -1516743994 -1196361405 1013384219 149459136 281634639 -2065725906 -817762673 -1873510221 -126952356 -1216167388 838340047 1802258990 -919637147 -389522483 1561388178 1862768044 -1886319249 -1547476759 1118349320 137983130 1868691500 1951308042 -110116929 -72243605 1131593048 -2030635825 -871899871 749224646 1350948992 -215271256
REM
CELL 1.54180   50.00000   50.00000   50.00000   90.00000   90.00000   90.00000
LATT -1
SFAC C  
C      1  0.4516240000000  0.4463520000000  0.4355220000000 1.0
C      1  0.4783330000000  0.5698420000000  0.4365300000000 1.0
C      1  0.5719220000000  0.4849590000000  0.4369380000000 1.0
C      1  0.4115010000000  0.4998030000000  0.5308540000000 1.0
C      1  0.5437720000000  0.5761860000000  0.5326160000000 1.0
C      1  0.5437910000000  0.4234360000000  0.5316940000000 1.0
C      1  0.5291230000000  0.5675390000000  0.4633870000000 1.0
C      1  0.5442840000000  0.4416610000000  0.4627770000000 1.0
C      1  0.4276930000000  0.4914760000000  0.4619310000000 1.0
C      1  0.5183420000000  0.5715990000000  0.5427790000000 1.0
C      1  0.5524330000000  0.4475710000000  0.5423650000000 1.0
C      1  0.4279810000000  0.4800670000000  0.5413370000000 1.0
C      1  0.4880150000000  0.5388910000000  0.5656370000000 1.0
C      1  0.5390480000000  0.4897810000000  0.5658420000000 1.0
C      1  0.4710050000000  0.4701410000000  0.5650550000000 1.0
C      1  0.4980590000000  0.5512590000000  0.4332120000000 1.0
C      1  0.5459990000000  0.4772270000000  0.4332360000000 1.0
C      1  0.4579200000000  0.4727280000000  0.4323430000000 1.0
C      1  0.4977210000000  0.4281120000000  0.5506100000000 1.0
C      1  0.4383990000000  0.5370240000000  0.5506840000000 1.0
C      1  0.5623750000000  0.5339390000000  0.5518850000000 1.0
C      1  0.4852040000000  0.5269170000000  0.4445810000000 1.0
C      1  0.5312350000000  0.5003280000000  0.4448730000000 1.0
C      1  0.4851960000000  0.4737590000000  0.4442600000000 1.0
C      1  0.4053910000000  0.5030090000000  0.5025870000000 1.0
C      1  0.5498730000000  0.5803700000000  0.5044750000000 1.0
C      1  0.5446330000000  0.4165570000000  0.5034340000000 1.0
C      1  0.5287400000000  0.5845490000000  0.4860400000000 1.0
C      1  0.5589910000000  0.4330900000000  0.4854230000000 1.0
C      1  0.4127040000000  0.4826280000000  0.4842840000000 1.0
C      1  0.4629890000000  0.5490000000000  0.5541160000000 1.0
C      1  0.5604220000000  0.5065990000000  0.5548180000000 1.0
C      1  0.4749910000000  0.4434190000000  0.5535970000000 1.0
C      1  0.4705380000000  0.4949610000000  0.5212200000000 1.0
C      1  0.5101610000000  0.5276570000000  0.5218070000000 1.0
C      1  0.5186660000000  0.4769920000000  0.5215840000000 1.0
C      1  0.5226380000000  0.4610450000000  0.4739780000000 1.0
C      1  0.4551950000000  0.5003310000000  0.4735520000000 1.0
C      1  0.5229350000000  0.5390950000000  0.4744520000000 1.0
C      1  0.4205300000000  0.5278330000000  0.5336150000000 1.0
C      1  0.5635080000000  0.5543060000000  0.5351810000000 1.0
C      1  0.5149520000000  0.4172410000000  0.5338760000000 1.0
C      1  0.5684550000000  0.5570460000000  0.5052090000000 1.0
C      1  0.5151380000000  0.4121150000000  0.5038100000000 1.0
C      1  0.4162830000000  0.5307630000000  0.5035540000000 1.0
C      1  0.5206450000000  0.5458230000000  0.5025400000000 1.0
C      1  0.5293420000000  0.4591710000000  0.5021020000000 1.0
C      1  0.4499530000000  0.4949690000000  0.5015380000000 1.0
C      1  0.5677560000000  0.5260330000000  0.4633710000000 1.0
C      1  0.4890260000000  0.4289600000000  0.4620110000000 1.0
C      1  0.4443220000000  0.5456850000000  0.4622760000000 1.0
C      1  0.4399740000000  0.4953960000000  0.4368190000000 1.0
C      1  0.5266180000000  0.5553870000000  0.4380340000000 1.0
C      1  0.5352530000000  0.4503500000000  0.4374840000000 1.0
C      1  0.4373900000000  0.5437600000000  0.4903490000000 1.0
C      1  0.5692860000000  0.5325050000000  0.4915780000000 1.0
C      1  0.4935980000000  0.4239040000000  0.4901780000000 1.0
C      1  0.5614570000000  0.4604080000000  0.4986680000000 1.0
C      1  0.4350040000000  0.4666030000000  0.4974620000000 1.0
C      1  0.5035890000000  0.5730200000000  0.4987790000000 1.0
C      1  0.4951920000000  0.5768930000000  0.5264260000000 1.0
C      1  0.5687450000000  0.4652560000000  0.5264750000000 1.0
C      1  0.4352960000000  0.4573800000000  0.5251150000000 1.0
C      1  0.4561960000000  0.5207660000000  0.4495750000000 1.0
C      1  0.5403610000000  0.5284330000000  0.4504490000000 1.0
C      1  0.5049220000000  0.4517080000000  0.4496370000000 1.0
C      1  0.4724320000000  0.4781210000000  0.4692830000000 1.0
C      1  0.4951240000000  0.5353480000000  0.4698510000000 1.0
C      1  0.5333380000000  0.4870800000000  0.4699360000000 1.0
C      1  0.5279770000000  0.5059430000000  0.5150650000000 1.0
C      1  0.4910190000000  0.4725390000000  0.5144990000000 1.0
C      1  0.4805690000000  0.5212500000000  0.5146910000000 1.0
C      1  0.5605270000000  0.4866420000000  0.4836370000000 1.0
C      1  0.4583320000000  0.4545570000000  0.4824390000000 1.0
C      1  0.4816390000000  0.5591070000000  0.4832990000000 1.0
C      1  0.5155380000000  0.4980100000000  0.5788830000000 1.0
C      1  0.4897590000000  0.4861550000000  0.5785580000000 1.0
C      1  0.4923810000000  0.5144090000000  0.5787540000000 1.0
C      1  0.5590490000000  0.5070470000000  0.5056360000000 1.0
C      1  0.4765330000000  0.4452490000000  0.5044520000000 1.0
C      1  0.4642700000000  0.5476140000000  0.5049490000000 1.0
C      1  0.5105910000000  0.5451450000000  0.5491760000000 1.0
C      1  0.5333360000000  0.4673960000000  0.5489300000000 1.0
C      1  0.4546340000000  0.4865760000000  0.5482720000000 1.0
C      1  0.5697600000000  0.4933470000000  0.5302210000000 1.0
C      1  0.4590800000000  0.4423920000000  0.5288250000000 1.0
C      1  0.4702880000000  0.5637260000000  0.5296680000000 1.0
C      1  0.5767470000000  0.4984180000000  0.4602560000000 1.0
C      1  0.4606460000000  0.4350360000000  0.4587310000000 1.0
C      1  0.4638010000000  0.5672790000000  0.4595610000000 1.0
END
