TITL C-148551-4643-3 -7.04686044891054 125000 -161.010111299766 0 0 24 (Td) n - 1
REM
REM in /rds/project/t2_vol4/rds-t2-cs072/BORA/CARBON/from-Arr/AIRSS/Generating-Clusters/GAP-ML-2020/Higher-Symm/SD-CG/HFTN-CG
REM
REM
REM
REM
REM
REM ./C.cell (b20cbc046b6831c77cfcea5457e17084)
REM AIRSS Version 0.9.1 bugfix July 2018 build 013d7b7c2542+ Fri, 06 Jul 2018 19:26:36 +0100
REM compiler GCC version 9.3.0
REM options -cpp -mtune=generic -march=x86-64 -g -O0
REM seed 277177201 -1360382601 -1742455595 -1756920963 -384264871 749326002 1828282724 -323313705 782974687 -1892474747 -973986886 589609760 536750000 -1853212762 1139245969 -1876104061 -2084271988 1449435350 -1467013228 -401785235 -1829500619 1723698463 -776991120 -617329646 1929461289 183641436 -1632113598 -1669735890 -872459605 366638457 -814249364 -1112868987 -262317768
REM
CELL 1.54180   50.00000   50.00000   50.00000   90.00000   90.00000   90.00000
LATT -1
SFAC C  
C      1  0.5058990000000  0.4403590000000  0.4972420000000 1.0
C      1  0.4420440000000  0.4949090000000  0.5146510000000 1.0
C      1  0.4863680000000  0.5026700000000  0.4416350000000 1.0
C      1  0.5117590000000  0.5588180000000  0.5012910000000 1.0
C      1  0.4897920000000  0.4431610000000  0.5162670000000 1.0
C      1  0.4925500000000  0.5576620000000  0.4851990000000 1.0
C      1  0.4411450000000  0.5105380000000  0.4950510000000 1.0
C      1  0.5573050000000  0.4874830000000  0.4873910000000 1.0
C      1  0.5595070000000  0.5070700000000  0.5029070000000 1.0
C      1  0.4959740000000  0.4981540000000  0.5598320000000 1.0
C      1  0.5142840000000  0.5149380000000  0.5563230000000 1.0
C      1  0.5033740000000  0.4842380000000  0.4422100000000 1.0
C      1  0.5308350000000  0.5297290000000  0.5409100000000 1.0
C      1  0.5297920000000  0.5478580000000  0.5181730000000 1.0
C      1  0.5495190000000  0.5264780000000  0.5188410000000 1.0
C      1  0.5207980000000  0.4678630000000  0.4548020000000 1.0
C      1  0.4710700000000  0.5217580000000  0.4531190000000 1.0
C      1  0.4772970000000  0.4806490000000  0.5511700000000 1.0
C      1  0.5218420000000  0.4497340000000  0.4775390000000 1.0
C      1  0.4736240000000  0.5444790000000  0.4711180000000 1.0
C      1  0.4747420000000  0.4579290000000  0.5331710000000 1.0
C      1  0.5430800000000  0.4692040000000  0.4734680000000 1.0
C      1  0.4523850000000  0.5250090000000  0.4751880000000 1.0
C      1  0.4550150000000  0.4793090000000  0.5325030000000 1.0
END
