TITL C-140543-9530-12 -134.246837941327 125000 -903.653066853893 0 0 129 (C2) n - 1
REM
REM in /rds/project/t2_vol4/rds-t2-cs072/BORA/CARBON/from-Arr/AIRSS/Generating-Clusters/GAP-ML-2020/Higher-Symm/SD-CG/HFTN-CG
REM
REM
REM
REM
REM
REM ./C.cell (b20cbc046b6831c77cfcea5457e17084)
REM AIRSS Version 0.9.1 bugfix July 2018 build 013d7b7c2542+ Fri, 06 Jul 2018 19:26:36 +0100
REM compiler GCC version 9.3.0
REM options -cpp -mtune=generic -march=x86-64 -g -O0
REM seed 718146149 -770412345 1389754610 746424128 -276128087 227879058 1006821179 840817853 -1107660044 -1608367336 -1636367995 1829727254 252163205 -1008541677 926702645 -1207812816 112674051 1603524896 1617626703 -1867812335 1508393635 458606911 -2030220530 2002702945 -1343700381 1914802060 2138888503 1106284694 -584449792 -1735197736 843672782 1309387313 -604800794
REM
CELL 1.54180   50.00000   50.00000   50.00000   90.00000   90.00000   90.00000
LATT -1
SFAC C  
C      1  0.4352610000000  0.5363320000000  0.4968460000000 1.0
C      1  0.5645250000000  0.5351830000000  0.5027130000000 1.0
C      1  0.4348990000000  0.4646100000000  0.5059680000000 1.0
C      1  0.5636700000000  0.4635840000000  0.4932580000000 1.0
C      1  0.5076510000000  0.5097880000000  0.4499200000000 1.0
C      1  0.4899960000000  0.5135480000000  0.5520290000000 1.0
C      1  0.5101110000000  0.4899100000000  0.5489790000000 1.0
C      1  0.4870070000000  0.4864940000000  0.4479520000000 1.0
C      1  0.5556540000000  0.4234660000000  0.5154320000000 1.0
C      1  0.4486690000000  0.4232120000000  0.4822490000000 1.0
C      1  0.5560220000000  0.5754400000000  0.4809770000000 1.0
C      1  0.4509650000000  0.5774820000000  0.5197840000000 1.0
C      1  0.4955240000000  0.4670800000000  0.5360340000000 1.0
C      1  0.5001880000000  0.4622110000000  0.4531540000000 1.0
C      1  0.4941580000000  0.5328550000000  0.4636100000000 1.0
C      1  0.5032890000000  0.5376070000000  0.5461250000000 1.0
C      1  0.5040410000000  0.5458240000000  0.5925440000000 1.0
C      1  0.4996710000000  0.5338850000000  0.4104900000000 1.0
C      1  0.4983400000000  0.4540040000000  0.4067630000000 1.0
C      1  0.5038270000000  0.4659330000000  0.5887880000000 1.0
C      1  0.4476230000000  0.4998200000000  0.4284220000000 1.0
C      1  0.5470870000000  0.5029590000000  0.5714030000000 1.0
C      1  0.4514820000000  0.5008790000000  0.5736250000000 1.0
C      1  0.5431620000000  0.4961270000000  0.4255750000000 1.0
C      1  0.4476450000000  0.5274370000000  0.4257330000000 1.0
C      1  0.5491610000000  0.5306630000000  0.5735450000000 1.0
C      1  0.4511820000000  0.4732640000000  0.5763210000000 1.0
C      1  0.5446520000000  0.4683940000000  0.4233380000000 1.0
C      1  0.5308440000000  0.4380870000000  0.5514420000000 1.0
C      1  0.4656080000000  0.4362370000000  0.4347800000000 1.0
C      1  0.5290950000000  0.5612550000000  0.4463390000000 1.0
C      1  0.4701740000000  0.5641530000000  0.5662940000000 1.0
C      1  0.4734050000000  0.5396750000000  0.4212830000000 1.0
C      1  0.5285130000000  0.5514250000000  0.5826370000000 1.0
C      1  0.4769310000000  0.4605910000000  0.5794050000000 1.0
C      1  0.5232040000000  0.4479870000000  0.4153620000000 1.0
C      1  0.4924140000000  0.5821310000000  0.5620760000000 1.0
C      1  0.5173510000000  0.5470340000000  0.4744690000000 1.0
C      1  0.4877340000000  0.4178840000000  0.4378210000000 1.0
C      1  0.5178670000000  0.4525170000000  0.5239680000000 1.0
C      1  0.4382060000000  0.5663660000000  0.4957880000000 1.0
C      1  0.5633400000000  0.5642140000000  0.5060810000000 1.0
C      1  0.4373880000000  0.4345300000000  0.5068820000000 1.0
C      1  0.5618200000000  0.4345780000000  0.4899700000000 1.0
C      1  0.5154470000000  0.3961070000000  0.4976670000000 1.0
C      1  0.4882090000000  0.3985650000000  0.5063700000000 1.0
C      1  0.5172800000000  0.6034650000000  0.5008350000000 1.0
C      1  0.4895810000000  0.6014700000000  0.4935890000000 1.0
C      1  0.4456540000000  0.4398600000000  0.4572480000000 1.0
C      1  0.5573810000000  0.4404950000000  0.5392020000000 1.0
C      1  0.4489990000000  0.5608770000000  0.5449170000000 1.0
C      1  0.5561990000000  0.5583950000000  0.4571570000000 1.0
C      1  0.5200110000000  0.5180730000000  0.5121560000000 1.0
C      1  0.4801210000000  0.5155200000000  0.4833900000000 1.0
C      1  0.5190140000000  0.4814460000000  0.4861800000000 1.0
C      1  0.4807530000000  0.4846570000000  0.5170180000000 1.0
C      1  0.4428080000000  0.5074680000000  0.5457610000000 1.0
C      1  0.5555680000000  0.5033530000000  0.4519470000000 1.0
C      1  0.4403270000000  0.4933660000000  0.4567090000000 1.0
C      1  0.5579540000000  0.4955380000000  0.5444140000000 1.0
C      1  0.4843650000000  0.5496380000000  0.5076550000000 1.0
C      1  0.5075020000000  0.5427170000000  0.5203830000000 1.0
C      1  0.4831290000000  0.4504840000000  0.4925780000000 1.0
C      1  0.5056720000000  0.4570200000000  0.4786390000000 1.0
C      1  0.5817540000000  0.5270370000000  0.4795780000000 1.0
C      1  0.4182060000000  0.5294750000000  0.5200930000000 1.0
C      1  0.5822360000000  0.4714280000000  0.5154440000000 1.0
C      1  0.4167530000000  0.4717640000000  0.4836550000000 1.0
C      1  0.4262010000000  0.4834750000000  0.5320250000000 1.0
C      1  0.5710110000000  0.4807470000000  0.4671500000000 1.0
C      1  0.4248790000000  0.5176280000000  0.4712960000000 1.0
C      1  0.5729480000000  0.5178870000000  0.5284030000000 1.0
C      1  0.4778610000000  0.5437250000000  0.5866060000000 1.0
C      1  0.5225030000000  0.5455700000000  0.4218370000000 1.0
C      1  0.4725500000000  0.4565410000000  0.4140800000000 1.0
C      1  0.5258250000000  0.4538700000000  0.5762520000000 1.0
C      1  0.5306000000000  0.5033190000000  0.4690580000000 1.0
C      1  0.4686460000000  0.5084220000000  0.5298250000000 1.0
C      1  0.5321190000000  0.4960000000000  0.5286500000000 1.0
C      1  0.4669540000000  0.4919690000000  0.4712530000000 1.0
C      1  0.5215670000000  0.5753300000000  0.5670820000000 1.0
C      1  0.4774240000000  0.5515890000000  0.4464880000000 1.0
C      1  0.5166910000000  0.4241960000000  0.4312740000000 1.0
C      1  0.4794080000000  0.4486220000000  0.5540280000000 1.0
C      1  0.4277670000000  0.5370770000000  0.4466250000000 1.0
C      1  0.5690610000000  0.5381920000000  0.5525950000000 1.0
C      1  0.4300650000000  0.4639700000000  0.5565160000000 1.0
C      1  0.5655050000000  0.4605210000000  0.4432070000000 1.0
C      1  0.5187140000000  0.6009310000000  0.5292120000000 1.0
C      1  0.4887630000000  0.5915200000000  0.4666900000000 1.0
C      1  0.5154190000000  0.3986290000000  0.4692540000000 1.0
C      1  0.4889860000000  0.4085150000000  0.5332710000000 1.0
C      1  0.4741460000000  0.5169960000000  0.5782060000000 1.0
C      1  0.5212460000000  0.5168180000000  0.4236540000000 1.0
C      1  0.4697370000000  0.4833250000000  0.4226530000000 1.0
C      1  0.5249580000000  0.4826400000000  0.5744920000000 1.0
C      1  0.4237130000000  0.4377360000000  0.5535940000000 1.0
C      1  0.5759360000000  0.4353730000000  0.4431290000000 1.0
C      1  0.4220220000000  0.5634130000000  0.4498680000000 1.0
C      1  0.5799030000000  0.5631610000000  0.5521090000000 1.0
C      1  0.4672450000000  0.5759380000000  0.4572820000000 1.0
C      1  0.5368740000000  0.5864480000000  0.5455310000000 1.0
C      1  0.4682620000000  0.4244540000000  0.5438000000000 1.0
C      1  0.5329290000000  0.4128110000000  0.4519880000000 1.0
C      1  0.4328940000000  0.5367220000000  0.5428430000000 1.0
C      1  0.5684250000000  0.5325320000000  0.4558280000000 1.0
C      1  0.4300900000000  0.4642810000000  0.4601620000000 1.0
C      1  0.5700940000000  0.4661470000000  0.5398690000000 1.0
C      1  0.4405380000000  0.5741330000000  0.4684250000000 1.0
C      1  0.5609180000000  0.5729840000000  0.5339980000000 1.0
C      1  0.4410360000000  0.4267130000000  0.5340870000000 1.0
C      1  0.5577750000000  0.4258630000000  0.4622250000000 1.0
C      1  0.5345350000000  0.4726560000000  0.5083420000000 1.0
C      1  0.4647370000000  0.4722760000000  0.4958200000000 1.0
C      1  0.5344820000000  0.5266100000000  0.4891990000000 1.0
C      1  0.4654630000000  0.5281600000000  0.5054020000000 1.0
C      1  0.4730340000000  0.5965630000000  0.5176710000000 1.0
C      1  0.5336520000000  0.5932510000000  0.4794340000000 1.0
C      1  0.4704940000000  0.4037610000000  0.4831970000000 1.0
C      1  0.5331010000000  0.4060340000000  0.5181660000000 1.0
C      1  0.5899200000000  0.4976770000000  0.5113200000000 1.0
C      1  0.4080780000000  0.4983280000000  0.4880930000000 1.0
C      1  0.5892020000000  0.5006600000000  0.4833010000000 1.0
C      1  0.4088620000000  0.5030640000000  0.5161320000000 1.0
C      1  0.5162680000000  0.5860430000000  0.4584010000000 1.0
C      1  0.4916910000000  0.5987200000000  0.5391330000000 1.0
C      1  0.5169790000000  0.4135250000000  0.5400880000000 1.0
C      1  0.4879480000000  0.4013000000000  0.4607780000000 1.0
C      1  0.4998220000000  0.4999250000000  0.4996900000000 1.0
END
