TITL C-149051-9493-10 0.0235327751021235 125000 -143.365046038192 0 0 22 (C1) n - 1
REM
REM in /rds/project/t2_vol4/rds-t2-cs072/BORA/CARBON/from-Arr/AIRSS/Generating-Clusters/GAP-ML-2020/Higher-Symm/SD-CG/HFTN-CG
REM
REM
REM
REM
REM
REM ./C.cell (b20cbc046b6831c77cfcea5457e17084)
REM AIRSS Version 0.9.1 bugfix July 2018 build 013d7b7c2542+ Fri, 06 Jul 2018 19:26:36 +0100
REM compiler GCC version 9.3.0
REM options -cpp -mtune=generic -march=x86-64 -g -O0
REM seed 114954096 904594705 1043829373 1241759218 -923013181 214552011 2021604242 1725496813 2029404564 1636586167 -964943038 15688107 545336877 813546265 1703168069 -986793581 -272893190 1761081908 -1488881483 -290962312 -423360208 1878713028 1741116838 -74436392 -1668082404 1910180456 941485823 2043007479 1732305001 -425957217 839322824 -1946110137 619162122
REM
CELL 1.54180   50.00000   50.00000   50.00000   90.00000   90.00000   90.00000
LATT -1
SFAC C  
C      1  0.4434200000000  0.5212470000000  0.5145430000000 1.0
C      1  0.4819560000000  0.5219980000000  0.4830680000000 1.0
C      1  0.5427060000000  0.4745740000000  0.4841630000000 1.0
C      1  0.4872660000000  0.5342520000000  0.5289270000000 1.0
C      1  0.5036290000000  0.4892990000000  0.4520850000000 1.0
C      1  0.4337670000000  0.4786870000000  0.5061000000000 1.0
C      1  0.5557640000000  0.4972000000000  0.4914660000000 1.0
C      1  0.5322220000000  0.5338070000000  0.5167620000000 1.0
C      1  0.4548950000000  0.4669080000000  0.4989740000000 1.0
C      1  0.4253480000000  0.5032020000000  0.5130730000000 1.0
C      1  0.5198700000000  0.4719900000000  0.4653240000000 1.0
C      1  0.5262130000000  0.4597920000000  0.5049300000000 1.0
C      1  0.4780540000000  0.4712810000000  0.4858950000000 1.0
C      1  0.5114170000000  0.5352630000000  0.5360820000000 1.0
C      1  0.5279410000000  0.4704990000000  0.5304060000000 1.0
C      1  0.4689060000000  0.5278930000000  0.5086680000000 1.0
C      1  0.5254810000000  0.5476760000000  0.4918890000000 1.0
C      1  0.4820290000000  0.4963910000000  0.4706410000000 1.0
C      1  0.5038250000000  0.4583200000000  0.4862730000000 1.0
C      1  0.5055130000000  0.5384370000000  0.4795090000000 1.0
C      1  0.5476470000000  0.5099880000000  0.5155110000000 1.0
C      1  0.5421320000000  0.4912960000000  0.5357080000000 1.0
END
