TITL C-140555-1411-6 -105.287622274491 125000 -326.056969198466 0 0 47 (C1) n - 1
REM
REM in /rds/project/t2_vol4/rds-t2-cs072/BORA/CARBON/from-Arr/AIRSS/Generating-Clusters/GAP-ML-2020/Higher-Symm/SD-CG/HFTN-CG
REM
REM
REM
REM
REM
REM ./C.cell (b20cbc046b6831c77cfcea5457e17084)
REM AIRSS Version 0.9.1 bugfix July 2018 build 013d7b7c2542+ Fri, 06 Jul 2018 19:26:36 +0100
REM compiler GCC version 9.3.0
REM options -cpp -mtune=generic -march=x86-64 -g -O0
REM seed -1095181887 -1683273077 417191190 -1163953223 933068760 -637923308 -342032738 -285351770 2007849041 341133194 -483655609 587855585 1066515521 -1547729816 1373429442 -879693002 -1708389859 -1653276786 70665917 -853523025 57198660 -602325969 -1119302614 -16455194 -511350231 307899640 -631094707 -14133898 2142057777 144520553 1974229289 210129828 -658794178
REM
CELL 1.54180   50.00000   50.00000   50.00000   90.00000   90.00000   90.00000
LATT -1
SFAC C  
C      1  0.4401360000000  0.4636760000000  0.5021470000000 1.0
C      1  0.4721770000000  0.4285760000000  0.5089960000000 1.0
C      1  0.4997710000000  0.4281830000000  0.5089480000000 1.0
C      1  0.5367480000000  0.4570930000000  0.4985540000000 1.0
C      1  0.5921020000000  0.4806380000000  0.5035500000000 1.0
C      1  0.5664200000000  0.5205460000000  0.5021700000000 1.0
C      1  0.5441620000000  0.5628690000000  0.5076220000000 1.0
C      1  0.5183390000000  0.5724450000000  0.5073760000000 1.0
C      1  0.4743110000000  0.5532230000000  0.5022980000000 1.0
C      1  0.4310610000000  0.5325960000000  0.5081430000000 1.0
C      1  0.4203280000000  0.5071900000000  0.5078190000000 1.0
C      1  0.5339840000000  0.4283040000000  0.5398910000000 1.0
C      1  0.5673040000000  0.4621970000000  0.5386540000000 1.0
C      1  0.5903460000000  0.5061910000000  0.5426010000000 1.0
C      1  0.5749560000000  0.5523240000000  0.5403870000000 1.0
C      1  0.5375320000000  0.5873300000000  0.5468740000000 1.0
C      1  0.4866140000000  0.5856000000000  0.5384870000000 1.0
C      1  0.4430450000000  0.5644270000000  0.5396870000000 1.0
C      1  0.4095610000000  0.5261850000000  0.5489100000000 1.0
C      1  0.4119210000000  0.4752830000000  0.5410670000000 1.0
C      1  0.4394880000000  0.4346620000000  0.5420220000000 1.0
C      1  0.4856650000000  0.4133440000000  0.5508410000000 1.0
C      1  0.5793560000000  0.5273490000000  0.5282830000000 1.0
C      1  0.5557470000000  0.5697530000000  0.5326350000000 1.0
C      1  0.5129630000000  0.5857260000000  0.5318650000000 1.0
C      1  0.4671000000000  0.5696110000000  0.5264770000000 1.0
C      1  0.4256910000000  0.5445390000000  0.5334720000000 1.0
C      1  0.4100070000000  0.5014910000000  0.5338250000000 1.0
C      1  0.4280390000000  0.4562320000000  0.5283250000000 1.0
C      1  0.4629970000000  0.4225880000000  0.5353770000000 1.0
C      1  0.5087350000000  0.4201770000000  0.5346180000000 1.0
C      1  0.5474250000000  0.4485470000000  0.5253770000000 1.0
C      1  0.5856510000000  0.4811660000000  0.5313600000000 1.0
C      1  0.4868970000000  0.4649630000000  0.4840100000000 1.0
C      1  0.5102230000000  0.4493530000000  0.4934060000000 1.0
C      1  0.5480770000000  0.4786440000000  0.4833060000000 1.0
C      1  0.5707690000000  0.4939900000000  0.4923170000000 1.0
C      1  0.5457490000000  0.5380300000000  0.4939650000000 1.0
C      1  0.5183750000000  0.5329660000000  0.4839480000000 1.0
C      1  0.5012980000000  0.5540130000000  0.4943620000000 1.0
C      1  0.4560480000000  0.5331280000000  0.4946420000000 1.0
C      1  0.4608050000000  0.5058050000000  0.4851840000000 1.0
C      1  0.4379440000000  0.4901790000000  0.4937890000000 1.0
C      1  0.4635200000000  0.4508120000000  0.4940940000000 1.0
C      1  0.4854950000000  0.4931090000000  0.4792080000000 1.0
C      1  0.5316100000000  0.4914860000000  0.4661480000000 1.0
C      1  0.5104620000000  0.5074620000000  0.4741010000000 1.0
END
