TITL C-148550-4646-3 0.746369474544602 125000 -808.370162747244 0 0 116 (C3) n - 1
REM
REM in /rds/project/t2_vol4/rds-t2-cs072/BORA/CARBON/from-Arr/AIRSS/Generating-Clusters/GAP-ML-2020/Higher-Symm/SD-CG/HFTN-CG
REM
REM
REM
REM
REM
REM ./C.cell (b20cbc046b6831c77cfcea5457e17084)
REM AIRSS Version 0.9.1 bugfix July 2018 build 013d7b7c2542+ Fri, 06 Jul 2018 19:26:36 +0100
REM compiler GCC version 9.3.0
REM options -cpp -mtune=generic -march=x86-64 -g -O0
REM seed 842212684 -1027876722 1505927401 -2039648932 1397129071 1076576483 1970870214 642374388 1101590500 -1350011037 -1786563328 1101170684 -830115102 415256211 586269212 101070855 -1207233664 914584812 -1046890360 -2073167571 -1070975360 -1191093232 -1880856855 -239827315 -405666597 1747008860 1368179510 -321874004 -656257681 -1794147744 367570579 -1673639311 78118309
REM
CELL 1.54180   50.00000   50.00000   50.00000   90.00000   90.00000   90.00000
LATT -1
SFAC C  
C      1  0.5786120000000  0.4827740000000  0.5339190000000 1.0
C      1  0.4457960000000  0.4410050000000  0.5339160000000 1.0
C      1  0.4760300000000  0.5769120000000  0.5339170000000 1.0
C      1  0.4483740000000  0.4228740000000  0.5139070000000 1.0
C      1  0.4590400000000  0.5837440000000  0.5139070000000 1.0
C      1  0.5930240000000  0.4940730000000  0.5139100000000 1.0
C      1  0.5205080000000  0.5760930000000  0.4583900000000 1.0
C      1  0.5556660000000  0.4446660000000  0.4583910000000 1.0
C      1  0.4242680000000  0.4799320000000  0.4583880000000 1.0
C      1  0.4929090000000  0.5450350000000  0.4928710000000 1.0
C      1  0.5425680000000  0.4840960000000  0.4928720000000 1.0
C      1  0.4649630000000  0.4715600000000  0.4928700000000 1.0
C      1  0.5591240000000  0.4997620000000  0.5505140000000 1.0
C      1  0.4702510000000  0.4493880000000  0.5505130000000 1.0
C      1  0.4710620000000  0.5515410000000  0.5505130000000 1.0
C      1  0.4736770000000  0.5080990000000  0.4152910000000 1.0
C      1  0.5201980000000  0.5192210000000  0.4152920000000 1.0
C      1  0.5065700000000  0.4733720000000  0.4152920000000 1.0
C      1  0.4967550000000  0.5162070000000  0.5871460000000 1.0
C      1  0.5156750000000  0.4951780000000  0.5871460000000 1.0
C      1  0.4880030000000  0.4893070000000  0.5871460000000 1.0
C      1  0.4960170000000  0.4321000000000  0.4430520000000 1.0
C      1  0.4432110000000  0.5378720000000  0.4430510000000 1.0
C      1  0.5612150000000  0.5307180000000  0.4430530000000 1.0
C      1  0.4222430000000  0.4788370000000  0.5512270000000 1.0
C      1  0.5205690000000  0.5783920000000  0.5512290000000 1.0
C      1  0.5576230000000  0.4434620000000  0.5512300000000 1.0
C      1  0.5561040000000  0.5685500000000  0.5190130000000 1.0
C      1  0.5313340000000  0.4176100000000  0.5190120000000 1.0
C      1  0.4130010000000  0.5145310000000  0.5190100000000 1.0
C      1  0.4545310000000  0.5115490000000  0.4364190000000 1.0
C      1  0.5327590000000  0.5340760000000  0.4364210000000 1.0
C      1  0.5131540000000  0.4550650000000  0.4364210000000 1.0
C      1  0.4547010000000  0.4982440000000  0.4871320000000 1.0
C      1  0.5211500000000  0.5405800000000  0.4871330000000 1.0
C      1  0.5245890000000  0.4618660000000  0.4871330000000 1.0
C      1  0.4284890000000  0.5254710000000  0.5597610000000 1.0
C      1  0.5578320000000  0.5496670000000  0.5597630000000 1.0
C      1  0.5141150000000  0.4255540000000  0.5597620000000 1.0
C      1  0.4823980000000  0.4768260000000  0.5404810000000 1.0
C      1  0.4887510000000  0.5273020000000  0.5404810000000 1.0
C      1  0.5292880000000  0.4965630000000  0.5404820000000 1.0
C      1  0.5412680000000  0.5639650000000  0.4754720000000 1.0
C      1  0.5347820000000  0.4327510000000  0.4754720000000 1.0
C      1  0.4243910000000  0.5039750000000  0.4754690000000 1.0
C      1  0.5429780000000  0.4572510000000  0.4375610000000 1.0
C      1  0.4415110000000  0.4846280000000  0.4375590000000 1.0
C      1  0.5159540000000  0.5588120000000  0.4375600000000 1.0
C      1  0.5486240000000  0.5051350000000  0.4742620000000 1.0
C      1  0.4801570000000  0.4557960000000  0.4742610000000 1.0
C      1  0.4716610000000  0.5397600000000  0.4742600000000 1.0
C      1  0.4892110000000  0.5447120000000  0.5761830000000 1.0
C      1  0.5441340000000  0.4874590000000  0.5761840000000 1.0
C      1  0.4670900000000  0.4685210000000  0.5761820000000 1.0
C      1  0.4718610000000  0.5806730000000  0.4674870000000 1.0
C      1  0.5839560000000  0.4845060000000  0.4674890000000 1.0
C      1  0.4446250000000  0.4355120000000  0.4674860000000 1.0
C      1  0.4245820000000  0.4597460000000  0.5294450000000 1.0
C      1  0.5028680000000  0.5859130000000  0.5294460000000 1.0
C      1  0.5729880000000  0.4550320000000  0.5294480000000 1.0
C      1  0.4797320000000  0.4803810000000  0.4140620000000 1.0
C      1  0.4931660000000  0.5278360000000  0.4140620000000 1.0
C      1  0.5275460000000  0.4924740000000  0.4140630000000 1.0
C      1  0.4685400000000  0.5036720000000  0.5428850000000 1.0
C      1  0.5189290000000  0.5258800000000  0.5428860000000 1.0
C      1  0.5129680000000  0.4711390000000  0.5428860000000 1.0
C      1  0.5075400000000  0.4217250000000  0.4670800000000 1.0
C      1  0.4284630000000  0.5330800000000  0.4670790000000 1.0
C      1  0.5644380000000  0.5458850000000  0.4670820000000 1.0
C      1  0.4421570000000  0.5443680000000  0.5440210000000 1.0
C      1  0.5673640000000  0.5283810000000  0.5440240000000 1.0
C      1  0.4909150000000  0.4279420000000  0.5440220000000 1.0
C      1  0.4140220000000  0.5059780000000  0.5451730000000 1.0
C      1  0.5481850000000  0.5719410000000  0.5451760000000 1.0
C      1  0.5382300000000  0.4227720000000  0.5451750000000 1.0
C      1  0.4100610000000  0.4952560000000  0.4989620000000 1.0
C      1  0.5408810000000  0.5807340000000  0.4989650000000 1.0
C      1  0.5494970000000  0.4247010000000  0.4989650000000 1.0
C      1  0.5457600000000  0.4592890000000  0.5725810000000 1.0
C      1  0.4418810000000  0.4811970000000  0.5725780000000 1.0
C      1  0.5127930000000  0.5602050000000  0.5725800000000 1.0
C      1  0.5697420000000  0.5262400000000  0.4882170000000 1.0
C      1  0.4878740000000  0.4269540000000  0.4882150000000 1.0
C      1  0.4428240000000  0.5474970000000  0.4882140000000 1.0
C      1  0.5651660000000  0.4998470000000  0.4485240000000 1.0
C      1  0.4673060000000  0.4441140000000  0.4485220000000 1.0
C      1  0.4679710000000  0.5567300000000  0.4485220000000 1.0
C      1  0.5329200000000  0.5405750000000  0.5683080000000 1.0
C      1  0.5186970000000  0.4516740000000  0.5683070000000 1.0
C      1  0.4488180000000  0.5084420000000  0.5683060000000 1.0
C      1  0.4607240000000  0.4654840000000  0.4295250000000 1.0
C      1  0.4897690000000  0.5517460000000  0.4295250000000 1.0
C      1  0.5499510000000  0.4834610000000  0.4295270000000 1.0
C      1  0.4524760000000  0.5763320000000  0.4889890000000 1.0
C      1  0.5898880000000  0.5034640000000  0.4889930000000 1.0
C      1  0.4580760000000  0.4208950000000  0.4889900000000 1.0
C      1  0.5750750000000  0.4572410000000  0.4755040000000 1.0
C      1  0.4254530000000  0.4568350000000  0.4755010000000 1.0
C      1  0.4999130000000  0.5866150000000  0.4755020000000 1.0
C      1  0.4578140000000  0.5129610000000  0.5138980000000 1.0
C      1  0.5323380000000  0.5305260000000  0.5139000000000 1.0
C      1  0.5102870000000  0.4572040000000  0.5138990000000 1.0
C      1  0.5021190000000  0.4284470000000  0.5156510000000 1.0
C      1  0.4369940000000  0.5344130000000  0.5156490000000 1.0
C      1  0.5613260000000  0.5378300000000  0.5156520000000 1.0
C      1  0.4855850000000  0.5242030000000  0.5109880000000 1.0
C      1  0.5281880000000  0.5008540000000  0.5109880000000 1.0
C      1  0.4866660000000  0.4756340000000  0.5109880000000 1.0
C      1  0.5232690000000  0.5191270000000  0.4660450000000 1.0
C      1  0.5049510000000  0.4707580000000  0.4660440000000 1.0
C      1  0.4722220000000  0.5108060000000  0.4660430000000 1.0
C      1  0.5706080000000  0.4442300000000  0.5020770000000 1.0
C      1  0.4164180000000  0.4672090000000  0.5020740000000 1.0
C      1  0.5134140000000  0.5892520000000  0.5020760000000 1.0
C      1  0.5001470000000  0.5002300000000  0.4701850000000 1.0
C      1  0.5001470000000  0.5002300000000  0.5014220000000 1.0
END
