TITL C-140569-2081-8 77.327888587682 125000 -905.869938869684 0 0 131 (C1) n - 1
REM
REM in /rds/project/t2_vol4/rds-t2-cs072/BORA/CARBON/from-Arr/AIRSS/Generating-Clusters/GAP-ML-2020/Higher-Symm/SD-CG/HFTN-CG
REM
REM
REM
REM
REM
REM ./C.cell (b20cbc046b6831c77cfcea5457e17084)
REM AIRSS Version 0.9.1 bugfix July 2018 build 013d7b7c2542+ Fri, 06 Jul 2018 19:26:36 +0100
REM compiler GCC version 9.3.0
REM options -cpp -mtune=generic -march=x86-64 -g -O0
REM seed 1894887189 927278947 -2093611462 540768486 173323960 -1753124028 -384602822 -958825547 530117417 -10542980 778712734 -336216644 -49457827 -755470051 -124186813 -1739534571 269682229 897753450 1294262078 2088791428 -434026280 -1038874407 447823707 -1290089490 -2121963139 -1286230964 -1123622192 -1077442977 1792081723 -543022122 -1130752971 1867775638 -222491919
REM
CELL 1.54180   50.00000   50.00000   50.00000   90.00000   90.00000   90.00000
LATT -1
SFAC C  
C      1  0.4471630000000  0.4414380000000  0.5548740000000 1.0
C      1  0.4453790000000  0.4813310000000  0.4225790000000 1.0
C      1  0.4448110000000  0.5764210000000  0.5234620000000 1.0
C      1  0.5228360000000  0.4107100000000  0.5151150000000 1.0
C      1  0.5184460000000  0.5329480000000  0.4130880000000 1.0
C      1  0.5202050000000  0.5597770000000  0.5701860000000 1.0
C      1  0.5442990000000  0.4705260000000  0.4570590000000 1.0
C      1  0.5438780000000  0.5538220000000  0.4929870000000 1.0
C      1  0.5435700000000  0.4810060000000  0.5474360000000 1.0
C      1  0.4583610000000  0.4221630000000  0.4802520000000 1.0
C      1  0.4550160000000  0.5559380000000  0.4429450000000 1.0
C      1  0.4568800000000  0.5216720000000  0.5775930000000 1.0
C      1  0.5066950000000  0.4898940000000  0.4030090000000 1.0
C      1  0.5065960000000  0.5900080000000  0.5384150000000 1.0
C      1  0.5095530000000  0.4230100000000  0.5574040000000 1.0
C      1  0.4236730000000  0.4668440000000  0.4336470000000 1.0
C      1  0.4225590000000  0.5733700000000  0.5061570000000 1.0
C      1  0.4247580000000  0.4574420000000  0.5616530000000 1.0
C      1  0.4810000000000  0.5048760000000  0.4453380000000 1.0
C      1  0.4811310000000  0.5458120000000  0.5311950000000 1.0
C      1  0.4825690000000  0.4506590000000  0.5233320000000 1.0
C      1  0.5268940000000  0.5663440000000  0.4485920000000 1.0
C      1  0.5294720000000  0.5122750000000  0.5813420000000 1.0
C      1  0.5314940000000  0.4254180000000  0.4681410000000 1.0
C      1  0.5935050000000  0.5258160000000  0.4669980000000 1.0
C      1  0.5978000000000  0.5251570000000  0.5410620000000 1.0
C      1  0.5986950000000  0.4576380000000  0.5037490000000 1.0
C      1  0.5139580000000  0.5920470000000  0.4912250000000 1.0
C      1  0.5162600000000  0.4628220000000  0.5826550000000 1.0
C      1  0.5157500000000  0.4484780000000  0.4247110000000 1.0
C      1  0.5321220000000  0.5793530000000  0.5314550000000 1.0
C      1  0.5345280000000  0.4349540000000  0.5508640000000 1.0
C      1  0.5322880000000  0.4903490000000  0.4156750000000 1.0
C      1  0.6157360000000  0.4776990000000  0.4913990000000 1.0
C      1  0.6203190000000  0.5028340000000  0.5046020000000 1.0
C      1  0.6160810000000  0.5035470000000  0.5333030000000 1.0
C      1  0.5390220000000  0.4580900000000  0.5655280000000 1.0
C      1  0.5382150000000  0.4662750000000  0.4281420000000 1.0
C      1  0.5371710000000  0.5806860000000  0.5042300000000 1.0
C      1  0.5573790000000  0.5314510000000  0.5103940000000 1.0
C      1  0.5567870000000  0.4775780000000  0.5197800000000 1.0
C      1  0.5560270000000  0.4968110000000  0.4673680000000 1.0
C      1  0.4229830000000  0.5066960000000  0.5391050000000 1.0
C      1  0.4236850000000  0.4620870000000  0.4875480000000 1.0
C      1  0.4222190000000  0.5290340000000  0.4749040000000 1.0
C      1  0.5390750000000  0.4322640000000  0.5231220000000 1.0
C      1  0.5359890000000  0.5158750000000  0.4271810000000 1.0
C      1  0.5368760000000  0.5566480000000  0.5476810000000 1.0
C      1  0.4565020000000  0.4346210000000  0.5263280000000 1.0
C      1  0.4541750000000  0.5097100000000  0.4307410000000 1.0
C      1  0.4546200000000  0.5554060000000  0.5436230000000 1.0
C      1  0.5149850000000  0.4687740000000  0.4633580000000 1.0
C      1  0.5142340000000  0.5485010000000  0.4899150000000 1.0
C      1  0.5144750000000  0.4860920000000  0.5456230000000 1.0
C      1  0.5143640000000  0.5594230000000  0.4233950000000 1.0
C      1  0.5170650000000  0.5374830000000  0.5879730000000 1.0
C      1  0.5197590000000  0.4068800000000  0.4869000000000 1.0
C      1  0.4737480000000  0.4095590000000  0.5233830000000 1.0
C      1  0.4697080000000  0.5252050000000  0.4096600000000 1.0
C      1  0.4710980000000  0.5659220000000  0.5669880000000 1.0
C      1  0.4593790000000  0.4710790000000  0.5893020000000 1.0
C      1  0.4592540000000  0.4371490000000  0.4307780000000 1.0
C      1  0.4568200000000  0.5914240000000  0.4806320000000 1.0
C      1  0.4881920000000  0.5199090000000  0.5304600000000 1.0
C      1  0.4891420000000  0.4633640000000  0.5004880000000 1.0
C      1  0.4877730000000  0.5182600000000  0.4677340000000 1.0
C      1  0.5845240000000  0.4985710000000  0.4616170000000 1.0
C      1  0.5871890000000  0.5337860000000  0.5155460000000 1.0
C      1  0.5847640000000  0.4708240000000  0.5250180000000 1.0
C      1  0.4302670000000  0.5810360000000  0.4795700000000 1.0
C      1  0.4324700000000  0.4766440000000  0.5815840000000 1.0
C      1  0.4325620000000  0.4403080000000  0.4402930000000 1.0
C      1  0.4934330000000  0.5414320000000  0.6023590000000 1.0
C      1  0.4961200000000  0.3925210000000  0.4841050000000 1.0
C      1  0.4904110000000  0.5690320000000  0.4130170000000 1.0
C      1  0.4713500000000  0.4837680000000  0.5516610000000 1.0
C      1  0.4716020000000  0.4638570000000  0.4600310000000 1.0
C      1  0.4703670000000  0.5530140000000  0.4888400000000 1.0
C      1  0.5405480000000  0.5291790000000  0.5364110000000 1.0
C      1  0.5412720000000  0.4558940000000  0.5046390000000 1.0
C      1  0.5390560000000  0.5197660000000  0.4568500000000 1.0
C      1  0.4736210000000  0.4034390000000  0.4955620000000 1.0
C      1  0.4690070000000  0.5524460000000  0.4181550000000 1.0
C      1  0.4712920000000  0.5448960000000  0.5862930000000 1.0
C      1  0.5828860000000  0.4513990000000  0.4794450000000 1.0
C      1  0.5778360000000  0.5454300000000  0.4570410000000 1.0
C      1  0.5810460000000  0.5087040000000  0.5584830000000 1.0
C      1  0.5979720000000  0.4744850000000  0.4683280000000 1.0
C      1  0.6041490000000  0.5247780000000  0.4941660000000 1.0
C      1  0.5976810000000  0.4861000000000  0.5457000000000 1.0
C      1  0.4911040000000  0.5579060000000  0.5078300000000 1.0
C      1  0.4921460000000  0.4653400000000  0.5453340000000 1.0
C      1  0.4916630000000  0.4788350000000  0.4463880000000 1.0
C      1  0.4438240000000  0.5013540000000  0.5174690000000 1.0
C      1  0.4441720000000  0.4840450000000  0.4931360000000 1.0
C      1  0.4435480000000  0.5137330000000  0.4904180000000 1.0
C      1  0.5149630000000  0.5106430000000  0.5276770000000 1.0
C      1  0.5155490000000  0.4718910000000  0.4936570000000 1.0
C      1  0.5144500000000  0.5208920000000  0.4773920000000 1.0
C      1  0.5497810000000  0.5498970000000  0.4621900000000 1.0
C      1  0.5514260000000  0.5088290000000  0.5590190000000 1.0
C      1  0.5532260000000  0.4475410000000  0.4761920000000 1.0
C      1  0.4652630000000  0.4601770000000  0.4143660000000 1.0
C      1  0.4638840000000  0.5943150000000  0.5084780000000 1.0
C      1  0.4666590000000  0.4456840000000  0.5774290000000 1.0
C      1  0.4416120000000  0.4368400000000  0.4984690000000 1.0
C      1  0.4390890000000  0.5324550000000  0.4471130000000 1.0
C      1  0.4402480000000  0.5295560000000  0.5555690000000 1.0
C      1  0.4937720000000  0.4668650000000  0.4159730000000 1.0
C      1  0.4927640000000  0.5901300000000  0.5124010000000 1.0
C      1  0.4952440000000  0.4449990000000  0.5709510000000 1.0
C      1  0.4693520000000  0.4742250000000  0.4854590000000 1.0
C      1  0.4683930000000  0.5258140000000  0.4851170000000 1.0
C      1  0.4688210000000  0.5008920000000  0.5301930000000 1.0
C      1  0.4979870000000  0.5766690000000  0.5620950000000 1.0
C      1  0.5009180000000  0.4087600000000  0.5342850000000 1.0
C      1  0.4968860000000  0.5166350000000  0.4026110000000 1.0
C      1  0.5071340000000  0.5736670000000  0.4688300000000 1.0
C      1  0.5089870000000  0.4913060000000  0.5783020000000 1.0
C      1  0.5099920000000  0.4379010000000  0.4519570000000 1.0
C      1  0.4023810000000  0.4833840000000  0.4965760000000 1.0
C      1  0.4017510000000  0.5100130000000  0.4891640000000 1.0
C      1  0.4020910000000  0.5031250000000  0.5159480000000 1.0
C      1  0.4762300000000  0.4346410000000  0.4552680000000 1.0
C      1  0.4736490000000  0.5717340000000  0.4657410000000 1.0
C      1  0.4754390000000  0.4942960000000  0.5794220000000 1.0
C      1  0.4193870000000  0.4551230000000  0.4590960000000 1.0
C      1  0.4177130000000  0.5570770000000  0.4834470000000 1.0
C      1  0.4194330000000  0.4852450000000  0.5591480000000 1.0
C      1  0.5515550000000  0.5018690000000  0.4992690000000 1.0
C      1  0.5215760000000  0.5012380000000  0.4995030000000 1.0
END
