TITL C-140553-215-6 -0.0436871295510098 125000 -1117.66521515748 0 0 161 (S4) n - 1
REM
REM in /rds/project/t2_vol4/rds-t2-cs072/BORA/CARBON/from-Arr/AIRSS/Generating-Clusters/GAP-ML-2020/Higher-Symm/SD-CG/HFTN-CG
REM
REM
REM
REM
REM
REM ./C.cell (b20cbc046b6831c77cfcea5457e17084)
REM AIRSS Version 0.9.1 bugfix July 2018 build 013d7b7c2542+ Fri, 06 Jul 2018 19:26:36 +0100
REM compiler GCC version 9.3.0
REM options -cpp -mtune=generic -march=x86-64 -g -O0
REM seed 230657744 -1817398872 1973988866 697080299 -1386458676 -2099249123 1094275267 598064261 368884380 111456070 591684904 -2094368610 1001336068 470537032 829784562 963451666 -1176655458 1018256754 -1516993685 -1589320725 549460253 1976924799 -1029804688 -474223799 1121594682 -1784281463 -765585081 -1073445419 1724460802 1125408195 136138528 -684130725 -886893645
REM
CELL 1.54180   50.00000   50.00000   50.00000   90.00000   90.00000   90.00000
LATT -1
SFAC C  
C      1  0.5486560000000  0.4232140000000  0.5718630000000 1.0
C      1  0.4281470000000  0.5763320000000  0.5486110000000 1.0
C      1  0.4513970000000  0.4232140000000  0.4281020000000 1.0
C      1  0.5719070000000  0.5763320000000  0.4513520000000 1.0
C      1  0.5440290000000  0.4321850000000  0.4821210000000 1.0
C      1  0.5178890000000  0.5673610000000  0.5439840000000 1.0
C      1  0.4560240000000  0.4321850000000  0.5178440000000 1.0
C      1  0.4821660000000  0.5673610000000  0.4559790000000 1.0
C      1  0.4875840000000  0.3928910000000  0.5150020000000 1.0
C      1  0.4850080000000  0.6066550000000  0.4875400000000 1.0
C      1  0.5124690000000  0.3928910000000  0.4849630000000 1.0
C      1  0.5150470000000  0.6066550000000  0.5124240000000 1.0
C      1  0.5509540000000  0.5225910000000  0.4071410000000 1.0
C      1  0.5928680000000  0.4769540000000  0.5509090000000 1.0
C      1  0.4491000000000  0.5225920000000  0.5928230000000 1.0
C      1  0.4071860000000  0.4769550000000  0.4490550000000 1.0
C      1  0.5277180000000  0.4118400000000  0.5593210000000 1.0
C      1  0.4406880000000  0.5877070000000  0.5276730000000 1.0
C      1  0.4723360000000  0.4118400000000  0.4406440000000 1.0
C      1  0.5593660000000  0.5877060000000  0.4722910000000 1.0
C      1  0.5105280000000  0.4351100000000  0.5265750000000 1.0
C      1  0.4734340000000  0.5644370000000  0.5104830000000 1.0
C      1  0.4895250000000  0.4351100000000  0.4733900000000 1.0
C      1  0.5266200000000  0.5644360000000  0.4894800000000 1.0
C      1  0.5417380000000  0.5169250000000  0.5907380000000 1.0
C      1  0.4092710000000  0.4826220000000  0.5416930000000 1.0
C      1  0.4583160000000  0.5169250000000  0.4092260000000 1.0
C      1  0.5907830000000  0.4826210000000  0.4582710000000 1.0
C      1  0.4598780000000  0.5636390000000  0.4361270000000 1.0
C      1  0.5638810000000  0.4359070000000  0.4598330000000 1.0
C      1  0.5401760000000  0.5636390000000  0.5638360000000 1.0
C      1  0.4361720000000  0.4359080000000  0.5401310000000 1.0
C      1  0.4818470000000  0.5149150000000  0.4516390000000 1.0
C      1  0.5483700000000  0.4846310000000  0.4818020000000 1.0
C      1  0.5182070000000  0.5149150000000  0.5483250000000 1.0
C      1  0.4516840000000  0.4846320000000  0.5181620000000 1.0
C      1  0.5168860000000  0.3913960000000  0.5127420000000 1.0
C      1  0.4872680000000  0.6081500000000  0.5168410000000 1.0
C      1  0.4831670000000  0.3913960000000  0.4872230000000 1.0
C      1  0.5127870000000  0.6081500000000  0.4831230000000 1.0
C      1  0.5761720000000  0.4397930000000  0.5188650000000 1.0
C      1  0.4811440000000  0.5597530000000  0.5761270000000 1.0
C      1  0.4238810000000  0.4397940000000  0.4810990000000 1.0
C      1  0.5189100000000  0.5597520000000  0.4238360000000 1.0
C      1  0.4774210000000  0.4913640000000  0.5591320000000 1.0
C      1  0.4408760000000  0.5081830000000  0.4773760000000 1.0
C      1  0.5226320000000  0.4913630000000  0.4408320000000 1.0
C      1  0.5591770000000  0.5081830000000  0.5225880000000 1.0
C      1  0.5292680000000  0.4722170000000  0.4139600000000 1.0
C      1  0.5860490000000  0.5273290000000  0.5292240000000 1.0
C      1  0.4707850000000  0.4722180000000  0.5860040000000 1.0
C      1  0.4140050000000  0.5273290000000  0.4707400000000 1.0
C      1  0.5616150000000  0.5298440000000  0.4669570000000 1.0
C      1  0.5330520000000  0.4697030000000  0.5615710000000 1.0
C      1  0.4384380000000  0.5298440000000  0.5330070000000 1.0
C      1  0.4670020000000  0.4697020000000  0.4383940000000 1.0
C      1  0.5045760000000  0.4784100000000  0.6062480000000 1.0
C      1  0.3937610000000  0.5211370000000  0.5045310000000 1.0
C      1  0.4954780000000  0.4784090000000  0.3937160000000 1.0
C      1  0.6062930000000  0.5211370000000  0.4954330000000 1.0
C      1  0.5638710000000  0.5509170000000  0.4443180000000 1.0
C      1  0.5556910000000  0.4486290000000  0.5638270000000 1.0
C      1  0.4361820000000  0.5509180000000  0.5556460000000 1.0
C      1  0.4443630000000  0.4486290000000  0.4361380000000 1.0
C      1  0.5345560000000  0.4927500000000  0.5386450000000 1.0
C      1  0.4613640000000  0.5067970000000  0.5345110000000 1.0
C      1  0.4654980000000  0.4927500000000  0.4613190000000 1.0
C      1  0.5386900000000  0.5067960000000  0.4654530000000 1.0
C      1  0.4289410000000  0.5030780000000  0.5874240000000 1.0
C      1  0.4125850000000  0.4964690000000  0.4288960000000 1.0
C      1  0.5711130000000  0.5030770000000  0.4125400000000 1.0
C      1  0.5874680000000  0.4964690000000  0.5710680000000 1.0
C      1  0.5310840000000  0.4610960000000  0.4821170000000 1.0
C      1  0.5178920000000  0.5384500000000  0.5310390000000 1.0
C      1  0.4689690000000  0.4610960000000  0.5178480000000 1.0
C      1  0.4821610000000  0.5384500000000  0.4689240000000 1.0
C      1  0.5065260000000  0.5420350000000  0.4865750000000 1.0
C      1  0.5134340000000  0.4575110000000  0.5064810000000 1.0
C      1  0.4935280000000  0.5420350000000  0.5133890000000 1.0
C      1  0.4866190000000  0.4575110000000  0.4934830000000 1.0
C      1  0.5866910000000  0.5249490000000  0.5695450000000 1.0
C      1  0.4304640000000  0.4745970000000  0.5866460000000 1.0
C      1  0.4133630000000  0.5249490000000  0.4304190000000 1.0
C      1  0.5695890000000  0.4745960000000  0.4133180000000 1.0
C      1  0.4786690000000  0.4854520000000  0.6096030000000 1.0
C      1  0.3904060000000  0.5140950000000  0.4786240000000 1.0
C      1  0.5213850000000  0.4854510000000  0.3903610000000 1.0
C      1  0.6096480000000  0.5140950000000  0.5213400000000 1.0
C      1  0.4779190000000  0.5166890000000  0.5109330000000 1.0
C      1  0.4890760000000  0.4828570000000  0.4778740000000 1.0
C      1  0.5221350000000  0.5166890000000  0.4890310000000 1.0
C      1  0.5109770000000  0.4828570000000  0.5220900000000 1.0
C      1  0.5307760000000  0.4128910000000  0.5272500000000 1.0
C      1  0.4727590000000  0.5866550000000  0.5307320000000 1.0
C      1  0.4692770000000  0.4128910000000  0.4727150000000 1.0
C      1  0.5272950000000  0.5866550000000  0.4692320000000 1.0
C      1  0.5033190000000  0.4256350000000  0.5673830000000 1.0
C      1  0.4326270000000  0.5739120000000  0.5032740000000 1.0
C      1  0.4967340000000  0.4256340000000  0.4325820000000 1.0
C      1  0.5674270000000  0.5739120000000  0.4966890000000 1.0
C      1  0.4414850000000  0.5798010000000  0.4765290000000 1.0
C      1  0.5234790000000  0.4197450000000  0.4414400000000 1.0
C      1  0.5585690000000  0.5798010000000  0.5234340000000 1.0
C      1  0.4765740000000  0.4197460000000  0.5585250000000 1.0
C      1  0.5320580000000  0.5460330000000  0.5851790000000 1.0
C      1  0.4148290000000  0.4535140000000  0.5320130000000 1.0
C      1  0.4679960000000  0.5460330000000  0.4147840000000 1.0
C      1  0.5852240000000  0.4535130000000  0.4679510000000 1.0
C      1  0.4043110000000  0.4752980000000  0.4946580000000 1.0
C      1  0.5053510000000  0.5242480000000  0.4042660000000 1.0
C      1  0.5957420000000  0.4752970000000  0.5053060000000 1.0
C      1  0.4947030000000  0.5242490000000  0.5956980000000 1.0
C      1  0.5691800000000  0.5118030000000  0.5871250000000 1.0
C      1  0.4128830000000  0.4877440000000  0.5691350000000 1.0
C      1  0.4308740000000  0.5118030000000  0.4128390000000 1.0
C      1  0.5871700000000  0.4877420000000  0.4308290000000 1.0
C      1  0.4905330000000  0.4515980000000  0.4472630000000 1.0
C      1  0.5527470000000  0.5479480000000  0.4904880000000 1.0
C      1  0.5095200000000  0.4515990000000  0.5527020000000 1.0
C      1  0.4473070000000  0.5479480000000  0.5094760000000 1.0
C      1  0.5776600000000  0.4531910000000  0.5457040000000 1.0
C      1  0.4543050000000  0.5463550000000  0.5776150000000 1.0
C      1  0.4223940000000  0.4531920000000  0.4542600000000 1.0
C      1  0.5457490000000  0.5463540000000  0.4223490000000 1.0
C      1  0.4085570000000  0.4497810000000  0.5039100000000 1.0
C      1  0.4960990000000  0.5497650000000  0.4085120000000 1.0
C      1  0.5914970000000  0.4497800000000  0.4960540000000 1.0
C      1  0.5039550000000  0.5497660000000  0.5914520000000 1.0
C      1  0.4893070000000  0.4709950000000  0.5408560000000 1.0
C      1  0.4591530000000  0.5285520000000  0.4892620000000 1.0
C      1  0.5107460000000  0.4709950000000  0.4591090000000 1.0
C      1  0.5409000000000  0.5285510000000  0.5107010000000 1.0
C      1  0.4808660000000  0.4180370000000  0.5290700000000 1.0
C      1  0.4709390000000  0.5815090000000  0.4808210000000 1.0
C      1  0.5191880000000  0.4180370000000  0.4708950000000 1.0
C      1  0.5291150000000  0.5815090000000  0.5191430000000 1.0
C      1  0.5483260000000  0.4326250000000  0.4354770000000 1.0
C      1  0.5645320000000  0.5669210000000  0.5482810000000 1.0
C      1  0.4517270000000  0.4326250000000  0.5644880000000 1.0
C      1  0.4355220000000  0.5669210000000  0.4516820000000 1.0
C      1  0.4136840000000  0.5096360000000  0.5219410000000 1.0
C      1  0.4780680000000  0.4899100000000  0.4136390000000 1.0
C      1  0.5863700000000  0.5096360000000  0.4780230000000 1.0
C      1  0.5219860000000  0.4899110000000  0.5863250000000 1.0
C      1  0.3928480000000  0.4861200000000  0.4719550000000 1.0
C      1  0.5280540000000  0.5134260000000  0.3928030000000 1.0
C      1  0.6072060000000  0.4861190000000  0.5280090000000 1.0
C      1  0.4720000000000  0.5134270000000  0.6071610000000 1.0
C      1  0.4296530000000  0.4929380000000  0.5009100000000 1.0
C      1  0.4990990000000  0.5066080000000  0.4296090000000 1.0
C      1  0.5704000000000  0.4929370000000  0.4990540000000 1.0
C      1  0.5009550000000  0.5066090000000  0.5703560000000 1.0
C      1  0.4896440000000  0.5747180000000  0.5537500000000 1.0
C      1  0.4462590000000  0.4248290000000  0.4895990000000 1.0
C      1  0.5104110000000  0.5747170000000  0.4462140000000 1.0
C      1  0.5537940000000  0.4248290000000  0.5103660000000 1.0
C      1  0.5843200000000  0.5458200000000  0.5503380000000 1.0
C      1  0.4496710000000  0.4537270000000  0.5842750000000 1.0
C      1  0.4157340000000  0.5458200000000  0.4496260000000 1.0
C      1  0.5503830000000  0.4537260000000  0.4156900000000 1.0
C      1  0.5000270000000  0.4997730000000  0.4999820000000 1.0
END
