TITL C-140566-1702-1 0.118946591288684 125000 -60.8995951711766 0 0 10 (C2) n - 1
REM
REM in /rds/project/t2_vol4/rds-t2-cs072/BORA/CARBON/from-Arr/AIRSS/Generating-Clusters/GAP-ML-2020/Higher-Symm/SD-CG/HFTN-CG
REM
REM
REM
REM
REM
REM ./C.cell (b20cbc046b6831c77cfcea5457e17084)
REM AIRSS Version 0.9.1 bugfix July 2018 build 013d7b7c2542+ Fri, 06 Jul 2018 19:26:36 +0100
REM compiler GCC version 9.3.0
REM options -cpp -mtune=generic -march=x86-64 -g -O0
REM seed -603906900 -1023245716 -1517766808 1752112859 159112395 -124660985 -1756574779 1657174385 685533552 -1051833262 1709112422 -448328602 1239242627 213563881 -695870009 1508902337 833017428 771194617 575348239 1037627137 -771572274 311775463 1903792551 -2012952970 -971778933 -1473749609 -672622562 -226817049 1218097633 -1111994288 582019755 1938275067 -729973760
REM
CELL 1.54180   50.00000   50.00000   50.00000   90.00000   90.00000   90.00000
LATT -1
SFAC C  
C      1  0.5083450000000  0.5008230000000  0.5120740000000 1.0
C      1  0.5420700000000  0.4604130000000  0.5009990000000 1.0
C      1  0.5001450000000  0.4903850000000  0.4856050000000 1.0
C      1  0.5013970000000  0.5143330000000  0.5332930000000 1.0
C      1  0.4875020000000  0.4951010000000  0.4632680000000 1.0
C      1  0.4797790000000  0.5028870000000  0.4402290000000 1.0
C      1  0.4916950000000  0.5227590000000  0.5553380000000 1.0
C      1  0.4811890000000  0.5163460000000  0.4184400000000 1.0
C      1  0.4770620000000  0.5216020000000  0.5763710000000 1.0
C      1  0.5228160000000  0.4783260000000  0.4999000000000 1.0
END
