TITL C-149059-9387-11 124.160306575219 125000 -509.055998839388 0 0 75 (C1) n - 1
REM
REM in /rds/project/t2_vol4/rds-t2-cs072/BORA/CARBON/from-Arr/AIRSS/Generating-Clusters/GAP-ML-2020/Higher-Symm/SD-CG/HFTN-CG
REM
REM
REM
REM
REM
REM ./C.cell (b20cbc046b6831c77cfcea5457e17084)
REM AIRSS Version 0.9.1 bugfix July 2018 build 013d7b7c2542+ Fri, 06 Jul 2018 19:26:36 +0100
REM compiler GCC version 9.3.0
REM options -cpp -mtune=generic -march=x86-64 -g -O0
REM seed -1719763828 -1539197479 -1533553917 1149169900 -532232113 -546296192 -258593398 -735584090 128115262 -819590115 2025144245 -995007203 2106130274 -919689296 1557305215 -514425277 -662624376 -736686355 61060422 -473950969 -1628525974 -529520040 -107838612 1615891064 -297285465 1248105966 370272262 -278907990 -1935660174 1162594571 1951704356 -1100416946 1462548993
REM
CELL 1.54180   50.00000   50.00000   50.00000   90.00000   90.00000   90.00000
LATT -1
SFAC C  
C      1  0.4593070000000  0.4562740000000  0.5311830000000 1.0
C      1  0.4611040000000  0.5009410000000  0.4429710000000 1.0
C      1  0.4668910000000  0.5542030000000  0.5267450000000 1.0
C      1  0.4550870000000  0.4533040000000  0.4724790000000 1.0
C      1  0.4591590000000  0.5036490000000  0.5581880000000 1.0
C      1  0.4624380000000  0.5535530000000  0.4709980000000 1.0
C      1  0.4978290000000  0.5282690000000  0.5735870000000 1.0
C      1  0.4916950000000  0.4238470000000  0.4877770000000 1.0
C      1  0.4990650000000  0.5510190000000  0.4394120000000 1.0
C      1  0.4979450000000  0.5255510000000  0.4262500000000 1.0
C      1  0.4918360000000  0.4254580000000  0.5164440000000 1.0
C      1  0.5014840000000  0.5525480000000  0.5582460000000 1.0
C      1  0.4636190000000  0.4322630000000  0.5168870000000 1.0
C      1  0.4694910000000  0.5246790000000  0.4310720000000 1.0
C      1  0.4728370000000  0.5526760000000  0.5544620000000 1.0
C      1  0.4639430000000  0.4297170000000  0.4883130000000 1.0
C      1  0.4692630000000  0.5287580000000  0.5700410000000 1.0
C      1  0.4705810000000  0.5505040000000  0.4435950000000 1.0
C      1  0.5482630000000  0.4759290000000  0.4360950000000 1.0
C      1  0.5548880000000  0.5637210000000  0.5114860000000 1.0
C      1  0.5491640000000  0.4549250000000  0.5496840000000 1.0
C      1  0.5503510000000  0.4801230000000  0.5635130000000 1.0
C      1  0.5540560000000  0.5633370000000  0.4827920000000 1.0
C      1  0.5460660000000  0.4517170000000  0.4513340000000 1.0
C      1  0.5031220000000  0.5008550000000  0.5288800000000 1.0
C      1  0.4994880000000  0.4762700000000  0.4853000000000 1.0
C      1  0.5044310000000  0.5257250000000  0.4851160000000 1.0
C      1  0.5095260000000  0.5002760000000  0.4710210000000 1.0
C      1  0.5088610000000  0.4758040000000  0.5138710000000 1.0
C      1  0.5129950000000  0.5248130000000  0.5141130000000 1.0
C      1  0.4715000000000  0.5275680000000  0.4855090000000 1.0
C      1  0.4698340000000  0.5041310000000  0.5284780000000 1.0
C      1  0.4642320000000  0.4790200000000  0.4869830000000 1.0
C      1  0.4645940000000  0.5289400000000  0.5140500000000 1.0
C      1  0.4563300000000  0.5043400000000  0.4720590000000 1.0
C      1  0.4595820000000  0.4796400000000  0.5153520000000 1.0
C      1  0.4095800000000  0.4898300000000  0.5449180000000 1.0
C      1  0.4106460000000  0.4322320000000  0.4889760000000 1.0
C      1  0.4280360000000  0.5212040000000  0.4721190000000 1.0
C      1  0.4314000000000  0.5462620000000  0.4711540000000 1.0
C      1  0.4267790000000  0.4473720000000  0.4775710000000 1.0
C      1  0.4309190000000  0.4981510000000  0.5549550000000 1.0
C      1  0.5240380000000  0.4849240000000  0.4251440000000 1.0
C      1  0.5306840000000  0.5705430000000  0.5240230000000 1.0
C      1  0.5241680000000  0.4424500000000  0.5487620000000 1.0
C      1  0.5264490000000  0.4894970000000  0.5746940000000 1.0
C      1  0.5293930000000  0.5697920000000  0.4711070000000 1.0
C      1  0.5206080000000  0.4402050000000  0.4534500000000 1.0
C      1  0.4796300000000  0.5754630000000  0.5125410000000 1.0
C      1  0.4728830000000  0.4560000000000  0.5565950000000 1.0
C      1  0.4717990000000  0.4772180000000  0.4317360000000 1.0
C      1  0.4779910000000  0.5755490000000  0.4840990000000 1.0
C      1  0.4693040000000  0.4526250000000  0.4456970000000 1.0
C      1  0.4737910000000  0.4801870000000  0.5712510000000 1.0
C      1  0.4996120000000  0.4705350000000  0.4231250000000 1.0
C      1  0.5084020000000  0.5836200000000  0.5118020000000 1.0
C      1  0.5010260000000  0.4497980000000  0.5638100000000 1.0
C      1  0.5017470000000  0.4752500000000  0.5785480000000 1.0
C      1  0.5067540000000  0.5832650000000  0.4825230000000 1.0
C      1  0.4969000000000  0.4453320000000  0.4381620000000 1.0
C      1  0.5072730000000  0.4447680000000  0.4770610000000 1.0
C      1  0.5146990000000  0.5481740000000  0.4626000000000 1.0
C      1  0.5126730000000  0.5081890000000  0.5598750000000 1.0
C      1  0.5106410000000  0.4459610000000  0.5246360000000 1.0
C      1  0.5178740000000  0.5482680000000  0.5350320000000 1.0
C      1  0.5134190000000  0.5059030000000  0.4400500000000 1.0
C      1  0.5659160000000  0.5355670000000  0.4822080000000 1.0
C      1  0.5642580000000  0.4929270000000  0.5400810000000 1.0
C      1  0.5606260000000  0.4643770000000  0.4745040000000 1.0
C      1  0.5673530000000  0.5366210000000  0.5124370000000 1.0
C      1  0.5630370000000  0.4897050000000  0.4580920000000 1.0
C      1  0.5631910000000  0.4660740000000  0.5260580000000 1.0
C      1  0.5647270000000  0.4586700000000  0.5003970000000 1.0
C      1  0.5677020000000  0.5153730000000  0.4645150000000 1.0
C      1  0.5695300000000  0.5177740000000  0.5314080000000 1.0
END
