TITL C-149061-690-10 40.0895701155003 125000 -779.215271789282 0 0 112 (C1) n - 1
REM
REM in /rds/project/t2_vol4/rds-t2-cs072/BORA/CARBON/from-Arr/AIRSS/Generating-Clusters/GAP-ML-2020/Higher-Symm/SD-CG/HFTN-CG
REM
REM
REM
REM
REM
REM ./C.cell (b20cbc046b6831c77cfcea5457e17084)
REM AIRSS Version 0.9.1 bugfix July 2018 build 013d7b7c2542+ Fri, 06 Jul 2018 19:26:36 +0100
REM compiler GCC version 9.3.0
REM options -cpp -mtune=generic -march=x86-64 -g -O0
REM seed -1252235022 1055038312 1190378154 1891820701 725642367 1788408354 1448831919 1508579922 -1864725366 -1482464777 -1823047355 1435384139 -252234822 1173387775 168419053 -1788057383 -2059345994 -47792157 1391795956 -519616157 1734644594 1126645746 -517370171 689363805 -1297515858 1482596878 155938427 -330789145 783616419 1449860824 514216228 1169562064 242649523
REM
CELL 1.54180   50.00000   50.00000   50.00000   90.00000   90.00000   90.00000
LATT -1
SFAC C  
C      1  0.4458960000000  0.4462510000000  0.4560520000000 1.0
C      1  0.4311560000000  0.5309810000000  0.4562570000000 1.0
C      1  0.5110560000000  0.5735720000000  0.4460930000000 1.0
C      1  0.5774560000000  0.5131550000000  0.4477860000000 1.0
C      1  0.5340950000000  0.4356810000000  0.4493320000000 1.0
C      1  0.5589580000000  0.5661440000000  0.5196920000000 1.0
C      1  0.5793330000000  0.4647360000000  0.5195420000000 1.0
C      1  0.4914330000000  0.4126040000000  0.5203610000000 1.0
C      1  0.4115010000000  0.4798310000000  0.5239270000000 1.0
C      1  0.4561220000000  0.5746660000000  0.5208220000000 1.0
C      1  0.4937530000000  0.4841760000000  0.4084940000000 1.0
C      1  0.4886570000000  0.5133410000000  0.4086990000000 1.0
C      1  0.5123430000000  0.5278030000000  0.4123400000000 1.0
C      1  0.5338020000000  0.5059580000000  0.4143490000000 1.0
C      1  0.5207800000000  0.4789040000000  0.4133200000000 1.0
C      1  0.4571230000000  0.5174490000000  0.4520930000000 1.0
C      1  0.5036270000000  0.5347610000000  0.4557300000000 1.0
C      1  0.5374600000000  0.5074650000000  0.4575240000000 1.0
C      1  0.5198150000000  0.4630380000000  0.4556710000000 1.0
C      1  0.4661410000000  0.4672430000000  0.4506550000000 1.0
C      1  0.5029890000000  0.4509960000000  0.5839840000000 1.0
C      1  0.4554130000000  0.4818720000000  0.5854810000000 1.0
C      1  0.4698870000000  0.5370380000000  0.5847060000000 1.0
C      1  0.5264180000000  0.5409200000000  0.5834110000000 1.0
C      1  0.5466550000000  0.4873590000000  0.5833410000000 1.0
C      1  0.5201530000000  0.5699940000000  0.5412370000000 1.0
C      1  0.5731700000000  0.5017140000000  0.5427200000000 1.0
C      1  0.5242180000000  0.4306530000000  0.5424170000000 1.0
C      1  0.4411610000000  0.4544290000000  0.5450420000000 1.0
C      1  0.4397710000000  0.5404380000000  0.5441280000000 1.0
C      1  0.4987930000000  0.5401470000000  0.5092030000000 1.0
C      1  0.5376480000000  0.5132800000000  0.5104490000000 1.0
C      1  0.5207600000000  0.4651160000000  0.5082970000000 1.0
C      1  0.4709980000000  0.4657170000000  0.5085470000000 1.0
C      1  0.4586270000000  0.5106460000000  0.5091200000000 1.0
C      1  0.5284460000000  0.4898750000000  0.4968130000000 1.0
C      1  0.4944180000000  0.4683550000000  0.4939310000000 1.0
C      1  0.4562640000000  0.4859880000000  0.4969250000000 1.0
C      1  0.4821060000000  0.5211880000000  0.4959660000000 1.0
C      1  0.5240350000000  0.5346220000000  0.4994070000000 1.0
C      1  0.4492620000000  0.5128350000000  0.5367900000000 1.0
C      1  0.4968690000000  0.5513090000000  0.5360480000000 1.0
C      1  0.5489900000000  0.5182330000000  0.5367170000000 1.0
C      1  0.5308830000000  0.4586920000000  0.5353060000000 1.0
C      1  0.4700920000000  0.4563940000000  0.5360350000000 1.0
C      1  0.4584860000000  0.4231740000000  0.4648150000000 1.0
C      1  0.4117830000000  0.5131040000000  0.4660890000000 1.0
C      1  0.4874740000000  0.5811120000000  0.4602000000000 1.0
C      1  0.5786120000000  0.5384250000000  0.4608520000000 1.0
C      1  0.5599950000000  0.4389310000000  0.4610680000000 1.0
C      1  0.4707790000000  0.4802270000000  0.4245030000000 1.0
C      1  0.4660810000000  0.5087550000000  0.4250980000000 1.0
C      1  0.5082480000000  0.5490630000000  0.4307940000000 1.0
C      1  0.5532610000000  0.5098370000000  0.4333400000000 1.0
C      1  0.5263160000000  0.4565170000000  0.4286470000000 1.0
C      1  0.5327420000000  0.4158050000000  0.4926610000000 1.0
C      1  0.4271080000000  0.4399940000000  0.4978490000000 1.0
C      1  0.4215110000000  0.5482530000000  0.4970680000000 1.0
C      1  0.5229210000000  0.5874660000000  0.4915510000000 1.0
C      1  0.5908150000000  0.5055230000000  0.4933780000000 1.0
C      1  0.5195090000000  0.4144400000000  0.5183190000000 1.0
C      1  0.4220200000000  0.4532480000000  0.5227420000000 1.0
C      1  0.4338230000000  0.5572790000000  0.5209770000000 1.0
C      1  0.5343560000000  0.5809070000000  0.5173960000000 1.0
C      1  0.5870960000000  0.4920700000000  0.5185960000000 1.0
C      1  0.4568760000000  0.5523560000000  0.5633190000000 1.0
C      1  0.5368460000000  0.5583000000000  0.5614820000000 1.0
C      1  0.5655380000000  0.4818850000000  0.5614760000000 1.0
C      1  0.5036420000000  0.4311150000000  0.5621180000000 1.0
C      1  0.4358490000000  0.4745280000000  0.5646520000000 1.0
C      1  0.5700270000000  0.5571070000000  0.4959430000000 1.0
C      1  0.5743310000000  0.4517820000000  0.4957320000000 1.0
C      1  0.4769110000000  0.4135210000000  0.4971770000000 1.0
C      1  0.4071910000000  0.4936500000000  0.5002500000000 1.0
C      1  0.4687920000000  0.5803630000000  0.4966730000000 1.0
C      1  0.5400500000000  0.4813260000000  0.4708920000000 1.0
C      1  0.4923990000000  0.4558460000000  0.4665450000000 1.0
C      1  0.4514690000000  0.4891350000000  0.4668030000000 1.0
C      1  0.4763330000000  0.5354490000000  0.4687090000000 1.0
C      1  0.5306970000000  0.5344490000000  0.4713530000000 1.0
C      1  0.4788860000000  0.4661740000000  0.5808180000000 1.0
C      1  0.4626610000000  0.5094640000000  0.5810650000000 1.0
C      1  0.4981390000000  0.5391550000000  0.5803240000000 1.0
C      1  0.5368100000000  0.5141740000000  0.5796980000000 1.0
C      1  0.5247570000000  0.4691860000000  0.5797290000000 1.0
C      1  0.5592090000000  0.4284100000000  0.4874520000000 1.0
C      1  0.4491210000000  0.4199870000000  0.4920730000000 1.0
C      1  0.4068510000000  0.5218450000000  0.4930860000000 1.0
C      1  0.4940360000000  0.5905220000000  0.4867500000000 1.0
C      1  0.5872190000000  0.5349100000000  0.4880440000000 1.0
C      1  0.5154390000000  0.4795800000000  0.5519820000000 1.0
C      1  0.4854000000000  0.4780550000000  0.5525860000000 1.0
C      1  0.4749650000000  0.5061810000000  0.5528520000000 1.0
C      1  0.4985310000000  0.5251110000000  0.5523140000000 1.0
C      1  0.5236550000000  0.5086460000000  0.5518240000000 1.0
C      1  0.5175300000000  0.4181040000000  0.4675660000000 1.0
C      1  0.4239120000000  0.4545780000000  0.4728380000000 1.0
C      1  0.4347020000000  0.5543840000000  0.4719450000000 1.0
C      1  0.5334760000000  0.5774980000000  0.4660180000000 1.0
C      1  0.5847950000000  0.4925930000000  0.4679500000000 1.0
C      1  0.5544410000000  0.5558870000000  0.4695130000000 1.0
C      1  0.5686190000000  0.4673970000000  0.4705870000000 1.0
C      1  0.4887310000000  0.4244200000000  0.4705740000000 1.0
C      1  0.4196860000000  0.4843350000000  0.4731080000000 1.0
C      1  0.4636870000000  0.5641780000000  0.4715740000000 1.0
C      1  0.5605590000000  0.4622460000000  0.5417540000000 1.0
C      1  0.4831570000000  0.4294350000000  0.5427860000000 1.0
C      1  0.4268250000000  0.4931050000000  0.5452950000000 1.0
C      1  0.4717930000000  0.5659370000000  0.5436680000000 1.0
C      1  0.5547990000000  0.5478920000000  0.5424660000000 1.0
C      1  0.5000670000000  0.4978020000000  0.4836790000000 1.0
C      1  0.5066020000000  0.5044180000000  0.4548440000000 1.0
END
