TITL C-148565-4819-5 -0.00604144151181214 125000 -217.368848484775 0 0 33 (C1) n - 1
REM
REM in /rds/project/t2_vol4/rds-t2-cs072/BORA/CARBON/from-Arr/AIRSS/Generating-Clusters/GAP-ML-2020/Higher-Symm/SD-CG/HFTN-CG
REM
REM
REM
REM
REM
REM ./C.cell (b20cbc046b6831c77cfcea5457e17084)
REM AIRSS Version 0.9.1 bugfix July 2018 build 013d7b7c2542+ Fri, 06 Jul 2018 19:26:36 +0100
REM compiler GCC version 9.3.0
REM options -cpp -mtune=generic -march=x86-64 -g -O0
REM seed 1597505626 -2049039713 569359392 63417735 -1751551963 -1258615227 1873331037 1314264429 673250358 1986632369 1457719333 -2038659590 1423527091 569355798 -257443876 -1065842585 566132025 59299191 -1165085527 697238707 254819371 541634768 -635395669 1673832025 -452743102 1057730674 1764883579 164820753 -1211343159 1679139231 378863038 -453696079 1685543977
REM
CELL 1.54180   50.00000   50.00000   50.00000   90.00000   90.00000   90.00000
LATT -1
SFAC C  
C      1  0.5049820000000  0.5226970000000  0.5503890000000 1.0
C      1  0.4765590000000  0.5208150000000  0.5439970000000 1.0
C      1  0.4591610000000  0.5165340000000  0.5222000000000 1.0
C      1  0.4509790000000  0.5287320000000  0.4977620000000 1.0
C      1  0.4620280000000  0.5315720000000  0.4720220000000 1.0
C      1  0.4823740000000  0.5258350000000  0.4531720000000 1.0
C      1  0.5098380000000  0.5215550000000  0.4501630000000 1.0
C      1  0.5339760000000  0.5176820000000  0.4667410000000 1.0
C      1  0.5468990000000  0.5222280000000  0.4901670000000 1.0
C      1  0.5458440000000  0.5357210000000  0.5170440000000 1.0
C      1  0.5307930000000  0.5298020000000  0.5423710000000 1.0
C      1  0.4412410000000  0.4834690000000  0.4953250000000 1.0
C      1  0.4517270000000  0.4782470000000  0.4696810000000 1.0
C      1  0.4739940000000  0.4779070000000  0.4523130000000 1.0
C      1  0.5013820000000  0.4725280000000  0.4497310000000 1.0
C      1  0.5259610000000  0.4680960000000  0.4664840000000 1.0
C      1  0.5321580000000  0.4641710000000  0.4921740000000 1.0
C      1  0.5479900000000  0.4768230000000  0.5107190000000 1.0
C      1  0.5400680000000  0.4813300000000  0.5378400000000 1.0
C      1  0.5146270000000  0.4750910000000  0.5475040000000 1.0
C      1  0.4933120000000  0.4620110000000  0.5349710000000 1.0
C      1  0.4687460000000  0.4744920000000  0.5393360000000 1.0
C      1  0.4754590000000  0.4952300000000  0.5574800000000 1.0
C      1  0.4529150000000  0.4881840000000  0.5202510000000 1.0
C      1  0.4319800000000  0.5097040000000  0.4860430000000 1.0
C      1  0.4451700000000  0.5076150000000  0.4616300000000 1.0
C      1  0.4653580000000  0.5043860000000  0.4424060000000 1.0
C      1  0.5145300000000  0.4952970000000  0.4373850000000 1.0
C      1  0.5372980000000  0.4915270000000  0.4537870000000 1.0
C      1  0.5636520000000  0.5006180000000  0.5028010000000 1.0
C      1  0.5661720000000  0.5166700000000  0.5259400000000 1.0
C      1  0.5504700000000  0.5073850000000  0.5466870000000 1.0
C      1  0.5023580000000  0.4960460000000  0.5634850000000 1.0
END
