TITL C-148562-4707-3 0.230657439117988 125000 -708.587987948695 0 0 101 (C1) n - 1
REM
REM in /rds/project/t2_vol4/rds-t2-cs072/BORA/CARBON/from-Arr/AIRSS/Generating-Clusters/GAP-ML-2020/Higher-Symm/SD-CG/HFTN-CG
REM
REM
REM
REM
REM
REM ./C.cell (b20cbc046b6831c77cfcea5457e17084)
REM AIRSS Version 0.9.1 bugfix July 2018 build 013d7b7c2542+ Fri, 06 Jul 2018 19:26:36 +0100
REM compiler GCC version 9.3.0
REM options -cpp -mtune=generic -march=x86-64 -g -O0
REM seed 1725893296 -202848161 1735330647 -1458530623 727186911 -132743425 1283540164 1185297456 -1661781022 -404776973 2016886079 1802900859 -1695412866 -391799663 1250531333 628069498 -1619819788 -46633629 -172009187 1969437542 -1037669399 352202831 -1983187699 2058557982 -1041822972 1322264189 629500406 694190544 881371472 -1645003408 2014427993 -2107970586 1031182694
REM
CELL 1.54180   50.00000   50.00000   50.00000   90.00000   90.00000   90.00000
LATT -1
SFAC C  
C      1  0.4888260000000  0.4608190000000  0.4911610000000 1.0
C      1  0.4676060000000  0.4985180000000  0.4903040000000 1.0
C      1  0.4874290000000  0.4985400000000  0.4685550000000 1.0
C      1  0.4904790000000  0.5229170000000  0.5148310000000 1.0
C      1  0.5318380000000  0.4273750000000  0.5382280000000 1.0
C      1  0.5063700000000  0.5351390000000  0.4950530000000 1.0
C      1  0.4625600000000  0.5182810000000  0.5096280000000 1.0
C      1  0.5338910000000  0.4870040000000  0.4959570000000 1.0
C      1  0.5344030000000  0.5101620000000  0.4806200000000 1.0
C      1  0.4997670000000  0.5080640000000  0.5357080000000 1.0
C      1  0.5110270000000  0.4843380000000  0.5305160000000 1.0
C      1  0.5078940000000  0.5185340000000  0.4696670000000 1.0
C      1  0.5748210000000  0.5253940000000  0.4537050000000 1.0
C      1  0.5238840000000  0.4411630000000  0.5616570000000 1.0
C      1  0.4433280000000  0.5459210000000  0.5015180000000 1.0
C      1  0.5382100000000  0.4923110000000  0.5236130000000 1.0
C      1  0.4483900000000  0.5077150000000  0.5352090000000 1.0
C      1  0.4262500000000  0.4776680000000  0.4602830000000 1.0
C      1  0.5146560000000  0.5369230000000  0.4446510000000 1.0
C      1  0.4915670000000  0.4690450000000  0.4618890000000 1.0
C      1  0.4711750000000  0.5442390000000  0.5681380000000 1.0
C      1  0.4642990000000  0.4721480000000  0.4992520000000 1.0
C      1  0.5365200000000  0.5387670000000  0.4942040000000 1.0
C      1  0.5549920000000  0.4355670000000  0.5236670000000 1.0
C      1  0.4688660000000  0.4166830000000  0.5030420000000 1.0
C      1  0.4154290000000  0.5127230000000  0.4801300000000 1.0
C      1  0.5041740000000  0.4733560000000  0.4141100000000 1.0
C      1  0.4745610000000  0.5842620000000  0.4863210000000 1.0
C      1  0.5233720000000  0.4184160000000  0.4927140000000 1.0
C      1  0.5267510000000  0.5838900000000  0.5083690000000 1.0
C      1  0.4091420000000  0.4899080000000  0.5330830000000 1.0
C      1  0.5815610000000  0.5020080000000  0.5262840000000 1.0
C      1  0.5837110000000  0.4902510000000  0.4722480000000 1.0
C      1  0.5054450000000  0.5263890000000  0.5829850000000 1.0
C      1  0.4941080000000  0.4726950000000  0.5794300000000 1.0
C      1  0.4882080000000  0.5269720000000  0.4105800000000 1.0
C      1  0.4960860000000  0.4473620000000  0.5657220000000 1.0
C      1  0.4487110000000  0.5879210000000  0.4762290000000 1.0
C      1  0.5697610000000  0.4966810000000  0.4478190000000 1.0
C      1  0.4870440000000  0.5544360000000  0.4170160000000 1.0
C      1  0.5112980000000  0.4482740000000  0.4221500000000 1.0
C      1  0.4997750000000  0.5510470000000  0.5689750000000 1.0
C      1  0.4446960000000  0.4311200000000  0.4981560000000 1.0
C      1  0.5518370000000  0.5745620000000  0.5149170000000 1.0
C      1  0.5493940000000  0.4311330000000  0.4954400000000 1.0
C      1  0.5661130000000  0.5000750000000  0.5513080000000 1.0
C      1  0.4197110000000  0.4823510000000  0.5577080000000 1.0
C      1  0.4298370000000  0.5067770000000  0.4546540000000 1.0
C      1  0.5624570000000  0.4717250000000  0.5573840000000 1.0
C      1  0.4331510000000  0.5287990000000  0.5476870000000 1.0
C      1  0.5394280000000  0.5528060000000  0.4468950000000 1.0
C      1  0.5401660000000  0.5619000000000  0.4734020000000 1.0
C      1  0.4503180000000  0.4325690000000  0.4698100000000 1.0
C      1  0.4551200000000  0.5633390000000  0.5238120000000 1.0
C      1  0.4440350000000  0.4560440000000  0.4541940000000 1.0
C      1  0.5643770000000  0.5456890000000  0.4392480000000 1.0
C      1  0.5705440000000  0.4569930000000  0.5340230000000 1.0
C      1  0.5395310000000  0.4631940000000  0.5713220000000 1.0
C      1  0.4506590000000  0.5509080000000  0.5492270000000 1.0
C      1  0.4683600000000  0.4638670000000  0.4417470000000 1.0
C      1  0.5280530000000  0.5103550000000  0.5802310000000 1.0
C      1  0.5056090000000  0.5779380000000  0.5267390000000 1.0
C      1  0.5785910000000  0.5248380000000  0.5092060000000 1.0
C      1  0.5247050000000  0.4923930000000  0.4207760000000 1.0
C      1  0.4676770000000  0.5087000000000  0.4194090000000 1.0
C      1  0.4715110000000  0.4903020000000  0.5758420000000 1.0
C      1  0.5058930000000  0.4231690000000  0.4701010000000 1.0
C      1  0.4961120000000  0.5792230000000  0.4673570000000 1.0
C      1  0.4851500000000  0.4202220000000  0.5253060000000 1.0
C      1  0.5802710000000  0.4680210000000  0.4879850000000 1.0
C      1  0.4180770000000  0.5301410000000  0.5025260000000 1.0
C      1  0.4167290000000  0.4727970000000  0.5109460000000 1.0
C      1  0.5468280000000  0.4819730000000  0.4386720000000 1.0
C      1  0.4768430000000  0.4387680000000  0.5462960000000 1.0
C      1  0.4488820000000  0.5597760000000  0.4750100000000 1.0
C      1  0.5487230000000  0.5204820000000  0.5625760000000 1.0
C      1  0.4499960000000  0.4822120000000  0.5550710000000 1.0
C      1  0.4506560000000  0.5214530000000  0.4406440000000 1.0
C      1  0.4884700000000  0.5577760000000  0.4456590000000 1.0
C      1  0.5157950000000  0.4462820000000  0.4509290000000 1.0
C      1  0.5169050000000  0.5599950000000  0.5484230000000 1.0
C      1  0.4423660000000  0.4565640000000  0.5140160000000 1.0
C      1  0.5553340000000  0.5454950000000  0.5183470000000 1.0
C      1  0.5602800000000  0.4494390000000  0.4766260000000 1.0
C      1  0.5128380000000  0.4166140000000  0.5197890000000 1.0
C      1  0.4144910000000  0.5185090000000  0.5285970000000 1.0
C      1  0.5140670000000  0.5189200000000  0.4201790000000 1.0
C      1  0.5216930000000  0.5814620000000  0.4795220000000 1.0
C      1  0.4770770000000  0.4192510000000  0.4748930000000 1.0
C      1  0.4780250000000  0.5789410000000  0.5154470000000 1.0
C      1  0.4130060000000  0.4839720000000  0.4853180000000 1.0
C      1  0.5841150000000  0.5178920000000  0.4815190000000 1.0
C      1  0.5830480000000  0.4745880000000  0.5158160000000 1.0
C      1  0.5215040000000  0.4825190000000  0.5820800000000 1.0
C      1  0.4776890000000  0.5178070000000  0.5803270000000 1.0
C      1  0.4760060000000  0.4807410000000  0.4197510000000 1.0
C      1  0.4605770000000  0.5463240000000  0.4517460000000 1.0
C      1  0.4548730000000  0.4559060000000  0.5410410000000 1.0
C      1  0.5434860000000  0.4572440000000  0.4538260000000 1.0
C      1  0.5422240000000  0.5436270000000  0.5458760000000 1.0
C      1  0.5097140000000  0.4724400000000  0.5046710000000 1.0
END
