TITL C-149076-9442-9 242.706834450859 125000 -582.162366848578 0 0 86 (C1) n - 1
REM
REM in /rds/project/t2_vol4/rds-t2-cs072/BORA/CARBON/from-Arr/AIRSS/Generating-Clusters/GAP-ML-2020/Higher-Symm/SD-CG/HFTN-CG
REM
REM
REM
REM
REM
REM ./C.cell (b20cbc046b6831c77cfcea5457e17084)
REM AIRSS Version 0.9.1 bugfix July 2018 build 013d7b7c2542+ Fri, 06 Jul 2018 19:26:36 +0100
REM compiler GCC version 9.3.0
REM options -cpp -mtune=generic -march=x86-64 -g -O0
REM seed -1632005131 -1864617653 -1450735814 -626672923 -1497725979 -1646334968 -1865390495 16792756 -2112882210 -370310125 1931742289 1355651808 344224948 -1917985081 64368083 335764985 -696403010 -766429593 -6868104 89177415 -3885336 534788336 1263352963 -1294463535 609393710 -1803049189 1715362090 385418936 154045049 1576763145 -1653886879 -446009895 257810928
REM
CELL 1.54180   50.00000   50.00000   50.00000   90.00000   90.00000   90.00000
LATT -1
SFAC C  
C      1  0.4707470000000  0.5550310000000  0.5452160000000 1.0
C      1  0.4478980000000  0.5545530000000  0.4871630000000 1.0
C      1  0.4968380000000  0.5542750000000  0.4460130000000 1.0
C      1  0.5495660000000  0.5541580000000  0.4808160000000 1.0
C      1  0.5339310000000  0.5548490000000  0.5424690000000 1.0
C      1  0.5639180000000  0.4576930000000  0.5361520000000 1.0
C      1  0.4866830000000  0.4570560000000  0.5712280000000 1.0
C      1  0.4296300000000  0.4568090000000  0.5087700000000 1.0
C      1  0.4713140000000  0.4584610000000  0.4350350000000 1.0
C      1  0.5544940000000  0.4579480000000  0.4516930000000 1.0
C      1  0.5245260000000  0.5672840000000  0.4901870000000 1.0
C      1  0.5169310000000  0.5680220000000  0.5208040000000 1.0
C      1  0.4854060000000  0.5685850000000  0.5226680000000 1.0
C      1  0.4737490000000  0.5682910000000  0.4931830000000 1.0
C      1  0.4978290000000  0.5676860000000  0.4729920000000 1.0
C      1  0.5550280000000  0.5040240000000  0.4403470000000 1.0
C      1  0.5750710000000  0.5030360000000  0.5318760000000 1.0
C      1  0.4933290000000  0.5021250000000  0.5834660000000 1.0
C      1  0.4190160000000  0.5017390000000  0.5198710000000 1.0
C      1  0.4581840000000  0.5037260000000  0.4301340000000 1.0
C      1  0.5445080000000  0.4782800000000  0.4319670000000 1.0
C      1  0.5802300000000  0.4772300000000  0.5202030000000 1.0
C      1  0.5063980000000  0.4764640000000  0.5825710000000 1.0
C      1  0.4247840000000  0.4758960000000  0.5313800000000 1.0
C      1  0.4484410000000  0.4776560000000  0.4381410000000 1.0
C      1  0.4758990000000  0.5995330000000  0.4938650000000 1.0
C      1  0.4978760000000  0.5990450000000  0.4745050000000 1.0
C      1  0.5230470000000  0.5986060000000  0.4895000000000 1.0
C      1  0.5165660000000  0.5992360000000  0.5181190000000 1.0
C      1  0.4873810000000  0.5996430000000  0.5206540000000 1.0
C      1  0.4261230000000  0.4698140000000  0.4846490000000 1.0
C      1  0.4933310000000  0.4712510000000  0.4242150000000 1.0
C      1  0.5717910000000  0.4697500000000  0.4698000000000 1.0
C      1  0.5514440000000  0.4707370000000  0.5573340000000 1.0
C      1  0.4625790000000  0.4697960000000  0.5665410000000 1.0
C      1  0.5021290000000  0.5099430000000  0.4494130000000 1.0
C      1  0.5487990000000  0.5074110000000  0.4867110000000 1.0
C      1  0.5285090000000  0.5104690000000  0.5436760000000 1.0
C      1  0.4666650000000  0.5110860000000  0.5438590000000 1.0
C      1  0.4484910000000  0.5107560000000  0.4823040000000 1.0
C      1  0.4458950000000  0.4615290000000  0.5457370000000 1.0
C      1  0.4412420000000  0.4625040000000  0.4622670000000 1.0
C      1  0.5192280000000  0.4631310000000  0.4314970000000 1.0
C      1  0.5732110000000  0.4614210000000  0.4965170000000 1.0
C      1  0.5269280000000  0.4618140000000  0.5675910000000 1.0
C      1  0.4725630000000  0.5495450000000  0.4334380000000 1.0
C      1  0.5551510000000  0.5516460000000  0.4535360000000 1.0
C      1  0.5604680000000  0.5483400000000  0.5374840000000 1.0
C      1  0.4853160000000  0.5462350000000  0.5669010000000 1.0
C      1  0.4320440000000  0.5464400000000  0.5081500000000 1.0
C      1  0.5553260000000  0.4445470000000  0.5119410000000 1.0
C      1  0.5070610000000  0.4448970000000  0.5548810000000 1.0
C      1  0.4518670000000  0.4449350000000  0.5226770000000 1.0
C      1  0.4648920000000  0.4458210000000  0.4600880000000 1.0
C      1  0.5284980000000  0.4456010000000  0.4528360000000 1.0
C      1  0.4246890000000  0.4976350000000  0.4922120000000 1.0
C      1  0.4860050000000  0.4989600000000  0.4278270000000 1.0
C      1  0.5659500000000  0.4976580000000  0.4656080000000 1.0
C      1  0.5542230000000  0.4986350000000  0.5505600000000 1.0
C      1  0.4687170000000  0.4978900000000  0.5696160000000 1.0
C      1  0.5046070000000  0.4345930000000  0.5270040000000 1.0
C      1  0.4776070000000  0.4354590000000  0.5112170000000 1.0
C      1  0.4837430000000  0.4354090000000  0.4806100000000 1.0
C      1  0.5148800000000  0.4350470000000  0.4769950000000 1.0
C      1  0.5280110000000  0.4344020000000  0.5057870000000 1.0
C      1  0.4744670000000  0.5000100000000  0.4929270000000 1.0
C      1  0.4998250000000  0.4992060000000  0.4772020000000 1.0
C      1  0.5237720000000  0.4935290000000  0.4937040000000 1.0
C      1  0.5134430000000  0.4999600000000  0.5206460000000 1.0
C      1  0.4836470000000  0.5002390000000  0.5222150000000 1.0
C      1  0.5134450000000  0.4030080000000  0.4784240000000 1.0
C      1  0.5254820000000  0.4025400000000  0.5049050000000 1.0
C      1  0.5040190000000  0.4027000000000  0.5246650000000 1.0
C      1  0.4788370000000  0.4031970000000  0.5102120000000 1.0
C      1  0.4845610000000  0.4033070000000  0.4817860000000 1.0
C      1  0.4506780000000  0.5348800000000  0.5401080000000 1.0
C      1  0.4459910000000  0.5344650000000  0.4667090000000 1.0
C      1  0.5155590000000  0.5330840000000  0.4410960000000 1.0
C      1  0.5591560000000  0.5318070000000  0.4957500000000 1.0
C      1  0.5213410000000  0.5341110000000  0.5581580000000 1.0
C      1  0.4252000000000  0.5295510000000  0.5278430000000 1.0
C      1  0.4529480000000  0.5316500000000  0.4391040000000 1.0
C      1  0.5440310000000  0.5314670000000  0.4391800000000 1.0
C      1  0.5724580000000  0.5304510000000  0.5207810000000 1.0
C      1  0.5025540000000  0.5298430000000  0.5794480000000 1.0
C      1  0.4952600000000  0.5184120000000  0.5024350000000 1.0
END
