TITL C-140572-3909-7 -0.294434048011938 125000 -284.456743778217 0 0 41 (C1) n - 1
REM
REM in /rds/project/t2_vol4/rds-t2-cs072/BORA/CARBON/from-Arr/AIRSS/Generating-Clusters/GAP-ML-2020/Higher-Symm/SD-CG/HFTN-CG
REM
REM
REM
REM
REM
REM ./C.cell (b20cbc046b6831c77cfcea5457e17084)
REM AIRSS Version 0.9.1 bugfix July 2018 build 013d7b7c2542+ Fri, 06 Jul 2018 19:26:36 +0100
REM compiler GCC version 9.3.0
REM options -cpp -mtune=generic -march=x86-64 -g -O0
REM seed 1635969968 -441311210 -187868465 1018410705 -478310003 -456843683 -1195182829 -136472177 1390135358 -594727820 911880016 -491152533 2012850531 9164264 -1960846408 -960428278 1501574432 897267323 2071912177 644243359 -1091781076 810641098 1605965522 282432030 -725633334 -683014172 2019324362 172670518 -1865092278 13956356 612820553 -669289336 -1116331079
REM
CELL 1.54180   50.00000   50.00000   50.00000   90.00000   90.00000   90.00000
LATT -1
SFAC C  
C      1  0.5256560000000  0.4865080000000  0.4588740000000 1.0
C      1  0.5196500000000  0.4593500000000  0.4673320000000 1.0
C      1  0.5317580000000  0.4486460000000  0.4928040000000 1.0
C      1  0.5307430000000  0.4767750000000  0.5451060000000 1.0
C      1  0.5206100000000  0.5033050000000  0.5531140000000 1.0
C      1  0.5300530000000  0.5274300000000  0.5390940000000 1.0
C      1  0.5294890000000  0.5560480000000  0.4886480000000 1.0
C      1  0.5305100000000  0.5433020000000  0.4619820000000 1.0
C      1  0.5643400000000  0.4863300000000  0.4904700000000 1.0
C      1  0.5538750000000  0.4623880000000  0.5026270000000 1.0
C      1  0.5537210000000  0.4758770000000  0.5288450000000 1.0
C      1  0.5646260000000  0.4995780000000  0.5167050000000 1.0
C      1  0.5528080000000  0.5249410000000  0.5204460000000 1.0
C      1  0.5528390000000  0.5402560000000  0.4967220000000 1.0
C      1  0.5525720000000  0.5268530000000  0.4705590000000 1.0
C      1  0.5510830000000  0.4986490000000  0.4685910000000 1.0
C      1  0.4851220000000  0.5473210000000  0.4501780000000 1.0
C      1  0.4752510000000  0.5017570000000  0.4538240000000 1.0
C      1  0.4723690000000  0.4543520000000  0.4696820000000 1.0
C      1  0.4858690000000  0.4379640000000  0.5139190000000 1.0
C      1  0.4844240000000  0.4545200000000  0.5386980000000 1.0
C      1  0.4718250000000  0.5003730000000  0.5476910000000 1.0
C      1  0.4858680000000  0.5482990000000  0.5456190000000 1.0
C      1  0.4800800000000  0.5577790000000  0.5003760000000 1.0
C      1  0.4661430000000  0.4460600000000  0.4965550000000 1.0
C      1  0.4523320000000  0.4688790000000  0.5095600000000 1.0
C      1  0.4653280000000  0.4751110000000  0.5348910000000 1.0
C      1  0.4671270000000  0.5283780000000  0.5428860000000 1.0
C      1  0.4667860000000  0.5502160000000  0.5244240000000 1.0
C      1  0.4718920000000  0.5509720000000  0.4740500000000 1.0
C      1  0.4650850000000  0.5288490000000  0.4568760000000 1.0
C      1  0.4611540000000  0.4807210000000  0.4660310000000 1.0
C      1  0.4951760000000  0.5024270000000  0.5634420000000 1.0
C      1  0.5119550000000  0.5482580000000  0.5338410000000 1.0
C      1  0.5084570000000  0.5587050000000  0.5068840000000 1.0
C      1  0.5096530000000  0.5325550000000  0.4478540000000 1.0
C      1  0.5042130000000  0.5041120000000  0.4497170000000 1.0
C      1  0.4960110000000  0.4482540000000  0.4588880000000 1.0
C      1  0.5143060000000  0.4401780000000  0.5138270000000 1.0
C      1  0.5130660000000  0.4554850000000  0.5397630000000 1.0
C      1  0.4441840000000  0.4848640000000  0.4887470000000 1.0
END
