TITL C-148570-4720-6 -71.6705148573767 125000 -341.945637186008 0 0 51 (Ci) n - 1
REM
REM in /rds/project/t2_vol4/rds-t2-cs072/BORA/CARBON/from-Arr/AIRSS/Generating-Clusters/GAP-ML-2020/Higher-Symm/SD-CG/HFTN-CG
REM
REM
REM
REM
REM
REM ./C.cell (b20cbc046b6831c77cfcea5457e17084)
REM AIRSS Version 0.9.1 bugfix July 2018 build 013d7b7c2542+ Fri, 06 Jul 2018 19:26:36 +0100
REM compiler GCC version 9.3.0
REM options -cpp -mtune=generic -march=x86-64 -g -O0
REM seed -567042587 -1685676336 427450036 1970315436 -991422564 53645583 -497332635 1883671731 1382893321 -934698139 -1876345084 -1459537547 -1489846557 -622549981 86396827 -1732927445 -1532514345 160422281 916699168 -1374122755 1242756595 -1290786163 1485748250 2146493902 1341548069 243166129 1045916276 342642839 -1566197965 -283222714 -1815299932 1241461360 1987920161
REM
CELL 1.54180   50.00000   50.00000   50.00000   90.00000   90.00000   90.00000
LATT -1
SFAC C  
C      1  0.5257740000000  0.5161460000000  0.4923330000000 1.0
C      1  0.4755650000000  0.4855230000000  0.5072850000000 1.0
C      1  0.4926010000000  0.4596360000000  0.4447890000000 1.0
C      1  0.5087390000000  0.5420340000000  0.5548290000000 1.0
C      1  0.5484040000000  0.4975110000000  0.4885500000000 1.0
C      1  0.4529360000000  0.5041590000000  0.5110680000000 1.0
C      1  0.5233090000000  0.4988250000000  0.4434780000000 1.0
C      1  0.4780310000000  0.5028440000000  0.5561400000000 1.0
C      1  0.5244600000000  0.5000430000000  0.5659500000000 1.0
C      1  0.4768790000000  0.5016270000000  0.4336680000000 1.0
C      1  0.4652260000000  0.4602950000000  0.4528150000000 1.0
C      1  0.5361140000000  0.5413750000000  0.5468030000000 1.0
C      1  0.4847410000000  0.5093530000000  0.4774130000000 1.0
C      1  0.5165990000000  0.4923170000000  0.5222050000000 1.0
C      1  0.5459540000000  0.5150390000000  0.5519850000000 1.0
C      1  0.4553860000000  0.4866310000000  0.4476330000000 1.0
C      1  0.5392260000000  0.5557630000000  0.5215210000000 1.0
C      1  0.4621140000000  0.4459060000000  0.4780970000000 1.0
C      1  0.4409850000000  0.4976460000000  0.4697710000000 1.0
C      1  0.5603540000000  0.5040230000000  0.5298470000000 1.0
C      1  0.5011920000000  0.5168440000000  0.5656890000000 1.0
C      1  0.5001480000000  0.4848260000000  0.4339290000000 1.0
C      1  0.4861940000000  0.4756510000000  0.5532900000000 1.0
C      1  0.5151460000000  0.5260190000000  0.4463280000000 1.0
C      1  0.5079110000000  0.4471710000000  0.4653120000000 1.0
C      1  0.4934280000000  0.5544990000000  0.5343060000000 1.0
C      1  0.5065090000000  0.5587740000000  0.4835270000000 1.0
C      1  0.4948310000000  0.4428960000000  0.5160910000000 1.0
C      1  0.5451400000000  0.4554100000000  0.5288550000000 1.0
C      1  0.4561990000000  0.5462600000000  0.4707630000000 1.0
C      1  0.4686140000000  0.5424940000000  0.5347220000000 1.0
C      1  0.5327260000000  0.4591750000000  0.4648950000000 1.0
C      1  0.4893110000000  0.4397650000000  0.4876230000000 1.0
C      1  0.5120280000000  0.5619040000000  0.5119950000000 1.0
C      1  0.5198610000000  0.4399160000000  0.5289970000000 1.0
C      1  0.4814790000000  0.5617540000000  0.4706220000000 1.0
C      1  0.4409660000000  0.4553220000000  0.4937120000000 1.0
C      1  0.5603730000000  0.5463470000000  0.5059060000000 1.0
C      1  0.5219130000000  0.5376240000000  0.4714270000000 1.0
C      1  0.4794270000000  0.4640450000000  0.5281910000000 1.0
C      1  0.4873660000000  0.5278390000000  0.4370970000000 1.0
C      1  0.5139730000000  0.4738310000000  0.5625210000000 1.0
C      1  0.5456000000000  0.4821220000000  0.5167320000000 1.0
C      1  0.4557400000000  0.5195480000000  0.4828860000000 1.0
C      1  0.4602200000000  0.5165050000000  0.5369230000000 1.0
C      1  0.5411200000000  0.4851650000000  0.4626950000000 1.0
C      1  0.5286470000000  0.4532780000000  0.5509580000000 1.0
C      1  0.4726920000000  0.5483920000000  0.4486600000000 1.0
C      1  0.4373730000000  0.4824700000000  0.4946470000000 1.0
C      1  0.5639660000000  0.5191990000000  0.5049710000000 1.0
C      1  0.5006690000000  0.5008340000000  0.4998090000000 1.0
END
