TITL C-149063-9415-1 0.110521521411769 125000 -636.006098728993 0 0 94 (C1) n - 1
REM
REM in /rds/project/t2_vol4/rds-t2-cs072/BORA/CARBON/from-Arr/AIRSS/Generating-Clusters/GAP-ML-2020/Higher-Symm/SD-CG/HFTN-CG
REM
REM
REM
REM
REM
REM ./C.cell (b20cbc046b6831c77cfcea5457e17084)
REM AIRSS Version 0.9.1 bugfix July 2018 build 013d7b7c2542+ Fri, 06 Jul 2018 19:26:36 +0100
REM compiler GCC version 9.3.0
REM options -cpp -mtune=generic -march=x86-64 -g -O0
REM seed 1446663805 1698804348 580124981 -2006859693 -1570542853 -1082427725 794811491 -156415028 2037944880 2119754153 1818378977 -1534047427 117139160 -1096130765 1635753596 2135210225 471676233 -718348743 2060006525 277697160 -2097568649 -649953406 1416112598 1344525295 -537200458 -1156596120 -1275212885 -140216134 1369612162 -706157887 426971318 -2130507226 1334568773
REM
CELL 1.54180   50.00000   50.00000   50.00000   90.00000   90.00000   90.00000
LATT -1
SFAC C  
C      1  0.5225250000000  0.5595800000000  0.4576970000000 1.0
C      1  0.5788220000000  0.4488340000000  0.4975720000000 1.0
C      1  0.4522620000000  0.5130160000000  0.5623880000000 1.0
C      1  0.5210430000000  0.4458670000000  0.5729160000000 1.0
C      1  0.5015480000000  0.5888000000000  0.5512690000000 1.0
C      1  0.4768360000000  0.4376470000000  0.4502380000000 1.0
C      1  0.5691700000000  0.5462360000000  0.4817860000000 1.0
C      1  0.4367170000000  0.4427130000000  0.4806160000000 1.0
C      1  0.4227610000000  0.5415210000000  0.5071940000000 1.0
C      1  0.4470990000000  0.4742900000000  0.4458780000000 1.0
C      1  0.5506450000000  0.5255820000000  0.4331960000000 1.0
C      1  0.5446900000000  0.4879660000000  0.5785440000000 1.0
C      1  0.5137940000000  0.5052360000000  0.4527110000000 1.0
C      1  0.5022250000000  0.4550790000000  0.5211260000000 1.0
C      1  0.4634460000000  0.5411600000000  0.4955390000000 1.0
C      1  0.5326730000000  0.5196490000000  0.5448090000000 1.0
C      1  0.4709050000000  0.4918320000000  0.5236180000000 1.0
C      1  0.4842150000000  0.5114240000000  0.4581830000000 1.0
C      1  0.4846240000000  0.5266200000000  0.4843110000000 1.0
C      1  0.5178100000000  0.4749810000000  0.4560200000000 1.0
C      1  0.5175850000000  0.5444930000000  0.5499220000000 1.0
C      1  0.4815280000000  0.4713010000000  0.5099460000000 1.0
C      1  0.5407010000000  0.5262040000000  0.5178770000000 1.0
C      1  0.5379140000000  0.4666320000000  0.4788200000000 1.0
C      1  0.5152680000000  0.5539380000000  0.5792570000000 1.0
C      1  0.5586310000000  0.5595450000000  0.5235800000000 1.0
C      1  0.5619710000000  0.5182270000000  0.5535450000000 1.0
C      1  0.5197780000000  0.4367440000000  0.4345710000000 1.0
C      1  0.4811190000000  0.5525910000000  0.4376240000000 1.0
C      1  0.4723410000000  0.4405470000000  0.5650130000000 1.0
C      1  0.5393090000000  0.4366450000000  0.4801930000000 1.0
C      1  0.4484030000000  0.5553900000000  0.4737720000000 1.0
C      1  0.4443140000000  0.4306640000000  0.5248500000000 1.0
C      1  0.5587300000000  0.4757260000000  0.4363560000000 1.0
C      1  0.4402490000000  0.5190800000000  0.4375380000000 1.0
C      1  0.4343160000000  0.4699160000000  0.5506690000000 1.0
C      1  0.5348060000000  0.4813540000000  0.5044010000000 1.0
C      1  0.4925840000000  0.5102900000000  0.5276230000000 1.0
C      1  0.5031530000000  0.5190500000000  0.5026790000000 1.0
C      1  0.5299010000000  0.5092390000000  0.4976760000000 1.0
C      1  0.4765590000000  0.4708800000000  0.4836960000000 1.0
C      1  0.4491010000000  0.5413740000000  0.5211020000000 1.0
C      1  0.4695740000000  0.4864650000000  0.4615210000000 1.0
C      1  0.5332720000000  0.5171430000000  0.4703430000000 1.0
C      1  0.5130740000000  0.4971090000000  0.5447240000000 1.0
C      1  0.5249710000000  0.4715020000000  0.5308590000000 1.0
C      1  0.4889510000000  0.5355920000000  0.5415280000000 1.0
C      1  0.4909080000000  0.4633890000000  0.4613230000000 1.0
C      1  0.5689950000000  0.5318130000000  0.5273200000000 1.0
C      1  0.5217400000000  0.5318230000000  0.5945490000000 1.0
C      1  0.5319320000000  0.5652810000000  0.5330410000000 1.0
C      1  0.5635350000000  0.4732920000000  0.4653130000000 1.0
C      1  0.4340860000000  0.5302690000000  0.4627170000000 1.0
C      1  0.4287520000000  0.4547370000000  0.5266020000000 1.0
C      1  0.5322520000000  0.4618640000000  0.4339280000000 1.0
C      1  0.4688880000000  0.5261890000000  0.4315990000000 1.0
C      1  0.4583400000000  0.4658150000000  0.5669580000000 1.0
C      1  0.5194110000000  0.4249320000000  0.4632800000000 1.0
C      1  0.4741250000000  0.5664830000000  0.4605760000000 1.0
C      1  0.4676900000000  0.4272340000000  0.5401240000000 1.0
C      1  0.5092630000000  0.5487460000000  0.4367150000000 1.0
C      1  0.5617410000000  0.4297270000000  0.4962310000000 1.0
C      1  0.4322990000000  0.4972320000000  0.5534380000000 1.0
C      1  0.4981480000000  0.4352730000000  0.5761370000000 1.0
C      1  0.5032980000000  0.5793550000000  0.5748250000000 1.0
C      1  0.4930910000000  0.4377840000000  0.4267960000000 1.0
C      1  0.5690340000000  0.5674920000000  0.4984910000000 1.0
C      1  0.4509200000000  0.4242090000000  0.4973860000000 1.0
C      1  0.4256740000000  0.5649780000000  0.4916230000000 1.0
C      1  0.4334490000000  0.4924130000000  0.4317340000000 1.0
C      1  0.5609990000000  0.5013510000000  0.4278910000000 1.0
C      1  0.5686860000000  0.5013530000000  0.5735700000000 1.0
C      1  0.4709140000000  0.4917780000000  0.5723230000000 1.0
C      1  0.5004220000000  0.5744440000000  0.4738710000000 1.0
C      1  0.5848590000000  0.4737960000000  0.4850180000000 1.0
C      1  0.4809830000000  0.5157650000000  0.4060580000000 1.0
C      1  0.5210060000000  0.5235540000000  0.4270350000000 1.0
C      1  0.5208010000000  0.5048540000000  0.5893890000000 1.0
C      1  0.4900970000000  0.4276280000000  0.5211220000000 1.0
C      1  0.5117050000000  0.5848860000000  0.5245630000000 1.0
C      1  0.4920810000000  0.4193930000000  0.4704760000000 1.0
C      1  0.5815730000000  0.5229320000000  0.5013810000000 1.0
C      1  0.4243410000000  0.4649880000000  0.4992790000000 1.0
C      1  0.4216590000000  0.5174780000000  0.4873630000000 1.0
C      1  0.4175950000000  0.4909860000000  0.4928520000000 1.0
C      1  0.5059820000000  0.5136730000000  0.4034070000000 1.0
C      1  0.4792770000000  0.4182050000000  0.4952860000000 1.0
C      1  0.5906360000000  0.4980980000000  0.4968240000000 1.0
C      1  0.4994420000000  0.4946420000000  0.5720400000000 1.0
C      1  0.5017730000000  0.5861660000000  0.4987290000000 1.0
C      1  0.5371920000000  0.4647510000000  0.5613630000000 1.0
C      1  0.4607520000000  0.5367810000000  0.5469770000000 1.0
C      1  0.5473710000000  0.5409800000000  0.4611070000000 1.0
C      1  0.4478870000000  0.4466780000000  0.4548630000000 1.0
END
