TITL C-149059-9387-4 584.745767964375 125000 -655.616835378117 0 0 94 (C3) n - 1
REM
REM in /rds/project/t2_vol4/rds-t2-cs072/BORA/CARBON/from-Arr/AIRSS/Generating-Clusters/GAP-ML-2020/Higher-Symm/SD-CG/HFTN-CG
REM
REM
REM
REM
REM
REM ./C.cell (b20cbc046b6831c77cfcea5457e17084)
REM AIRSS Version 0.9.1 bugfix July 2018 build 013d7b7c2542+ Fri, 06 Jul 2018 19:26:36 +0100
REM compiler GCC version 9.3.0
REM options -cpp -mtune=generic -march=x86-64 -g -O0
REM seed 90448408 -82165647 52252931 489183314 1039308837 1292262604 1458763812 -1910588264 1516152864 970315255 1951777926 1751862908 -1363242648 1119102149 203727721 697070410 612353420 -2077220175 1563343074 -2044654163 -31047195 -1745266697 2078708232 -929925399 1952456225 -1667150404 1401060088 1523487873 -1405684395 -160801978 -893348465 869654407 -1109026530
REM
CELL 1.54180   50.00000   50.00000   50.00000   90.00000   90.00000   90.00000
LATT -1
SFAC C  
C      1  0.4316630000000  0.5427660000000  0.5329150000000 1.0
C      1  0.4316450000000  0.4493030000000  0.5207610000000 1.0
C      1  0.4316530000000  0.5065610000000  0.4458970000000 1.0
C      1  0.5110470000000  0.5185490000000  0.4771400000000 1.0
C      1  0.5110470000000  0.5096900000000  0.5276830000000 1.0
C      1  0.5110380000000  0.4703480000000  0.4947390000000 1.0
C      1  0.4190740000000  0.4963580000000  0.5288350000000 1.0
C      1  0.4190680000000  0.4760450000000  0.4826090000000 1.0
C      1  0.4190780000000  0.5262350000000  0.4881300000000 1.0
C      1  0.5407030000000  0.4699110000000  0.4883880000000 1.0
C      1  0.5407130000000  0.5242580000000  0.4799410000000 1.0
C      1  0.5407110000000  0.5044000000000  0.5312290000000 1.0
C      1  0.4960400000000  0.4392100000000  0.4949470000000 1.0
C      1  0.4960560000000  0.5339430000000  0.4500680000000 1.0
C      1  0.4960590000000  0.5254420000000  0.5545490000000 1.0
C      1  0.5897320000000  0.4980710000000  0.4714240000000 1.0
C      1  0.5897390000000  0.5248540000000  0.5128150000000 1.0
C      1  0.5897290000000  0.4756160000000  0.5153150000000 1.0
C      1  0.5248210000000  0.4130600000000  0.4702710000000 1.0
C      1  0.5248490000000  0.5683780000000  0.4397640000000 1.0
C      1  0.5248450000000  0.5171400000000  0.5895260000000 1.0
C      1  0.5010160000000  0.4899320000000  0.4736310000000 1.0
C      1  0.5010240000000  0.5270400000000  0.5046540000000 1.0
C      1  0.5010160000000  0.4816190000000  0.5212790000000 1.0
C      1  0.4454600000000  0.4604730000000  0.4432550000000 1.0
C      1  0.4454820000000  0.5680940000000  0.4943240000000 1.0
C      1  0.4454660000000  0.4700560000000  0.5619920000000 1.0
C      1  0.5716690000000  0.4992310000000  0.4500110000000 1.0
C      1  0.5716800000000  0.5428240000000  0.5245240000000 1.0
C      1  0.5716640000000  0.4564970000000  0.5250200000000 1.0
C      1  0.4187240000000  0.5028410000000  0.4712240000000 1.0
C      1  0.4187290000000  0.5226960000000  0.5170290000000 1.0
C      1  0.4187200000000  0.4731000000000  0.5113210000000 1.0
C      1  0.5038420000000  0.5790560000000  0.4559190000000 1.0
C      1  0.5038310000000  0.4978160000000  0.5906930000000 1.0
C      1  0.5038120000000  0.4217180000000  0.4529500000000 1.0
C      1  0.4895070000000  0.5740050000000  0.5087830000000 1.0
C      1  0.4894860000000  0.4545650000000  0.5598860000000 1.0
C      1  0.4894840000000  0.4700280000000  0.4308960000000 1.0
C      1  0.5550500000000  0.5288300000000  0.5432380000000 1.0
C      1  0.5550340000000  0.4472920000000  0.5035420000000 1.0
C      1  0.5550460000000  0.5224390000000  0.4527770000000 1.0
C      1  0.5322430000000  0.4404030000000  0.5402360000000 1.0
C      1  0.5322490000000  0.4941130000000  0.4284610000000 1.0
C      1  0.5322660000000  0.5640580000000  0.5308630000000 1.0
C      1  0.5553530000000  0.4568600000000  0.5478250000000 1.0
C      1  0.5553530000000  0.4793050000000  0.4389210000000 1.0
C      1  0.5553710000000  0.5623960000000  0.5128110000000 1.0
C      1  0.4726680000000  0.5728980000000  0.4860180000000 1.0
C      1  0.4726530000000  0.4748380000000  0.5703080000000 1.0
C      1  0.4726440000000  0.4508720000000  0.4432410000000 1.0
C      1  0.4794320000000  0.4341620000000  0.4665400000000 1.0
C      1  0.4794560000000  0.5610740000000  0.4598990000000 1.0
C      1  0.4794490000000  0.5033690000000  0.5731280000000 1.0
C      1  0.5370860000000  0.5487010000000  0.5540190000000 1.0
C      1  0.5370610000000  0.4280260000000  0.5153590000000 1.0
C      1  0.5370750000000  0.5218440000000  0.4301810000000 1.0
C      1  0.4493450000000  0.5365730000000  0.5543700000000 1.0
C      1  0.4493240000000  0.4338140000000  0.5046710000000 1.0
C      1  0.4493390000000  0.5282340000000  0.4405290000000 1.0
C      1  0.4451010000000  0.5647470000000  0.5216400000000 1.0
C      1  0.4450800000000  0.4480730000000  0.5454350000000 1.0
C      1  0.4450830000000  0.4858030000000  0.4324950000000 1.0
C      1  0.5900810000000  0.4757620000000  0.4871070000000 1.0
C      1  0.5900900000000  0.5224270000000  0.4856530000000 1.0
C      1  0.5900870000000  0.5003530000000  0.5267930000000 1.0
C      1  0.4728330000000  0.4938010000000  0.4846670000000 1.0
C      1  0.4728370000000  0.5155560000000  0.5024830000000 1.0
C      1  0.4728330000000  0.4892500000000  0.5124160000000 1.0
C      1  0.4752160000000  0.4321000000000  0.5158020000000 1.0
C      1  0.4752290000000  0.5194440000000  0.4334810000000 1.0
C      1  0.4752390000000  0.5470630000000  0.5502840000000 1.0
C      1  0.4322360000000  0.4934250000000  0.5546370000000 1.0
C      1  0.4322250000000  0.4551620000000  0.4671690000000 1.0
C      1  0.4322430000000  0.5500430000000  0.4777660000000 1.0
C      1  0.4504350000000  0.4352810000000  0.4773620000000 1.0
C      1  0.4504560000000  0.5511510000000  0.4554540000000 1.0
C      1  0.4504530000000  0.5121880000000  0.5667540000000 1.0
C      1  0.5311030000000  0.4333790000000  0.4517620000000 1.0
C      1  0.5311300000000  0.5742460000000  0.4666150000000 1.0
C      1  0.5311180000000  0.4909500000000  0.5811830000000 1.0
C      1  0.5184990000000  0.5424700000000  0.4310820000000 1.0
C      1  0.5185040000000  0.5376140000000  0.5714290000000 1.0
C      1  0.5184790000000  0.4184980000000  0.4970510000000 1.0
C      1  0.5382340000000  0.5554990000000  0.4887570000000 1.0
C      1  0.5382220000000  0.4811460000000  0.5538770000000 1.0
C      1  0.5382150000000  0.4619260000000  0.4569260000000 1.0
C      1  0.5131880000000  0.4786080000000  0.4457250000000 1.0
C      1  0.5132060000000  0.5568650000000  0.5088020000000 1.0
C      1  0.5131890000000  0.4631110000000  0.5450360000000 1.0
C      1  0.4722930000000  0.5673440000000  0.5308400000000 1.0
C      1  0.4722700000000  0.4387980000000  0.5430870000000 1.0
C      1  0.4722750000000  0.4924650000000  0.4256400000000 1.0
C      1  0.5493600000000  0.4995210000000  0.4998530000000 1.0
END
