TITL C-148562-4707-1 53.8092927271416 125000 -800.503184456112 0 0 116 (C1) n - 1
REM
REM in /rds/project/t2_vol4/rds-t2-cs072/BORA/CARBON/from-Arr/AIRSS/Generating-Clusters/GAP-ML-2020/Higher-Symm/SD-CG/HFTN-CG
REM
REM
REM
REM
REM
REM ./C.cell (b20cbc046b6831c77cfcea5457e17084)
REM AIRSS Version 0.9.1 bugfix July 2018 build 013d7b7c2542+ Fri, 06 Jul 2018 19:26:36 +0100
REM compiler GCC version 9.3.0
REM options -cpp -mtune=generic -march=x86-64 -g -O0
REM seed -162693173 -368537839 62452618 -779341017 656776820 2114943578 -2053585787 1755013068 1046908126 -587189947 -1307978262 1350132534 2086588547 -954480948 1617840398 -1375185697 280735544 -443172170 413252919 -1983794649 -668989447 -304320763 1990356918 1552329900 -1615571244 -1384729814 992834752 627967039 661525595 678783450 -1618519364 -2122575311 -932869795
REM
CELL 1.54180   50.00000   50.00000   50.00000   90.00000   90.00000   90.00000
LATT -1
SFAC C  
C      1  0.5843890000000  0.4607490000000  0.5168640000000 1.0
C      1  0.4640120000000  0.5114640000000  0.5861880000000 1.0
C      1  0.5171890000000  0.5775660000000  0.4688100000000 1.0
C      1  0.4219080000000  0.5364890000000  0.5168510000000 1.0
C      1  0.5738080000000  0.5255120000000  0.4839410000000 1.0
C      1  0.4322650000000  0.4704270000000  0.4861350000000 1.0
C      1  0.5192420000000  0.4808040000000  0.5831460000000 1.0
C      1  0.4573220000000  0.4857260000000  0.4116840000000 1.0
C      1  0.5304480000000  0.5166800000000  0.4137150000000 1.0
C      1  0.4845600000000  0.4233300000000  0.4636930000000 1.0
C      1  0.5139610000000  0.4158600000000  0.5329640000000 1.0
C      1  0.4842820000000  0.5842020000000  0.5356680000000 1.0
C      1  0.5859270000000  0.4594490000000  0.4875060000000 1.0
C      1  0.4581430000000  0.5154870000000  0.4129490000000 1.0
C      1  0.5132820000000  0.5782220000000  0.5279660000000 1.0
C      1  0.4301010000000  0.5292820000000  0.4887910000000 1.0
C      1  0.5707070000000  0.5260820000000  0.5169190000000 1.0
C      1  0.4392990000000  0.4705300000000  0.5163560000000 1.0
C      1  0.5301910000000  0.4869700000000  0.4147760000000 1.0
C      1  0.4703000000000  0.4804720000000  0.5851700000000 1.0
C      1  0.5187390000000  0.5387390000000  0.5837680000000 1.0
C      1  0.4844490000000  0.4222660000000  0.5259980000000 1.0
C      1  0.5147470000000  0.4204370000000  0.4635110000000 1.0
C      1  0.4870820000000  0.5815520000000  0.4646750000000 1.0
C      1  0.4850700000000  0.4863360000000  0.4035060000000 1.0
C      1  0.4834930000000  0.3990330000000  0.4810720000000 1.0
C      1  0.4060060000000  0.4830580000000  0.4805240000000 1.0
C      1  0.5064310000000  0.5329440000000  0.4121330000000 1.0
C      1  0.4796220000000  0.5169020000000  0.6091610000000 1.0
C      1  0.5128130000000  0.4934660000000  0.6070510000000 1.0
C      1  0.5158420000000  0.6035130000000  0.4839660000000 1.0
C      1  0.4835560000000  0.6033630000000  0.5141480000000 1.0
C      1  0.5148090000000  0.3976120000000  0.5115610000000 1.0
C      1  0.5988770000000  0.5109550000000  0.4874270000000 1.0
C      1  0.4089340000000  0.5115830000000  0.5199460000000 1.0
C      1  0.6018100000000  0.4836360000000  0.5186120000000 1.0
C      1  0.4840400000000  0.4872760000000  0.6126480000000 1.0
C      1  0.4829520000000  0.3981220000000  0.5088760000000 1.0
C      1  0.4251220000000  0.4915970000000  0.5323140000000 1.0
C      1  0.5086460000000  0.5224320000000  0.6047080000000 1.0
C      1  0.4856020000000  0.5156950000000  0.4042700000000 1.0
C      1  0.5066870000000  0.4703270000000  0.4117090000000 1.0
C      1  0.5144380000000  0.6031020000000  0.5116480000000 1.0
C      1  0.4847840000000  0.6016130000000  0.4851480000000 1.0
C      1  0.5148250000000  0.4000620000000  0.4834170000000 1.0
C      1  0.5969050000000  0.5114030000000  0.5176470000000 1.0
C      1  0.4057690000000  0.5073370000000  0.4909350000000 1.0
C      1  0.6021240000000  0.4830580000000  0.4869480000000 1.0
C      1  0.4404310000000  0.5535710000000  0.4768450000000 1.0
C      1  0.5500810000000  0.4785180000000  0.4332290000000 1.0
C      1  0.4736140000000  0.4313840000000  0.5526360000000 1.0
C      1  0.5585800000000  0.4567690000000  0.4773730000000 1.0
C      1  0.4366050000000  0.4425030000000  0.5254840000000 1.0
C      1  0.5623120000000  0.5529800000000  0.5238990000000 1.0
C      1  0.4463730000000  0.5249990000000  0.4363290000000 1.0
C      1  0.5430170000000  0.5318240000000  0.5679550000000 1.0
C      1  0.4476760000000  0.4714000000000  0.5687050000000 1.0
C      1  0.5259230000000  0.5712240000000  0.5528720000000 1.0
C      1  0.4773740000000  0.5652230000000  0.4435820000000 1.0
C      1  0.5254170000000  0.4381470000000  0.4442050000000 1.0
C      1  0.4402570000000  0.5534220000000  0.5278320000000 1.0
C      1  0.5417410000000  0.4796210000000  0.5666690000000 1.0
C      1  0.4763530000000  0.4360850000000  0.4376760000000 1.0
C      1  0.5559870000000  0.4568030000000  0.5246160000000 1.0
C      1  0.4438710000000  0.4440690000000  0.4772350000000 1.0
C      1  0.5672850000000  0.5518110000000  0.4726080000000 1.0
C      1  0.4477400000000  0.5224800000000  0.5666410000000 1.0
C      1  0.5517360000000  0.5260520000000  0.4295850000000 1.0
C      1  0.4425400000000  0.4736980000000  0.4318740000000 1.0
C      1  0.5256950000000  0.5664340000000  0.4426950000000 1.0
C      1  0.4774580000000  0.5651730000000  0.5560030000000 1.0
C      1  0.5216960000000  0.4350680000000  0.5524020000000 1.0
C      1  0.5151130000000  0.4538380000000  0.5006010000000 1.0
C      1  0.4727220000000  0.5199930000000  0.5150710000000 1.0
C      1  0.5287620000000  0.5292690000000  0.4707460000000 1.0
C      1  0.4819430000000  0.5462280000000  0.5029330000000 1.0
C      1  0.5269070000000  0.5553350000000  0.4878460000000 1.0
C      1  0.4742970000000  0.4462480000000  0.4805780000000 1.0
C      1  0.5523340000000  0.4842830000000  0.5142730000000 1.0
C      1  0.4520040000000  0.4898130000000  0.4732770000000 1.0
C      1  0.5528940000000  0.5088500000000  0.4718770000000 1.0
C      1  0.4764060000000  0.4743750000000  0.4687910000000 1.0
C      1  0.4945470000000  0.4726450000000  0.5685290000000 1.0
C      1  0.4953490000000  0.5091600000000  0.5290230000000 1.0
C      1  0.5185580000000  0.4781980000000  0.4880860000000 1.0
C      1  0.4564150000000  0.5130580000000  0.4900180000000 1.0
C      1  0.5191280000000  0.5238930000000  0.5244020000000 1.0
C      1  0.4801340000000  0.5288700000000  0.4787730000000 1.0
C      1  0.5105030000000  0.5512560000000  0.5114100000000 1.0
C      1  0.4871290000000  0.4473020000000  0.5075440000000 1.0
C      1  0.5470460000000  0.4843340000000  0.4865690000000 1.0
C      1  0.4732200000000  0.4705130000000  0.5201010000000 1.0
C      1  0.5477200000000  0.5093180000000  0.5279760000000 1.0
C      1  0.4886850000000  0.4845880000000  0.5394200000000 1.0
C      1  0.5009770000000  0.4882700000000  0.4691600000000 1.0
C      1  0.5026350000000  0.5160720000000  0.4674850000000 1.0
C      1  0.5600120000000  0.5030670000000  0.4439780000000 1.0
C      1  0.4363170000000  0.4963540000000  0.5573030000000 1.0
C      1  0.4393550000000  0.4281740000000  0.5016350000000 1.0
C      1  0.5544910000000  0.5632370000000  0.4962680000000 1.0
C      1  0.4546960000000  0.5613220000000  0.5027440000000 1.0
C      1  0.5430860000000  0.4431380000000  0.5010260000000 1.0
C      1  0.5021680000000  0.5568810000000  0.4286740000000 1.0
C      1  0.5049710000000  0.5596050000000  0.5688990000000 1.0
C      1  0.4967360000000  0.4434460000000  0.5646610000000 1.0
C      1  0.5023600000000  0.4464690000000  0.4273680000000 1.0
C      1  0.4394610000000  0.4986680000000  0.4478810000000 1.0
C      1  0.5498220000000  0.5059280000000  0.5574990000000 1.0
C      1  0.5431280000000  0.4548590000000  0.5508800000000 1.0
C      1  0.4531690000000  0.5485450000000  0.5537100000000 1.0
C      1  0.5488660000000  0.4543920000000  0.4487140000000 1.0
C      1  0.4522180000000  0.5501150000000  0.4498010000000 1.0
C      1  0.5480040000000  0.5481160000000  0.4480420000000 1.0
C      1  0.4507240000000  0.4491410000000  0.4440950000000 1.0
C      1  0.5486740000000  0.5541250000000  0.5495780000000 1.0
C      1  0.4490660000000  0.4455060000000  0.5531900000000 1.0
END
