TITL C-140542-1810-7 -461.625303151031 125000 -655.728892839119 0 0 90 (C1) n - 1
REM
REM in /rds/project/t2_vol4/rds-t2-cs072/BORA/CARBON/from-Arr/AIRSS/Generating-Clusters/GAP-ML-2020/Higher-Symm/SD-CG/HFTN-CG
REM
REM
REM
REM
REM
REM ./C.cell (b20cbc046b6831c77cfcea5457e17084)
REM AIRSS Version 0.9.1 bugfix July 2018 build 013d7b7c2542+ Fri, 06 Jul 2018 19:26:36 +0100
REM compiler GCC version 9.3.0
REM options -cpp -mtune=generic -march=x86-64 -g -O0
REM seed 1242046080 426955439 604053027 -344555046 -1910432550 2036936162 -1228932992 -790895163 19115738 1223559823 458640400 1490390074 -906281391 -693760029 515965695 1364024408 986288312 -358660476 -1725118282 -1710052740 1585283790 -125542949 -1734619159 -1830338148 263244481 -686192964 360599292 -1551407947 -548838118 311339714 -1733948930 -1586679536 -1629812421
REM
CELL 1.54180   50.00000   50.00000   50.00000   90.00000   90.00000   90.00000
LATT -1
SFAC C  
C      1  0.5579370000000  0.4861710000000  0.5509520000000 1.0
C      1  0.5752470000000  0.4852000000000  0.5022660000000 1.0
C      1  0.5557820000000  0.4836920000000  0.4541540000000 1.0
C      1  0.5126620000000  0.4809990000000  0.4255850000000 1.0
C      1  0.4619680000000  0.4786880000000  0.4324380000000 1.0
C      1  0.4275060000000  0.4771180000000  0.4722770000000 1.0
C      1  0.4266410000000  0.4782480000000  0.5252930000000 1.0
C      1  0.4606520000000  0.4815130000000  0.5665240000000 1.0
C      1  0.5122000000000  0.4844160000000  0.5762870000000 1.0
C      1  0.4726300000000  0.5530200000000  0.4604410000000 1.0
C      1  0.4541610000000  0.5517460000000  0.4824210000000 1.0
C      1  0.4555130000000  0.5503550000000  0.5115430000000 1.0
C      1  0.4743970000000  0.5513340000000  0.5333210000000 1.0
C      1  0.5030560000000  0.5603590000000  0.5398020000000 1.0
C      1  0.5298050000000  0.5552440000000  0.5278340000000 1.0
C      1  0.5379500000000  0.5585830000000  0.4999380000000 1.0
C      1  0.5216990000000  0.5426350000000  0.4789630000000 1.0
C      1  0.5025760000000  0.5573970000000  0.4589850000000 1.0
C      1  0.5047740000000  0.5911280000000  0.5358150000000 1.0
C      1  0.5283260000000  0.6091790000000  0.5273300000000 1.0
C      1  0.5374650000000  0.6092150000000  0.5032850000000 1.0
C      1  0.5328860000000  0.5857560000000  0.4875000000000 1.0
C      1  0.5137820000000  0.5851270000000  0.4662070000000 1.0
C      1  0.5006900000000  0.6095900000000  0.4610670000000 1.0
C      1  0.4901910000000  0.6199930000000  0.4818040000000 1.0
C      1  0.4807610000000  0.6258450000000  0.5055620000000 1.0
C      1  0.4875630000000  0.6080350000000  0.5237190000000 1.0
C      1  0.4641690000000  0.4537890000000  0.5633680000000 1.0
C      1  0.5132590000000  0.4562800000000  0.5726930000000 1.0
C      1  0.5565200000000  0.4578560000000  0.5483630000000 1.0
C      1  0.5738410000000  0.4568030000000  0.5020420000000 1.0
C      1  0.5561520000000  0.4553560000000  0.4556970000000 1.0
C      1  0.5144510000000  0.4526920000000  0.4291160000000 1.0
C      1  0.4659160000000  0.4507520000000  0.4366080000000 1.0
C      1  0.4331610000000  0.4495260000000  0.4741600000000 1.0
C      1  0.4323540000000  0.4507980000000  0.5244950000000 1.0
C      1  0.4755230000000  0.4847340000000  0.5198320000000 1.0
C      1  0.5011070000000  0.4872720000000  0.5272670000000 1.0
C      1  0.5170700000000  0.5048670000000  0.5119150000000 1.0
C      1  0.5205650000000  0.4763610000000  0.5099530000000 1.0
C      1  0.5136500000000  0.4623640000000  0.4885340000000 1.0
C      1  0.4934750000000  0.4754620000000  0.4775440000000 1.0
C      1  0.5083740000000  0.5197840000000  0.4914450000000 1.0
C      1  0.4904180000000  0.5037090000000  0.4794570000000 1.0
C      1  0.4727500000000  0.4864080000000  0.4933290000000 1.0
C      1  0.4959250000000  0.4200720000000  0.4588120000000 1.0
C      1  0.4707360000000  0.4202600000000  0.4729560000000 1.0
C      1  0.4611810000000  0.4215200000000  0.5002300000000 1.0
C      1  0.4709110000000  0.4232730000000  0.5273430000000 1.0
C      1  0.4954060000000  0.4243200000000  0.5424200000000 1.0
C      1  0.5240160000000  0.4245140000000  0.5386150000000 1.0
C      1  0.5429390000000  0.4237930000000  0.5167940000000 1.0
C      1  0.5427020000000  0.4228680000000  0.4877060000000 1.0
C      1  0.5242880000000  0.4213360000000  0.4648760000000 1.0
C      1  0.5334590000000  0.5241630000000  0.4372100000000 1.0
C      1  0.4858600000000  0.5222220000000  0.4270400000000 1.0
C      1  0.4415270000000  0.5188970000000  0.4504730000000 1.0
C      1  0.4245040000000  0.5180690000000  0.4975700000000 1.0
C      1  0.4414010000000  0.5202110000000  0.5448140000000 1.0
C      1  0.4850350000000  0.5241820000000  0.5698900000000 1.0
C      1  0.5333510000000  0.5269030000000  0.5638000000000 1.0
C      1  0.5664450000000  0.5273640000000  0.5252600000000 1.0
C      1  0.5659020000000  0.5260200000000  0.4762600000000 1.0
C      1  0.4860680000000  0.4934490000000  0.4238330000000 1.0
C      1  0.4402750000000  0.4906250000000  0.4487580000000 1.0
C      1  0.4217530000000  0.4900860000000  0.4985120000000 1.0
C      1  0.4390810000000  0.4924210000000  0.5487280000000 1.0
C      1  0.4850810000000  0.4962600000000  0.5751810000000 1.0
C      1  0.5366160000000  0.4988230000000  0.5677080000000 1.0
C      1  0.5710520000000  0.4991800000000  0.5278810000000 1.0
C      1  0.5693220000000  0.4976510000000  0.4763460000000 1.0
C      1  0.5358740000000  0.4956580000000  0.4357140000000 1.0
C      1  0.4912420000000  0.4381080000000  0.4357520000000 1.0
C      1  0.4524220000000  0.4372310000000  0.4575080000000 1.0
C      1  0.4368600000000  0.4378240000000  0.4996140000000 1.0
C      1  0.4517990000000  0.4400030000000  0.5419230000000 1.0
C      1  0.4900220000000  0.4423640000000  0.5649740000000 1.0
C      1  0.5342020000000  0.4437810000000  0.5583990000000 1.0
C      1  0.5633670000000  0.4436630000000  0.5247030000000 1.0
C      1  0.5630500000000  0.4426110000000  0.4798780000000 1.0
C      1  0.5346440000000  0.4406800000000  0.4451530000000 1.0
C      1  0.4352160000000  0.5316980000000  0.5198720000000 1.0
C      1  0.4644310000000  0.5343040000000  0.5534950000000 1.0
C      1  0.5078400000000  0.5395320000000  0.5636000000000 1.0
C      1  0.5472160000000  0.5392280000000  0.5425700000000 1.0
C      1  0.5631980000000  0.5403240000000  0.5004030000000 1.0
C      1  0.5452170000000  0.5362670000000  0.4597740000000 1.0
C      1  0.5085230000000  0.5375260000000  0.4347430000000 1.0
C      1  0.4638790000000  0.5337550000000  0.4409220000000 1.0
C      1  0.4345850000000  0.5315620000000  0.4748590000000 1.0
END
