TITL C-140560-926-3 -0.0570308918085233 125000 -115.999665351579 0 0 18 (D3h) n - 1
REM
REM in /rds/project/t2_vol4/rds-t2-cs072/BORA/CARBON/from-Arr/AIRSS/Generating-Clusters/GAP-ML-2020/Higher-Symm/SD-CG/HFTN-CG
REM
REM
REM
REM
REM
REM ./C.cell (b20cbc046b6831c77cfcea5457e17084)
REM AIRSS Version 0.9.1 bugfix July 2018 build 013d7b7c2542+ Fri, 06 Jul 2018 19:26:36 +0100
REM compiler GCC version 9.3.0
REM options -cpp -mtune=generic -march=x86-64 -g -O0
REM seed 118746621 429154243 1062743833 -494966585 -2114148006 399911035 -1139818796 -1748010762 -853908515 -867999577 1806553314 -386481472 785817881 -2048821596 -1607262428 431529416 162057566 2063847465 -1567572122 1304892491 -1655961977 186186028 1024956266 1015271482 -36043528 1030942533 728120102 -108984779 -13537325 120964645 1609917974 -683383458 -926948999
REM
CELL 1.54180   50.00000   50.00000   50.00000   90.00000   90.00000   90.00000
LATT -1
SFAC C  
C      1  0.4686570000000  0.5148630000000  0.5287420000000 1.0
C      1  0.4575150000000  0.5148620000000  0.5018710000000 1.0
C      1  0.4662510000000  0.5148630000000  0.4741250000000 1.0
C      1  0.4907790000000  0.5148640000000  0.4584870000000 1.0
C      1  0.5196200000000  0.5148670000000  0.4622720000000 1.0
C      1  0.5392800000000  0.5148680000000  0.4837110000000 1.0
C      1  0.5405610000000  0.5148680000000  0.5127720000000 1.0
C      1  0.5228610000000  0.5148670000000  0.5358560000000 1.0
C      1  0.4944650000000  0.5148650000000  0.5421630000000 1.0
C      1  0.5392830000000  0.4851380000000  0.4837110000000 1.0
C      1  0.5405630000000  0.4851380000000  0.5127720000000 1.0
C      1  0.5228640000000  0.4851370000000  0.5358560000000 1.0
C      1  0.4944670000000  0.4851340000000  0.5421630000000 1.0
C      1  0.4686600000000  0.4851320000000  0.5287420000000 1.0
C      1  0.4575170000000  0.4851310000000  0.5018710000000 1.0
C      1  0.4662540000000  0.4851320000000  0.4741260000000 1.0
C      1  0.4907810000000  0.4851340000000  0.4584870000000 1.0
C      1  0.5196220000000  0.4851360000000  0.4622720000000 1.0
END
