TITL C-140558-295-7 -0.155507695676851 125000 -371.222352575867 0 0 54 (Cs) n - 1
REM
REM in /rds/project/t2_vol4/rds-t2-cs072/BORA/CARBON/from-Arr/AIRSS/Generating-Clusters/GAP-ML-2020/Higher-Symm/SD-CG/HFTN-CG
REM
REM
REM
REM
REM
REM ./C.cell (b20cbc046b6831c77cfcea5457e17084)
REM AIRSS Version 0.9.1 bugfix July 2018 build 013d7b7c2542+ Fri, 06 Jul 2018 19:26:36 +0100
REM compiler GCC version 9.3.0
REM options -cpp -mtune=generic -march=x86-64 -g -O0
REM seed -1713478442 -234486739 1442753737 -2051185753 -1542386795 453080054 -832569513 2048346590 -223710294 91976269 -532755180 -1750301124 -399701483 -1763207972 -2000750929 -386579465 -1303232584 586082601 -886462454 -1463827448 547042245 -1104146973 1956046998 1742527581 973825659 -112755758 -1412879828 -329933928 -2024899343 1945866691 -70436475 -1947452000 -607013882
REM
CELL 1.54180   50.00000   50.00000   50.00000   90.00000   90.00000   90.00000
LATT -1
SFAC C  
C      1  0.5252160000000  0.5628060000000  0.4847260000000 1.0
C      1  0.5289740000000  0.4398700000000  0.4810650000000 1.0
C      1  0.4862670000000  0.5217620000000  0.5085320000000 1.0
C      1  0.4876360000000  0.4769720000000  0.5071980000000 1.0
C      1  0.4388240000000  0.4677050000000  0.5426490000000 1.0
C      1  0.4370450000000  0.5259080000000  0.5443820000000 1.0
C      1  0.5523730000000  0.4552710000000  0.4823410000000 1.0
C      1  0.5495130000000  0.5488120000000  0.4851270000000 1.0
C      1  0.5099370000000  0.5320000000000  0.5457580000000 1.0
C      1  0.5119550000000  0.4660020000000  0.5437930000000 1.0
C      1  0.5372730000000  0.4883820000000  0.4477360000000 1.0
C      1  0.5363990000000  0.5169580000000  0.4485880000000 1.0
C      1  0.5578410000000  0.4751300000000  0.4619080000000 1.0
C      1  0.5561470000000  0.5305740000000  0.4635600000000 1.0
C      1  0.5125610000000  0.4309010000000  0.5036550000000 1.0
C      1  0.5083280000000  0.5693970000000  0.5077800000000 1.0
C      1  0.4398560000000  0.4688050000000  0.5030130000000 1.0
C      1  0.4380700000000  0.5272320000000  0.5047530000000 1.0
C      1  0.5754490000000  0.4893780000000  0.4803760000000 1.0
C      1  0.5746240000000  0.5163550000000  0.4811800000000 1.0
C      1  0.4234070000000  0.5105910000000  0.5229870000000 1.0
C      1  0.4242380000000  0.4834060000000  0.5221770000000 1.0
C      1  0.5047920000000  0.4407510000000  0.5301530000000 1.0
C      1  0.5012220000000  0.5575330000000  0.5336310000000 1.0
C      1  0.4872020000000  0.5137710000000  0.5391290000000 1.0
C      1  0.4881370000000  0.4831720000000  0.5382170000000 1.0
C      1  0.5344250000000  0.4844250000000  0.5432780000000 1.0
C      1  0.5334890000000  0.5150460000000  0.5441900000000 1.0
C      1  0.5585440000000  0.4862440000000  0.5260220000000 1.0
C      1  0.5576420000000  0.5157310000000  0.5269000000000 1.0
C      1  0.4595540000000  0.5140930000000  0.4896990000000 1.0
C      1  0.4604710000000  0.4841030000000  0.4888050000000 1.0
C      1  0.4802130000000  0.5684280000000  0.4982030000000 1.0
C      1  0.4844220000000  0.4307200000000  0.4941010000000 1.0
C      1  0.4841560000000  0.4464250000000  0.4700030000000 1.0
C      1  0.4808610000000  0.5541970000000  0.4732130000000 1.0
C      1  0.5650900000000  0.5317460000000  0.5042840000000 1.0
C      1  0.5669140000000  0.4720870000000  0.5025070000000 1.0
C      1  0.4609590000000  0.4831990000000  0.5508390000000 1.0
C      1  0.4600990000000  0.5113340000000  0.5516770000000 1.0
C      1  0.5104120000000  0.5135050000000  0.4935370000000 1.0
C      1  0.5112050000000  0.4875640000000  0.4927650000000 1.0
C      1  0.4705550000000  0.5600870000000  0.5247890000000 1.0
C      1  0.4743220000000  0.4368600000000  0.5211190000000 1.0
C      1  0.5106520000000  0.4489960000000  0.4604750000000 1.0
C      1  0.5074470000000  0.5538190000000  0.4635970000000 1.0
C      1  0.4709850000000  0.4713700000000  0.4644220000000 1.0
C      1  0.4692270000000  0.5288710000000  0.4661340000000 1.0
C      1  0.5132090000000  0.4735770000000  0.4454510000000 1.0
C      1  0.5114730000000  0.5303760000000  0.4471430000000 1.0
C      1  0.4865600000000  0.5153540000000  0.4475570000000 1.0
C      1  0.4874260000000  0.4870000000000  0.4467120000000 1.0
C      1  0.4467030000000  0.5467060000000  0.5255410000000 1.0
C      1  0.4496990000000  0.4486920000000  0.5226210000000 1.0
END
