TITL C-140546-9091-8 -44.6017263094716 125000 -1163.20915654056 0 0 168 (Td) n - 1
REM
REM in /rds/project/t2_vol4/rds-t2-cs072/BORA/CARBON/from-Arr/AIRSS/Generating-Clusters/GAP-ML-2020/Higher-Symm/SD-CG/HFTN-CG
REM
REM
REM
REM
REM
REM ./C.cell (b20cbc046b6831c77cfcea5457e17084)
REM AIRSS Version 0.9.1 bugfix July 2018 build 013d7b7c2542+ Fri, 06 Jul 2018 19:26:36 +0100
REM compiler GCC version 9.3.0
REM options -cpp -mtune=generic -march=x86-64 -g -O0
REM seed 1172213244 -1863567065 1718072711 -2142429200 -953881902 -217305482 1848416492 -444501254 1511073270 -1123010764 80879401 -36057152 -1500789378 1572494092 168991101 -1686103537 1424959309 910724347 1784748380 -70656941 994298560 -798299469 1903776513 971520756 615235619 877816723 -652249634 1021852071 -1839030013 372540338 -1986344252 -2011364409 1382732631
REM
CELL 1.54180   50.00000   50.00000   50.00000   90.00000   90.00000   90.00000
LATT -1
SFAC C  
C      1  0.4165030000000  0.5456890000000  0.5017610000000 1.0
C      1  0.5017650000000  0.4165050000000  0.5456930000000 1.0
C      1  0.5456930000000  0.5017630000000  0.4165050000000 1.0
C      1  0.5834970000000  0.4543110000000  0.5017680000000 1.0
C      1  0.5834960000000  0.5456920000000  0.4982360000000 1.0
C      1  0.4165040000000  0.4543080000000  0.4982340000000 1.0
C      1  0.4982330000000  0.5834980000000  0.5456880000000 1.0
C      1  0.4982380000000  0.4165020000000  0.4543120000000 1.0
C      1  0.5017640000000  0.5834950000000  0.4543070000000 1.0
C      1  0.4543120000000  0.4982320000000  0.4165020000000 1.0
C      1  0.4543070000000  0.5017660000000  0.5834950000000 1.0
C      1  0.5456880000000  0.4982390000000  0.5834980000000 1.0
C      1  0.5456920000000  0.4165040000000  0.5017680000000 1.0
C      1  0.4165020000000  0.5017640000000  0.5456880000000 1.0
C      1  0.5017660000000  0.5456880000000  0.4165020000000 1.0
C      1  0.4543080000000  0.5834960000000  0.5017610000000 1.0
C      1  0.5456890000000  0.5834970000000  0.4982340000000 1.0
C      1  0.4543110000000  0.4165030000000  0.4982370000000 1.0
C      1  0.5834950000000  0.4982380000000  0.5456930000000 1.0
C      1  0.4165050000000  0.4982320000000  0.4543070000000 1.0
C      1  0.5834980000000  0.5017650000000  0.4543120000000 1.0
C      1  0.4982390000000  0.4543070000000  0.4165050000000 1.0
C      1  0.5017630000000  0.4543120000000  0.5834980000000 1.0
C      1  0.4982320000000  0.5456930000000  0.5834950000000 1.0
C      1  0.5886580000000  0.5169420000000  0.5681800000000 1.0
C      1  0.5681760000000  0.5886620000000  0.5169370000000 1.0
C      1  0.5169340000000  0.5681810000000  0.5886590000000 1.0
C      1  0.4113380000000  0.4830620000000  0.5681760000000 1.0
C      1  0.4113410000000  0.5169340000000  0.4318190000000 1.0
C      1  0.5886630000000  0.4830620000000  0.4318250000000 1.0
C      1  0.4318230000000  0.4113390000000  0.5169390000000 1.0
C      1  0.4318210000000  0.5886590000000  0.4830580000000 1.0
C      1  0.5681800000000  0.4113400000000  0.4830670000000 1.0
C      1  0.4830610000000  0.4318240000000  0.5886620000000 1.0
C      1  0.4830630000000  0.5681750000000  0.4113370000000 1.0
C      1  0.5169420000000  0.4318200000000  0.4113420000000 1.0
C      1  0.5169340000000  0.5886630000000  0.5681760000000 1.0
C      1  0.5886590000000  0.5681800000000  0.5169380000000 1.0
C      1  0.5681750000000  0.5169420000000  0.5886620000000 1.0
C      1  0.4830620000000  0.4113410000000  0.5681800000000 1.0
C      1  0.5169410000000  0.4113380000000  0.4318250000000 1.0
C      1  0.4830620000000  0.5886580000000  0.4318190000000 1.0
C      1  0.4113400000000  0.4318210000000  0.5169370000000 1.0
C      1  0.5886620000000  0.4318230000000  0.4830670000000 1.0
C      1  0.4113390000000  0.5681760000000  0.4830580000000 1.0
C      1  0.4318200000000  0.4830630000000  0.5886590000000 1.0
C      1  0.5681810000000  0.4830610000000  0.4113420000000 1.0
C      1  0.4318240000000  0.5169340000000  0.4113370000000 1.0
C      1  0.4616590000000  0.4402910000000  0.5162280000000 1.0
C      1  0.5162290000000  0.4616570000000  0.4402920000000 1.0
C      1  0.4402920000000  0.5162250000000  0.4616560000000 1.0
C      1  0.5383400000000  0.5597100000000  0.5162260000000 1.0
C      1  0.5383430000000  0.4402910000000  0.4837760000000 1.0
C      1  0.4616580000000  0.5597080000000  0.4837700000000 1.0
C      1  0.4837740000000  0.5383390000000  0.4402890000000 1.0
C      1  0.4837720000000  0.4616600000000  0.5597100000000 1.0
C      1  0.5162250000000  0.5383440000000  0.5597080000000 1.0
C      1  0.5597100000000  0.4837730000000  0.4616610000000 1.0
C      1  0.5597080000000  0.5162290000000  0.5383430000000 1.0
C      1  0.4402900000000  0.4837730000000  0.5383400000000 1.0
C      1  0.4402910000000  0.4616580000000  0.5162260000000 1.0
C      1  0.4616600000000  0.5162250000000  0.4402890000000 1.0
C      1  0.5162290000000  0.4402900000000  0.4616610000000 1.0
C      1  0.5597080000000  0.5383430000000  0.5162280000000 1.0
C      1  0.4402910000000  0.5383400000000  0.4837700000000 1.0
C      1  0.5597100000000  0.4616590000000  0.4837760000000 1.0
C      1  0.5383430000000  0.4837720000000  0.4402920000000 1.0
C      1  0.4616570000000  0.4837740000000  0.5597090000000 1.0
C      1  0.5383400000000  0.5162290000000  0.5597100000000 1.0
C      1  0.4837730000000  0.5597080000000  0.4616560000000 1.0
C      1  0.5162250000000  0.5597110000000  0.5383400000000 1.0
C      1  0.4837730000000  0.4402920000000  0.5383430000000 1.0
C      1  0.4997540000000  0.4793540000000  0.4594880000000 1.0
C      1  0.4594880000000  0.4997510000000  0.4793540000000 1.0
C      1  0.4793560000000  0.4594870000000  0.4997530000000 1.0
C      1  0.5002490000000  0.5206430000000  0.4594870000000 1.0
C      1  0.5002470000000  0.4793570000000  0.5405130000000 1.0
C      1  0.4997510000000  0.5206460000000  0.5405120000000 1.0
C      1  0.5405130000000  0.5002480000000  0.4793560000000 1.0
C      1  0.5405120000000  0.4997540000000  0.5206460000000 1.0
C      1  0.4594870000000  0.5002480000000  0.5206430000000 1.0
C      1  0.5206440000000  0.5405130000000  0.4997520000000 1.0
C      1  0.5206450000000  0.4594880000000  0.5002500000000 1.0
C      1  0.4793550000000  0.5405120000000  0.5002460000000 1.0
C      1  0.4793570000000  0.4997510000000  0.4594870000000 1.0
C      1  0.4997540000000  0.4594870000000  0.4793570000000 1.0
C      1  0.4594880000000  0.4793550000000  0.4997520000000 1.0
C      1  0.5206460000000  0.5002470000000  0.4594880000000 1.0
C      1  0.4793540000000  0.5002490000000  0.5405120000000 1.0
C      1  0.5206440000000  0.4997540000000  0.5405130000000 1.0
C      1  0.5002480000000  0.5405120000000  0.4793540000000 1.0
C      1  0.4997510000000  0.5405130000000  0.5206430000000 1.0
C      1  0.5002480000000  0.4594880000000  0.5206460000000 1.0
C      1  0.5405120000000  0.5206450000000  0.4997530000000 1.0
C      1  0.4594870000000  0.5206440000000  0.5002460000000 1.0
C      1  0.5405130000000  0.4793560000000  0.5002490000000 1.0
C      1  0.3998720000000  0.5205910000000  0.5004700000000 1.0
C      1  0.5004750000000  0.3998730000000  0.5205960000000 1.0
C      1  0.5205950000000  0.5004710000000  0.3998730000000 1.0
C      1  0.6001280000000  0.4794090000000  0.5004770000000 1.0
C      1  0.6001270000000  0.5205950000000  0.4995290000000 1.0
C      1  0.3998730000000  0.4794050000000  0.4995240000000 1.0
C      1  0.4995240000000  0.6001280000000  0.5205900000000 1.0
C      1  0.4995290000000  0.3998720000000  0.4794100000000 1.0
C      1  0.5004720000000  0.6001270000000  0.4794040000000 1.0
C      1  0.4794100000000  0.4995230000000  0.3998720000000 1.0
C      1  0.4794050000000  0.5004760000000  0.6001270000000 1.0
C      1  0.5205900000000  0.4995300000000  0.6001280000000 1.0
C      1  0.5205950000000  0.3998730000000  0.5004770000000 1.0
C      1  0.3998720000000  0.5004720000000  0.5205900000000 1.0
C      1  0.5004760000000  0.5205900000000  0.3998720000000 1.0
C      1  0.4794050000000  0.6001270000000  0.5004700000000 1.0
C      1  0.5205910000000  0.6001280000000  0.4995240000000 1.0
C      1  0.4794090000000  0.3998720000000  0.4995290000000 1.0
C      1  0.6001270000000  0.4995290000000  0.5205950000000 1.0
C      1  0.3998730000000  0.4995240000000  0.4794050000000 1.0
C      1  0.6001280000000  0.5004750000000  0.4794100000000 1.0
C      1  0.4995300000000  0.4794040000000  0.3998730000000 1.0
C      1  0.5004710000000  0.4794100000000  0.6001280000000 1.0
C      1  0.4995230000000  0.5205960000000  0.6001270000000 1.0
C      1  0.5873400000000  0.4333070000000  0.4535190000000 1.0
C      1  0.4535150000000  0.5873350000000  0.4333030000000 1.0
C      1  0.4333050000000  0.4535160000000  0.5873370000000 1.0
C      1  0.4126620000000  0.5666900000000  0.4535110000000 1.0
C      1  0.4126620000000  0.4333060000000  0.5464840000000 1.0
C      1  0.5873350000000  0.5666960000000  0.5464850000000 1.0
C      1  0.5464880000000  0.4126610000000  0.4333100000000 1.0
C      1  0.5464810000000  0.5873400000000  0.5666920000000 1.0
C      1  0.4535150000000  0.4126630000000  0.5666950000000 1.0
C      1  0.5666900000000  0.5464890000000  0.5873380000000 1.0
C      1  0.5666970000000  0.4535140000000  0.4126660000000 1.0
C      1  0.4333080000000  0.5464810000000  0.4126590000000 1.0
C      1  0.4333060000000  0.5873350000000  0.4535110000000 1.0
C      1  0.5873400000000  0.4535150000000  0.4333100000000 1.0
C      1  0.4535140000000  0.4333080000000  0.5873380000000 1.0
C      1  0.5666960000000  0.4126620000000  0.4535190000000 1.0
C      1  0.4333070000000  0.4126630000000  0.5464860000000 1.0
C      1  0.5666900000000  0.5873400000000  0.5464840000000 1.0
C      1  0.4126630000000  0.5464810000000  0.4333030000000 1.0
C      1  0.5873350000000  0.5464880000000  0.5666940000000 1.0
C      1  0.4126610000000  0.4535150000000  0.5666920000000 1.0
C      1  0.5464810000000  0.5666970000000  0.5873370000000 1.0
C      1  0.4535160000000  0.5666900000000  0.4126590000000 1.0
C      1  0.5464890000000  0.4333050000000  0.4126660000000 1.0
C      1  0.4287020000000  0.5305180000000  0.5514430000000 1.0
C      1  0.5514460000000  0.4287060000000  0.5305220000000 1.0
C      1  0.5305190000000  0.5514440000000  0.4287030000000 1.0
C      1  0.5712950000000  0.4694850000000  0.5514490000000 1.0
C      1  0.5712970000000  0.5305180000000  0.4485550000000 1.0
C      1  0.4287060000000  0.4694790000000  0.4485530000000 1.0
C      1  0.4485520000000  0.5712960000000  0.5305150000000 1.0
C      1  0.4485560000000  0.4287020000000  0.4694820000000 1.0
C      1  0.5514450000000  0.5712960000000  0.4694810000000 1.0
C      1  0.4694850000000  0.4485520000000  0.4287050000000 1.0
C      1  0.4694790000000  0.5514470000000  0.5712940000000 1.0
C      1  0.5305170000000  0.4485570000000  0.5712980000000 1.0
C      1  0.5305180000000  0.4287060000000  0.5514490000000 1.0
C      1  0.4287020000000  0.5514450000000  0.5305150000000 1.0
C      1  0.5514470000000  0.5305170000000  0.4287050000000 1.0
C      1  0.4694790000000  0.5712970000000  0.5514430000000 1.0
C      1  0.5305180000000  0.5712950000000  0.4485530000000 1.0
C      1  0.4694850000000  0.4287020000000  0.4485550000000 1.0
C      1  0.5712960000000  0.4485570000000  0.5305220000000 1.0
C      1  0.4287060000000  0.4485520000000  0.4694810000000 1.0
C      1  0.5712960000000  0.5514460000000  0.4694820000000 1.0
C      1  0.4485570000000  0.4694790000000  0.4287030000000 1.0
C      1  0.5514440000000  0.4694850000000  0.5712980000000 1.0
C      1  0.4485520000000  0.5305190000000  0.5712940000000 1.0
END
