TITL C-140558-295-8 0.0633855072942595 125000 -206.685368046508 0 0 31 (C1) n - 1
REM
REM in /rds/project/t2_vol4/rds-t2-cs072/BORA/CARBON/from-Arr/AIRSS/Generating-Clusters/GAP-ML-2020/Higher-Symm/SD-CG/HFTN-CG
REM
REM
REM
REM
REM
REM ./C.cell (b20cbc046b6831c77cfcea5457e17084)
REM AIRSS Version 0.9.1 bugfix July 2018 build 013d7b7c2542+ Fri, 06 Jul 2018 19:26:36 +0100
REM compiler GCC version 9.3.0
REM options -cpp -mtune=generic -march=x86-64 -g -O0
REM seed 994278426 1830450805 1075449278 1057188885 -537232529 1038915383 1315797056 1157457179 -396965489 -1360103489 -1237267059 1222282029 1258373759 -19861713 -583604980 827620859 -106072556 -521085316 193473261 828655367 1012534298 -959827284 102892041 -482772765 827411673 1437658687 -205659469 -1963956946 513672190 1341740803 -1744777241 -1959916649 -966891348
REM
CELL 1.54180   50.00000   50.00000   50.00000   90.00000   90.00000   90.00000
LATT -1
SFAC C  
C      1  0.5281300000000  0.5511950000000  0.5076800000000 1.0
C      1  0.4638390000000  0.4510290000000  0.5055620000000 1.0
C      1  0.4724680000000  0.5442260000000  0.5020230000000 1.0
C      1  0.5223200000000  0.4572360000000  0.4987850000000 1.0
C      1  0.5315120000000  0.4593960000000  0.5477070000000 1.0
C      1  0.4655260000000  0.5417760000000  0.5514380000000 1.0
C      1  0.4799960000000  0.4368040000000  0.4927700000000 1.0
C      1  0.5130980000000  0.5687600000000  0.4973710000000 1.0
C      1  0.4755600000000  0.5263170000000  0.5700860000000 1.0
C      1  0.5227580000000  0.4734670000000  0.5680460000000 1.0
C      1  0.5136860000000  0.4829060000000  0.4402280000000 1.0
C      1  0.4978750000000  0.5029800000000  0.4524250000000 1.0
C      1  0.5299450000000  0.5033450000000  0.5097850000000 1.0
C      1  0.4652710000000  0.4980090000000  0.5136170000000 1.0
C      1  0.5082040000000  0.4900700000000  0.5808540000000 1.0
C      1  0.4899450000000  0.5088610000000  0.5820530000000 1.0
C      1  0.4571280000000  0.4742620000000  0.5173160000000 1.0
C      1  0.5368830000000  0.5272110000000  0.5154110000000 1.0
C      1  0.4777350000000  0.5167930000000  0.4975980000000 1.0
C      1  0.5158330000000  0.4843950000000  0.4957090000000 1.0
C      1  0.5175210000000  0.4248030000000  0.4616280000000 1.0
C      1  0.4780060000000  0.5715410000000  0.4610020000000 1.0
C      1  0.4784140000000  0.5486640000000  0.4470850000000 1.0
C      1  0.5290060000000  0.4367490000000  0.4423120000000 1.0
C      1  0.4856440000000  0.5255180000000  0.4402920000000 1.0
C      1  0.5271250000000  0.4628300000000  0.4348510000000 1.0
C      1  0.4641710000000  0.5502370000000  0.5277580000000 1.0
C      1  0.5326330000000  0.4513160000000  0.5239670000000 1.0
C      1  0.4872180000000  0.5647980000000  0.4868180000000 1.0
C      1  0.5065540000000  0.4366370000000  0.4842590000000 1.0
C      1  0.4960180000000  0.5007580000000  0.4802290000000 1.0
END
