TITL C-149065-9491-9 0.224715029786473 125000 -713.285353202719 0 0 104 (C1) n - 1
REM
REM in /rds/project/t2_vol4/rds-t2-cs072/BORA/CARBON/from-Arr/AIRSS/Generating-Clusters/GAP-ML-2020/Higher-Symm/SD-CG/HFTN-CG
REM
REM
REM
REM
REM
REM ./C.cell (b20cbc046b6831c77cfcea5457e17084)
REM AIRSS Version 0.9.1 bugfix July 2018 build 013d7b7c2542+ Fri, 06 Jul 2018 19:26:36 +0100
REM compiler GCC version 9.3.0
REM options -cpp -mtune=generic -march=x86-64 -g -O0
REM seed 2063959645 -776739690 1458886756 1368826003 1468770139 -1890026424 1522516138 1293689844 1727468196 1121477302 1976682743 1223049372 571676235 -128351171 -674946938 1764381900 1157958854 2029814854 366259964 -105083666 -1835284858 1602548548 -1861763628 -466418842 1585782684 1650271332 -1711272837 -1872448905 -1197742420 390307209 -702620367 -865333063 2103875135
REM
CELL 1.54180   50.00000   50.00000   50.00000   90.00000   90.00000   90.00000
LATT -1
SFAC C  
C      1  0.4210390000000  0.5051010000000  0.5179690000000 1.0
C      1  0.4564060000000  0.5113190000000  0.5745540000000 1.0
C      1  0.5264000000000  0.5059030000000  0.5917910000000 1.0
C      1  0.5831690000000  0.5077070000000  0.5179870000000 1.0
C      1  0.5730080000000  0.5044210000000  0.4472320000000 1.0
C      1  0.5121080000000  0.5109280000000  0.4113210000000 1.0
C      1  0.4330650000000  0.5023790000000  0.4399280000000 1.0
C      1  0.4945970000000  0.5335730000000  0.4175600000000 1.0
C      1  0.4228640000000  0.5268010000000  0.4512890000000 1.0
C      1  0.4288160000000  0.5295570000000  0.5315260000000 1.0
C      1  0.4778490000000  0.5303800000000  0.5784100000000 1.0
C      1  0.5436290000000  0.5277330000000  0.5808360000000 1.0
C      1  0.5793170000000  0.5278750000000  0.4983930000000 1.0
C      1  0.5557600000000  0.5270440000000  0.4385970000000 1.0
C      1  0.5330560000000  0.5733960000000  0.5578650000000 1.0
C      1  0.5480640000000  0.5744560000000  0.5075040000000 1.0
C      1  0.5468730000000  0.5735860000000  0.4577980000000 1.0
C      1  0.4979790000000  0.5772440000000  0.4504520000000 1.0
C      1  0.4474210000000  0.5718190000000  0.4604700000000 1.0
C      1  0.4503070000000  0.5738920000000  0.5116490000000 1.0
C      1  0.4829300000000  0.5757950000000  0.5494820000000 1.0
C      1  0.4894180000000  0.5283900000000  0.5356210000000 1.0
C      1  0.5190970000000  0.5315640000000  0.5419250000000 1.0
C      1  0.5416040000000  0.5269090000000  0.5249690000000 1.0
C      1  0.5348540000000  0.5271040000000  0.4960600000000 1.0
C      1  0.4996840000000  0.5303640000000  0.4629380000000 1.0
C      1  0.4675620000000  0.5276840000000  0.4657080000000 1.0
C      1  0.4566940000000  0.5263050000000  0.4945760000000 1.0
C      1  0.5328760000000  0.4334260000000  0.5301190000000 1.0
C      1  0.5361660000000  0.4303990000000  0.5023170000000 1.0
C      1  0.5073620000000  0.4321150000000  0.4592390000000 1.0
C      1  0.4793260000000  0.4341540000000  0.4568620000000 1.0
C      1  0.4672680000000  0.4303790000000  0.4815780000000 1.0
C      1  0.4853660000000  0.4231470000000  0.5267710000000 1.0
C      1  0.5074840000000  0.4326070000000  0.5419500000000 1.0
C      1  0.5007420000000  0.5497150000000  0.4400950000000 1.0
C      1  0.4442730000000  0.5449910000000  0.4542880000000 1.0
C      1  0.4421030000000  0.5463460000000  0.5113280000000 1.0
C      1  0.4786930000000  0.5475240000000  0.5556190000000 1.0
C      1  0.5302070000000  0.5464390000000  0.5653390000000 1.0
C      1  0.5568380000000  0.5454190000000  0.5070910000000 1.0
C      1  0.5555210000000  0.5501710000000  0.4504200000000 1.0
C      1  0.4592620000000  0.4317370000000  0.5334540000000 1.0
C      1  0.5029160000000  0.4557200000000  0.5603490000000 1.0
C      1  0.5530540000000  0.4527820000000  0.5422880000000 1.0
C      1  0.5561000000000  0.4505820000000  0.4912440000000 1.0
C      1  0.5191370000000  0.4547770000000  0.4445330000000 1.0
C      1  0.4670720000000  0.4556570000000  0.4407100000000 1.0
C      1  0.4455240000000  0.4502540000000  0.4891010000000 1.0
C      1  0.5611810000000  0.4510800000000  0.4644270000000 1.0
C      1  0.5090100000000  0.4585180000000  0.4187640000000 1.0
C      1  0.4386790000000  0.4506880000000  0.4414440000000 1.0
C      1  0.4385770000000  0.4443410000000  0.5172460000000 1.0
C      1  0.4541600000000  0.4505650000000  0.5550840000000 1.0
C      1  0.5229210000000  0.4561610000000  0.5799490000000 1.0
C      1  0.5796800000000  0.4507140000000  0.5310900000000 1.0
C      1  0.4197680000000  0.4811130000000  0.4545790000000 1.0
C      1  0.4242840000000  0.4888710000000  0.5413140000000 1.0
C      1  0.4742170000000  0.4888080000000  0.5793430000000 1.0
C      1  0.5454140000000  0.4858590000000  0.5807640000000 1.0
C      1  0.5865450000000  0.4869240000000  0.4985130000000 1.0
C      1  0.5549890000000  0.4858820000000  0.4345190000000 1.0
C      1  0.4898600000000  0.4916610000000  0.4100850000000 1.0
C      1  0.5740870000000  0.5047270000000  0.4764930000000 1.0
C      1  0.5333060000000  0.5067570000000  0.4310460000000 1.0
C      1  0.4738540000000  0.5131860000000  0.4199880000000 1.0
C      1  0.4161560000000  0.5056050000000  0.4703180000000 1.0
C      1  0.4351950000000  0.5129460000000  0.5556460000000 1.0
C      1  0.4986790000000  0.5071760000000  0.5803550000000 1.0
C      1  0.5590260000000  0.5072820000000  0.5666430000000 1.0
C      1  0.4355470000000  0.5027080000000  0.4921500000000 1.0
C      1  0.4765150000000  0.5153130000000  0.5134840000000 1.0
C      1  0.5062130000000  0.5065960000000  0.5516110000000 1.0
C      1  0.5585910000000  0.5049590000000  0.5363510000000 1.0
C      1  0.5414510000000  0.5032260000000  0.4812680000000 1.0
C      1  0.5181530000000  0.5046200000000  0.4587670000000 1.0
C      1  0.4623570000000  0.5049180000000  0.4461480000000 1.0
C      1  0.4832770000000  0.4647400000000  0.4165430000000 1.0
C      1  0.4266700000000  0.4555350000000  0.4648700000000 1.0
C      1  0.4321290000000  0.4622200000000  0.5397080000000 1.0
C      1  0.4752890000000  0.4628780000000  0.5684170000000 1.0
C      1  0.5479820000000  0.4596000000000  0.5712550000000 1.0
C      1  0.5810360000000  0.4597350000000  0.5059860000000 1.0
C      1  0.5477620000000  0.4607970000000  0.4440310000000 1.0
C      1  0.5103990000000  0.5853220000000  0.5463100000000 1.0
C      1  0.5351360000000  0.5828320000000  0.5312950000000 1.0
C      1  0.5412350000000  0.5865270000000  0.4827470000000 1.0
C      1  0.5219410000000  0.5873450000000  0.4613730000000 1.0
C      1  0.4730240000000  0.5842540000000  0.4620180000000 1.0
C      1  0.4552990000000  0.5835200000000  0.4845640000000 1.0
C      1  0.4625690000000  0.5839060000000  0.5337490000000 1.0
C      1  0.4736040000000  0.4874860000000  0.5112210000000 1.0
C      1  0.5128620000000  0.4807240000000  0.5394740000000 1.0
C      1  0.5413630000000  0.4794830000000  0.5292780000000 1.0
C      1  0.5385010000000  0.4779390000000  0.4985690000000 1.0
C      1  0.5030560000000  0.4794420000000  0.4639230000000 1.0
C      1  0.4728760000000  0.4800190000000  0.4601120000000 1.0
C      1  0.4571360000000  0.4791020000000  0.4871430000000 1.0
C      1  0.5113130000000  0.5411460000000  0.4874340000000 1.0
C      1  0.5006630000000  0.5615210000000  0.5003950000000 1.0
C      1  0.5135720000000  0.4234780000000  0.4860130000000 1.0
C      1  0.4967080000000  0.4746190000000  0.5153360000000 1.0
C      1  0.5108490000000  0.4730860000000  0.4917060000000 1.0
C      1  0.4880160000000  0.4206930000000  0.4988120000000 1.0
END
