TITL C-140542-1810-2 0.0161667787751037 125000 -144.61470061638 0 0 23 (C2) n - 1
REM
REM in /rds/project/t2_vol4/rds-t2-cs072/BORA/CARBON/from-Arr/AIRSS/Generating-Clusters/GAP-ML-2020/Higher-Symm/SD-CG/HFTN-CG
REM
REM
REM
REM
REM
REM ./C.cell (b20cbc046b6831c77cfcea5457e17084)
REM AIRSS Version 0.9.1 bugfix July 2018 build 013d7b7c2542+ Fri, 06 Jul 2018 19:26:36 +0100
REM compiler GCC version 9.3.0
REM options -cpp -mtune=generic -march=x86-64 -g -O0
REM seed 73578356 394771192 738465842 1856066013 826691718 -996399449 -827465517 -621253186 -1412977203 10777426 -281871168 -1301121051 416274720 846880226 -1999909648 -1390994130 1235383008 1270775258 -86884601 -1744847602 131018336 -1005474214 2040036075 -1798685574 1586119143 -563358091 1531823387 -1598200594 -224521269 695958352 -327718398 -749404305 1333805796
REM
CELL 1.54180   50.00000   50.00000   50.00000   90.00000   90.00000   90.00000
LATT -1
SFAC C  
C      1  0.4663410000000  0.5115710000000  0.4964860000000 1.0
C      1  0.4663160000000  0.4850330000000  0.5036700000000 1.0
C      1  0.4994640000000  0.4677900000000  0.4657600000000 1.0
C      1  0.4996590000000  0.5287220000000  0.5342880000000 1.0
C      1  0.5001960000000  0.5402380000000  0.4873040000000 1.0
C      1  0.5001220000000  0.4562730000000  0.5127420000000 1.0
C      1  0.5366460000000  0.4359370000000  0.4807680000000 1.0
C      1  0.5368800000000  0.5604730000000  0.5191590000000 1.0
C      1  0.5198000000000  0.4487110000000  0.4673290000000 1.0
C      1  0.5200430000000  0.5477440000000  0.5326530000000 1.0
C      1  0.4602310000000  0.4731230000000  0.5292270000000 1.0
C      1  0.4602050000000  0.5234970000000  0.4709490000000 1.0
C      1  0.4996900000000  0.5070730000000  0.5506230000000 1.0
C      1  0.4995010000000  0.4894390000000  0.4494250000000 1.0
C      1  0.4848320000000  0.4670630000000  0.4902920000000 1.0
C      1  0.4849500000000  0.5294890000000  0.5098040000000 1.0
C      1  0.4840150000000  0.4626820000000  0.5381350000000 1.0
C      1  0.4839890000000  0.5338730000000  0.4619640000000 1.0
C      1  0.5191280000000  0.5173740000000  0.4819310000000 1.0
C      1  0.5191340000000  0.4790840000000  0.5180530000000 1.0
C      1  0.5051410000000  0.5153670000000  0.4547450000000 1.0
C      1  0.5052410000000  0.4811290000000  0.5452840000000 1.0
C      1  0.5232200000000  0.4982230000000  0.4999860000000 1.0
END
