TITL C-148568-4682-8 0.110170907845375 125000 -909.60761973965 0 0 128 (C1) n - 1
REM
REM in /rds/project/t2_vol4/rds-t2-cs072/BORA/CARBON/from-Arr/AIRSS/Generating-Clusters/GAP-ML-2020/Higher-Symm/SD-CG/HFTN-CG
REM
REM
REM
REM
REM
REM ./C.cell (b20cbc046b6831c77cfcea5457e17084)
REM AIRSS Version 0.9.1 bugfix July 2018 build 013d7b7c2542+ Fri, 06 Jul 2018 19:26:36 +0100
REM compiler GCC version 9.3.0
REM options -cpp -mtune=generic -march=x86-64 -g -O0
REM seed 1334295952 110382570 -1364819280 1608251478 1402206476 -720334594 -445367376 129243413 698602107 -302064612 -522586713 1795641536 405775923 2063633165 1003786599 -859153183 -51806620 1125638207 1468930231 801260151 1415280777 1105062097 2008948867 129168146 -1164336081 1194575630 -1066704287 -361408985 28252184 424642825 -806589199 445839011 -1977570421
REM
CELL 1.54180   50.00000   50.00000   50.00000   90.00000   90.00000   90.00000
LATT -1
SFAC C  
C      1  0.5963620000000  0.4932650000000  0.4917550000000 1.0
C      1  0.4260720000000  0.4764660000000  0.5546370000000 1.0
C      1  0.4485060000000  0.5350990000000  0.4884050000000 1.0
C      1  0.5043440000000  0.4545070000000  0.5025690000000 1.0
C      1  0.5735520000000  0.4828780000000  0.4450630000000 1.0
C      1  0.5267110000000  0.5270250000000  0.4009200000000 1.0
C      1  0.5373510000000  0.5053660000000  0.4994690000000 1.0
C      1  0.5705140000000  0.5498030000000  0.5289440000000 1.0
C      1  0.5440300000000  0.4646960000000  0.5651900000000 1.0
C      1  0.5490950000000  0.4957220000000  0.4306930000000 1.0
C      1  0.4358950000000  0.5668080000000  0.5386290000000 1.0
C      1  0.5493160000000  0.5580370000000  0.5466960000000 1.0
C      1  0.5775840000000  0.4624050000000  0.5270910000000 1.0
C      1  0.5060470000000  0.5181420000000  0.4416840000000 1.0
C      1  0.4206390000000  0.4561210000000  0.5368910000000 1.0
C      1  0.5717390000000  0.4331970000000  0.4827950000000 1.0
C      1  0.5270400000000  0.4288490000000  0.4986610000000 1.0
C      1  0.5559930000000  0.4821710000000  0.5864700000000 1.0
C      1  0.5548200000000  0.4351810000000  0.4597690000000 1.0
C      1  0.5107470000000  0.4591420000000  0.4306370000000 1.0
C      1  0.5704480000000  0.5062840000000  0.5772790000000 1.0
C      1  0.4441730000000  0.4683020000000  0.4909660000000 1.0
C      1  0.5353410000000  0.5411910000000  0.5657530000000 1.0
C      1  0.4752080000000  0.5836040000000  0.5121730000000 1.0
C      1  0.4203000000000  0.5654760000000  0.5147190000000 1.0
C      1  0.5882820000000  0.4983010000000  0.4638360000000 1.0
C      1  0.5523790000000  0.5595880000000  0.4545900000000 1.0
C      1  0.4336660000000  0.4274310000000  0.5108020000000 1.0
C      1  0.4873730000000  0.4741780000000  0.4241550000000 1.0
C      1  0.4605660000000  0.4395190000000  0.4473190000000 1.0
C      1  0.4599580000000  0.4453220000000  0.4770130000000 1.0
C      1  0.5277890000000  0.4903080000000  0.4765070000000 1.0
C      1  0.4845480000000  0.3931080000000  0.4464650000000 1.0
C      1  0.4789990000000  0.4115950000000  0.5468970000000 1.0
C      1  0.5301740000000  0.5644060000000  0.4388360000000 1.0
C      1  0.5307980000000  0.5329410000000  0.4943590000000 1.0
C      1  0.5287950000000  0.4287490000000  0.4683190000000 1.0
C      1  0.5475630000000  0.5233740000000  0.5840780000000 1.0
C      1  0.4854350000000  0.3945630000000  0.4727730000000 1.0
C      1  0.5596290000000  0.4823280000000  0.5401610000000 1.0
C      1  0.5719450000000  0.5575520000000  0.5006000000000 1.0
C      1  0.4539600000000  0.4214510000000  0.4933330000000 1.0
C      1  0.5324690000000  0.5794180000000  0.5395070000000 1.0
C      1  0.4914790000000  0.5312460000000  0.5877860000000 1.0
C      1  0.5053550000000  0.4394080000000  0.4532730000000 1.0
C      1  0.5373800000000  0.4677580000000  0.4271700000000 1.0
C      1  0.4276300000000  0.5755860000000  0.4909890000000 1.0
C      1  0.4900340000000  0.5246510000000  0.4659680000000 1.0
C      1  0.4639130000000  0.5127780000000  0.4752290000000 1.0
C      1  0.5954310000000  0.4460070000000  0.4857040000000 1.0
C      1  0.5595020000000  0.4570140000000  0.4418530000000 1.0
C      1  0.4809500000000  0.4979250000000  0.4959080000000 1.0
C      1  0.4394690000000  0.4908650000000  0.4684360000000 1.0
C      1  0.5474310000000  0.5618180000000  0.4833560000000 1.0
C      1  0.5522970000000  0.5168980000000  0.4090140000000 1.0
C      1  0.4882250000000  0.5224700000000  0.5131040000000 1.0
C      1  0.5155240000000  0.5432100000000  0.4238640000000 1.0
C      1  0.5011990000000  0.5858820000000  0.4717960000000 1.0
C      1  0.4648230000000  0.5627260000000  0.5310540000000 1.0
C      1  0.5012130000000  0.4225810000000  0.5618940000000 1.0
C      1  0.5715750000000  0.5421170000000  0.4429810000000 1.0
C      1  0.5032890000000  0.5341840000000  0.4907290000000 1.0
C      1  0.4902380000000  0.4526620000000  0.4765590000000 1.0
C      1  0.4447760000000  0.5587320000000  0.4446000000000 1.0
C      1  0.4233050000000  0.4542640000000  0.5075670000000 1.0
C      1  0.5263020000000  0.5835940000000  0.4876650000000 1.0
C      1  0.4726220000000  0.5499000000000  0.5788120000000 1.0
C      1  0.4291890000000  0.5450010000000  0.5553150000000 1.0
C      1  0.4862390000000  0.5045190000000  0.5942160000000 1.0
C      1  0.4129090000000  0.5269880000000  0.5395100000000 1.0
C      1  0.5714530000000  0.5347330000000  0.4158720000000 1.0
C      1  0.5100970000000  0.4895850000000  0.5919210000000 1.0
C      1  0.4493210000000  0.4722560000000  0.5733630000000 1.0
C      1  0.4745300000000  0.5824500000000  0.4841380000000 1.0
C      1  0.4234030000000  0.5007330000000  0.5405290000000 1.0
C      1  0.3982840000000  0.5110050000000  0.4486860000000 1.0
C      1  0.5890560000000  0.5387150000000  0.4881480000000 1.0
C      1  0.4167870000000  0.5225730000000  0.4320050000000 1.0
C      1  0.5956820000000  0.5178850000000  0.5062580000000 1.0
C      1  0.4606870000000  0.5337090000000  0.5158170000000 1.0
C      1  0.5856450000000  0.5272590000000  0.4623880000000 1.0
C      1  0.4937820000000  0.4467930000000  0.5736570000000 1.0
C      1  0.4500550000000  0.5659690000000  0.4747750000000 1.0
C      1  0.4659530000000  0.5484200000000  0.4269950000000 1.0
C      1  0.5068510000000  0.5098190000000  0.3953470000000 1.0
C      1  0.5931520000000  0.4675680000000  0.5036910000000 1.0
C      1  0.5052470000000  0.5772780000000  0.4452620000000 1.0
C      1  0.4431730000000  0.4832140000000  0.4399750000000 1.0
C      1  0.4211330000000  0.5495400000000  0.4354460000000 1.0
C      1  0.4640270000000  0.4817790000000  0.5135280000000 1.0
C      1  0.5556290000000  0.4285920000000  0.5054970000000 1.0
C      1  0.4638560000000  0.4956840000000  0.5785210000000 1.0
C      1  0.4859430000000  0.5616050000000  0.5549450000000 1.0
C      1  0.4910590000000  0.5601430000000  0.4261880000000 1.0
C      1  0.4635750000000  0.5207150000000  0.4180680000000 1.0
C      1  0.5129700000000  0.4708100000000  0.5686730000000 1.0
C      1  0.4130240000000  0.5072340000000  0.4709220000000 1.0
C      1  0.5049680000000  0.5820520000000  0.5487350000000 1.0
C      1  0.4654400000000  0.5114880000000  0.5538530000000 1.0
C      1  0.5064360000000  0.5355570000000  0.5614510000000 1.0
C      1  0.4624210000000  0.4636230000000  0.4333820000000 1.0
C      1  0.4513800000000  0.5342560000000  0.5688990000000 1.0
C      1  0.5848350000000  0.5248930000000  0.5323290000000 1.0
C      1  0.4946770000000  0.5145230000000  0.5419470000000 1.0
C      1  0.4827850000000  0.4207900000000  0.4447120000000 1.0
C      1  0.5465040000000  0.4380720000000  0.5520490000000 1.0
C      1  0.5077490000000  0.4872240000000  0.5397920000000 1.0
C      1  0.4330710000000  0.4300240000000  0.5394410000000 1.0
C      1  0.5346600000000  0.4929270000000  0.5257160000000 1.0
C      1  0.4084800000000  0.5387550000000  0.5140060000000 1.0
C      1  0.4558210000000  0.4263970000000  0.5555370000000 1.0
C      1  0.5353000000000  0.5000930000000  0.5971030000000 1.0
C      1  0.5644520000000  0.4378660000000  0.5300550000000 1.0
C      1  0.4891010000000  0.4034930000000  0.5215920000000 1.0
C      1  0.5292430000000  0.5038830000000  0.4506410000000 1.0
C      1  0.5244250000000  0.5921640000000  0.5139140000000 1.0
C      1  0.4976070000000  0.5946690000000  0.5237860000000 1.0
C      1  0.5250530000000  0.4201690000000  0.5473680000000 1.0
C      1  0.4888610000000  0.5039000000000  0.4176310000000 1.0
C      1  0.4190910000000  0.5275330000000  0.4902360000000 1.0
C      1  0.5017530000000  0.4789090000000  0.4841000000000 1.0
C      1  0.4890990000000  0.4681030000000  0.5239500000000 1.0
C      1  0.4744120000000  0.4016510000000  0.4968540000000 1.0
C      1  0.4398780000000  0.5072520000000  0.4246160000000 1.0
C      1  0.5779110000000  0.5047920000000  0.5507540000000 1.0
C      1  0.4646760000000  0.4479320000000  0.5723720000000 1.0
C      1  0.4502900000000  0.5050220000000  0.5297200000000 1.0
C      1  0.5167930000000  0.4112650000000  0.5210840000000 1.0
END
