TITL C-146869-7430-6 0.132661705305427 125000 -480.360140387359 0 0 72 (C1) n - 1
REM
REM in /rds/project/t2_vol4/rds-t2-cs072/BORA/CARBON/from-Arr/AIRSS/Generating-Clusters/GAP-ML-2020/Higher-Symm/SD-CG/HFTN-CG
REM
REM
REM
REM
REM
REM ./C.cell (b20cbc046b6831c77cfcea5457e17084)
REM AIRSS Version 0.9.1 bugfix July 2018 build 013d7b7c2542+ Fri, 06 Jul 2018 19:26:36 +0100
REM compiler GCC version 9.3.0
REM options -cpp -mtune=generic -march=x86-64 -g -O0
REM seed 1926543108 -479993142 908547289 -744215502 908514912 -346596361 1287076071 741050587 780424093 1469729827 -603632456 -908920309 1081934758 1505812621 -327536903 -1663704371 -1795047072 884845340 -765174019 280356824 1149466658 78302006 1217220562 19271110 -1158213739 -798071359 -1187332481 -2041531626 751398675 -434016924 -1465754239 620471247 -1272395030
REM
CELL 1.54180   50.00000   50.00000   50.00000   90.00000   90.00000   90.00000
LATT -1
SFAC C  
C      1  0.5076320000000  0.5161900000000  0.5738010000000 1.0
C      1  0.5715380000000  0.5140000000000  0.5169190000000 1.0
C      1  0.5389250000000  0.5163370000000  0.4381430000000 1.0
C      1  0.4527980000000  0.5170660000000  0.4458500000000 1.0
C      1  0.4341370000000  0.5140080000000  0.5299200000000 1.0
C      1  0.4339760000000  0.5149880000000  0.5018270000000 1.0
C      1  0.4810510000000  0.5149090000000  0.5649300000000 1.0
C      1  0.5551210000000  0.5145160000000  0.5395810000000 1.0
C      1  0.5553690000000  0.5156200000000  0.4608070000000 1.0
C      1  0.4795860000000  0.5164990000000  0.4369840000000 1.0
C      1  0.5141650000000  0.5249090000000  0.5259500000000 1.0
C      1  0.5289360000000  0.5244150000000  0.4949910000000 1.0
C      1  0.5048300000000  0.5248620000000  0.4725180000000 1.0
C      1  0.4750470000000  0.5246570000000  0.4891200000000 1.0
C      1  0.4811920000000  0.5243250000000  0.5215400000000 1.0
C      1  0.4381800000000  0.4539820000000  0.5073680000000 1.0
C      1  0.4872240000000  0.4582870000000  0.5646070000000 1.0
C      1  0.5563630000000  0.4578380000000  0.5344870000000 1.0
C      1  0.5461730000000  0.4533490000000  0.4590630000000 1.0
C      1  0.4720190000000  0.4547070000000  0.4404010000000 1.0
C      1  0.5003890000000  0.5009040000000  0.4551820000000 1.0
C      1  0.4573090000000  0.5004060000000  0.4874030000000 1.0
C      1  0.4748790000000  0.4997020000000  0.5378490000000 1.0
C      1  0.5276250000000  0.5007990000000  0.5370280000000 1.0
C      1  0.5439640000000  0.4998250000000  0.4857120000000 1.0
C      1  0.5249960000000  0.5387160000000  0.5679080000000 1.0
C      1  0.5720730000000  0.5372740000000  0.4995190000000 1.0
C      1  0.5216620000000  0.5390940000000  0.4328170000000 1.0
C      1  0.4421570000000  0.5393360000000  0.4613000000000 1.0
C      1  0.4441860000000  0.5370550000000  0.5443900000000 1.0
C      1  0.5069050000000  0.5491950000000  0.4563180000000 1.0
C      1  0.4600690000000  0.5490600000000  0.4823620000000 1.0
C      1  0.4698320000000  0.5481830000000  0.5339990000000 1.0
C      1  0.5227250000000  0.5488800000000  0.5404770000000 1.0
C      1  0.5454720000000  0.5483540000000  0.4926270000000 1.0
C      1  0.5131620000000  0.5718890000000  0.5230320000000 1.0
C      1  0.5255280000000  0.5715860000000  0.4965600000000 1.0
C      1  0.5042020000000  0.5719200000000  0.4767160000000 1.0
C      1  0.4784860000000  0.5718340000000  0.4910580000000 1.0
C      1  0.4840440000000  0.5714620000000  0.5195710000000 1.0
C      1  0.5128360000000  0.4659360000000  0.5643280000000 1.0
C      1  0.5619470000000  0.4633120000000  0.5090700000000 1.0
C      1  0.5279250000000  0.4649560000000  0.4422880000000 1.0
C      1  0.4525870000000  0.4662590000000  0.4567620000000 1.0
C      1  0.4464190000000  0.4628980000000  0.5314990000000 1.0
C      1  0.5477850000000  0.5381070000000  0.5539690000000 1.0
C      1  0.5666400000000  0.5382670000000  0.4733800000000 1.0
C      1  0.4950780000000  0.5391810000000  0.4301180000000 1.0
C      1  0.4317160000000  0.5386030000000  0.4860690000000 1.0
C      1  0.4643950000000  0.5377230000000  0.5617410000000 1.0
C      1  0.5173040000000  0.4770760000000  0.5202650000000 1.0
C      1  0.5240190000000  0.4762950000000  0.4903950000000 1.0
C      1  0.4981470000000  0.4764020000000  0.4740900000000 1.0
C      1  0.4753070000000  0.4762010000000  0.4942480000000 1.0
C      1  0.4875230000000  0.4763150000000  0.5225160000000 1.0
C      1  0.5286270000000  0.4544910000000  0.5401600000000 1.0
C      1  0.5415330000000  0.4509000000000  0.4879030000000 1.0
C      1  0.5005030000000  0.4561350000000  0.4514380000000 1.0
C      1  0.4560990000000  0.4529130000000  0.4847220000000 1.0
C      1  0.4756790000000  0.4524700000000  0.5389140000000 1.0
C      1  0.5238450000000  0.4928830000000  0.4393890000000 1.0
C      1  0.4489640000000  0.4932660000000  0.4601370000000 1.0
C      1  0.4471670000000  0.4904470000000  0.5377220000000 1.0
C      1  0.5188800000000  0.4930010000000  0.5638770000000 1.0
C      1  0.5654490000000  0.4906200000000  0.5029530000000 1.0
C      1  0.4901010000000  0.4297410000000  0.5269790000000 1.0
C      1  0.5189360000000  0.4307120000000  0.5286780000000 1.0
C      1  0.5224880000000  0.4296140000000  0.4997610000000 1.0
C      1  0.4846180000000  0.4329540000000  0.4529780000000 1.0
C      1  0.4744000000000  0.4296680000000  0.4795130000000 1.0
C      1  0.5010740000000  0.5310560000000  0.5008560000000 1.0
C      1  0.4934510000000  0.4246980000000  0.4988050000000 1.0
END
