TITL C-140565-1591-1 0.00361473759683317 125000 -746.287087837999 0 0 107 (C1) n - 1
REM
REM in /rds/project/t2_vol4/rds-t2-cs072/BORA/CARBON/from-Arr/AIRSS/Generating-Clusters/GAP-ML-2020/Higher-Symm/SD-CG/HFTN-CG
REM
REM
REM
REM
REM
REM ./C.cell (b20cbc046b6831c77cfcea5457e17084)
REM AIRSS Version 0.9.1 bugfix July 2018 build 013d7b7c2542+ Fri, 06 Jul 2018 19:26:36 +0100
REM compiler GCC version 9.3.0
REM options -cpp -mtune=generic -march=x86-64 -g -O0
REM seed -1921271450 -1628346955 -656037717 -1660632918 -855501850 -767795795 -757206491 -603486426 1584538690 -628078318 587472174 -413126782 -15428183 666571881 227066266 1484637915 -1918617967 -1368930496 662944091 1440689801 352509275 -1575622661 -748944454 330366677 -797034290 -1534422823 -181787571 616669777 1258530107 382102318 899402840 1403538194 -104024203
REM
CELL 1.54180   50.00000   50.00000   50.00000   90.00000   90.00000   90.00000
LATT -1
SFAC C  
C      1  0.4817600000000  0.4836560000000  0.4118000000000 1.0
C      1  0.4485930000000  0.4292170000000  0.5294130000000 1.0
C      1  0.5209890000000  0.5790750000000  0.5222150000000 1.0
C      1  0.5749730000000  0.5278740000000  0.5092300000000 1.0
C      1  0.5109540000000  0.4139620000000  0.4964650000000 1.0
C      1  0.5563170000000  0.5564320000000  0.4761650000000 1.0
C      1  0.5598210000000  0.5052830000000  0.5784730000000 1.0
C      1  0.5023480000000  0.5764610000000  0.4434420000000 1.0
C      1  0.4413920000000  0.4976310000000  0.4239160000000 1.0
C      1  0.4501530000000  0.5080150000000  0.4483290000000 1.0
C      1  0.4453850000000  0.5633700000000  0.4419870000000 1.0
C      1  0.4656430000000  0.5571130000000  0.4225150000000 1.0
C      1  0.4776140000000  0.5816640000000  0.4339250000000 1.0
C      1  0.4982510000000  0.4902630000000  0.4683390000000 1.0
C      1  0.5406010000000  0.4407500000000  0.5574200000000 1.0
C      1  0.5424830000000  0.4824820000000  0.5866740000000 1.0
C      1  0.5240950000000  0.5107060000000  0.4161250000000 1.0
C      1  0.5174720000000  0.5220390000000  0.5347600000000 1.0
C      1  0.5484110000000  0.5681480000000  0.5305680000000 1.0
C      1  0.5063420000000  0.5110270000000  0.5824920000000 1.0
C      1  0.5472490000000  0.4742620000000  0.4322420000000 1.0
C      1  0.4876810000000  0.5216420000000  0.5268200000000 1.0
C      1  0.5499100000000  0.5322810000000  0.5693410000000 1.0
C      1  0.4165770000000  0.5100900000000  0.5226610000000 1.0
C      1  0.4710830000000  0.4187550000000  0.5401550000000 1.0
C      1  0.5852230000000  0.5216320000000  0.4838800000000 1.0
C      1  0.4372370000000  0.4383800000000  0.5033240000000 1.0
C      1  0.4978710000000  0.4216200000000  0.5456200000000 1.0
C      1  0.6033210000000  0.4689540000000  0.5292270000000 1.0
C      1  0.4943140000000  0.4707480000000  0.4894130000000 1.0
C      1  0.4798150000000  0.5472720000000  0.5151290000000 1.0
C      1  0.5229530000000  0.4639620000000  0.4216880000000 1.0
C      1  0.4698710000000  0.4649540000000  0.4322990000000 1.0
C      1  0.5174210000000  0.4147300000000  0.5254260000000 1.0
C      1  0.5743800000000  0.4842640000000  0.5643900000000 1.0
C      1  0.4407800000000  0.4706500000000  0.4339820000000 1.0
C      1  0.5537680000000  0.4330660000000  0.5037590000000 1.0
C      1  0.5549010000000  0.5540430000000  0.5531830000000 1.0
C      1  0.4420210000000  0.4663930000000  0.5617330000000 1.0
C      1  0.5494110000000  0.5025430000000  0.4284950000000 1.0
C      1  0.4736030000000  0.4714720000000  0.5653310000000 1.0
C      1  0.5551420000000  0.5498710000000  0.5066280000000 1.0
C      1  0.4795320000000  0.5957370000000  0.5026660000000 1.0
C      1  0.4228670000000  0.5134990000000  0.5506490000000 1.0
C      1  0.5126670000000  0.4431430000000  0.4384400000000 1.0
C      1  0.4229400000000  0.5345850000000  0.5093300000000 1.0
C      1  0.4557390000000  0.5528380000000  0.5620550000000 1.0
C      1  0.5048530000000  0.5156120000000  0.4752750000000 1.0
C      1  0.4719490000000  0.4285970000000  0.4653360000000 1.0
C      1  0.4372100000000  0.5342750000000  0.4852610000000 1.0
C      1  0.4891060000000  0.5397380000000  0.4709980000000 1.0
C      1  0.4667210000000  0.5071060000000  0.4125280000000 1.0
C      1  0.5735640000000  0.5377460000000  0.4631540000000 1.0
C      1  0.4480710000000  0.4456650000000  0.4769500000000 1.0
C      1  0.4304660000000  0.5129570000000  0.4680030000000 1.0
C      1  0.5340350000000  0.4392700000000  0.4585210000000 1.0
C      1  0.5847350000000  0.4880890000000  0.5386050000000 1.0
C      1  0.5688250000000  0.5133020000000  0.4466720000000 1.0
C      1  0.5093290000000  0.4859990000000  0.4107570000000 1.0
C      1  0.4712960000000  0.4870850000000  0.4569450000000 1.0
C      1  0.5146560000000  0.4841160000000  0.5862370000000 1.0
C      1  0.4649800000000  0.5476890000000  0.4881410000000 1.0
C      1  0.4230790000000  0.4855450000000  0.5063480000000 1.0
C      1  0.4625880000000  0.4975960000000  0.5785740000000 1.0
C      1  0.4311620000000  0.4498780000000  0.5425810000000 1.0
C      1  0.4840350000000  0.4410300000000  0.4420910000000 1.0
C      1  0.5021320000000  0.5985770000000  0.5158980000000 1.0
C      1  0.4323040000000  0.5533940000000  0.5278300000000 1.0
C      1  0.4865480000000  0.4139210000000  0.4836790000000 1.0
C      1  0.5021310000000  0.4696200000000  0.5165290000000 1.0
C      1  0.4651850000000  0.4722500000000  0.4836770000000 1.0
C      1  0.5084030000000  0.5578510000000  0.5064630000000 1.0
C      1  0.5291140000000  0.5145900000000  0.4892120000000 1.0
C      1  0.4702990000000  0.5451650000000  0.5827660000000 1.0
C      1  0.4541820000000  0.4898570000000  0.5038320000000 1.0
C      1  0.4801710000000  0.5333850000000  0.4148040000000 1.0
C      1  0.5647940000000  0.5041390000000  0.5224000000000 1.0
C      1  0.5996160000000  0.4519820000000  0.5105150000000 1.0
C      1  0.5335940000000  0.5598830000000  0.4610090000000 1.0
C      1  0.4631290000000  0.5796690000000  0.4855020000000 1.0
C      1  0.5531910000000  0.4600710000000  0.4556060000000 1.0
C      1  0.5283910000000  0.5358520000000  0.5099000000000 1.0
C      1  0.4573610000000  0.5832370000000  0.4574650000000 1.0
C      1  0.4299600000000  0.4642860000000  0.4605570000000 1.0
C      1  0.4594680000000  0.5612380000000  0.5330780000000 1.0
C      1  0.4303000000000  0.5410740000000  0.5540300000000 1.0
C      1  0.4791270000000  0.5187880000000  0.5862770000000 1.0
C      1  0.5218190000000  0.5267240000000  0.5641160000000 1.0
C      1  0.5449830000000  0.4905890000000  0.4974190000000 1.0
C      1  0.5214520000000  0.5578190000000  0.4339670000000 1.0
C      1  0.5122960000000  0.4396940000000  0.5644010000000 1.0
C      1  0.4719830000000  0.4990540000000  0.5239550000000 1.0
C      1  0.5362700000000  0.4991370000000  0.5364060000000 1.0
C      1  0.5555600000000  0.4618330000000  0.5712010000000 1.0
C      1  0.5808280000000  0.4974350000000  0.4677180000000 1.0
C      1  0.4826300000000  0.4761900000000  0.5362470000000 1.0
C      1  0.5074510000000  0.5627700000000  0.4734590000000 1.0
C      1  0.5426860000000  0.4266890000000  0.5307920000000 1.0
C      1  0.4991120000000  0.4615370000000  0.5775060000000 1.0
C      1  0.4364510000000  0.4940260000000  0.5673130000000 1.0
C      1  0.4210970000000  0.4583160000000  0.5165830000000 1.0
C      1  0.5342600000000  0.4260210000000  0.4839400000000 1.0
C      1  0.5097960000000  0.5353220000000  0.4185020000000 1.0
C      1  0.4202570000000  0.4871370000000  0.4765930000000 1.0
C      1  0.5280980000000  0.4791450000000  0.5186070000000 1.0
C      1  0.5755570000000  0.4503890000000  0.4965370000000 1.0
C      1  0.5654840000000  0.4734960000000  0.4786140000000 1.0
END
