TITL C-146856-8651-4 17.0276239013838 125000 -320.191228969058 0 0 49 (C1) n - 1
REM
REM in /rds/project/t2_vol4/rds-t2-cs072/BORA/CARBON/from-Arr/AIRSS/Generating-Clusters/GAP-ML-2020/Higher-Symm/SD-CG/HFTN-CG
REM
REM
REM
REM
REM
REM ./C.cell (b20cbc046b6831c77cfcea5457e17084)
REM AIRSS Version 0.9.1 bugfix July 2018 build 013d7b7c2542+ Fri, 06 Jul 2018 19:26:36 +0100
REM compiler GCC version 9.3.0
REM options -cpp -mtune=generic -march=x86-64 -g -O0
REM seed -1056412086 1088947551 1836904897 -1913235116 -2099143883 1364916312 541465700 414460191 1138107950 102552902 -1965605741 -1526005421 389598473 -620724481 -450819129 -1842684144 231512781 552003680 -1691623322 632619094 -1820569267 -1124352153 -308054439 89046074 -310360293 -146881166 1993014603 -1071427329 1709027769 -2126286639 1944042069 -1034415928 -2031903030
REM
CELL 1.54180   50.00000   50.00000   50.00000   90.00000   90.00000   90.00000
LATT -1
SFAC C  
C      1  0.4609030000000  0.5302680000000  0.5347980000000 1.0
C      1  0.5059260000000  0.5485240000000  0.4648860000000 1.0
C      1  0.5463050000000  0.5186770000000  0.5359550000000 1.0
C      1  0.5395960000000  0.4693970000000  0.4635180000000 1.0
C      1  0.4924550000000  0.4513480000000  0.5343450000000 1.0
C      1  0.4535440000000  0.4808410000000  0.4645550000000 1.0
C      1  0.5201490000000  0.4616880000000  0.5270820000000 1.0
C      1  0.4759130000000  0.4618740000000  0.4702580000000 1.0
C      1  0.4530980000000  0.5008390000000  0.5292960000000 1.0
C      1  0.4780710000000  0.5378600000000  0.4700590000000 1.0
C      1  0.5247910000000  0.5390070000000  0.5293730000000 1.0
C      1  0.5434980000000  0.4990780000000  0.4705710000000 1.0
C      1  0.5117320000000  0.5196380000000  0.5078920000000 1.0
C      1  0.5277030000000  0.4986800000000  0.4970380000000 1.0
C      1  0.5138770000000  0.4736080000000  0.4993440000000 1.0
C      1  0.4853390000000  0.4741670000000  0.4962870000000 1.0
C      1  0.4765690000000  0.4984490000000  0.5084260000000 1.0
C      1  0.4850230000000  0.5236690000000  0.4962930000000 1.0
C      1  0.5495230000000  0.5416080000000  0.4841940000000 1.0
C      1  0.5611530000000  0.4748960000000  0.5154140000000 1.0
C      1  0.5096130000000  0.4329830000000  0.4815020000000 1.0
C      1  0.4481750000000  0.4579490000000  0.5156060000000 1.0
C      1  0.4374930000000  0.5217200000000  0.4833030000000 1.0
C      1  0.4889430000000  0.5642430000000  0.5150840000000 1.0
C      1  0.5607340000000  0.5173520000000  0.4863230000000 1.0
C      1  0.5454250000000  0.4531450000000  0.5127520000000 1.0
C      1  0.4828900000000  0.4354340000000  0.4845710000000 1.0
C      1  0.4386160000000  0.4832210000000  0.5117630000000 1.0
C      1  0.4522590000000  0.5440630000000  0.4848980000000 1.0
C      1  0.5159600000000  0.5603010000000  0.5119560000000 1.0
C      1  0.5539760000000  0.5020120000000  0.5135950000000 1.0
C      1  0.5304220000000  0.4519320000000  0.4846090000000 1.0
C      1  0.4744350000000  0.4492020000000  0.5120600000000 1.0
C      1  0.4385430000000  0.4946120000000  0.4841790000000 1.0
C      1  0.4687850000000  0.5451720000000  0.5119720000000 1.0
C      1  0.5256750000000  0.5547170000000  0.4840940000000 1.0
C      1  0.5099940000000  0.5302620000000  0.5552890000000 1.0
C      1  0.5267710000000  0.5062860000000  0.4476300000000 1.0
C      1  0.5157320000000  0.4844190000000  0.5466960000000 1.0
C      1  0.4917200000000  0.4727950000000  0.4475980000000 1.0
C      1  0.4688820000000  0.4929910000000  0.5538800000000 1.0
C      1  0.4801870000000  0.5200190000000  0.4468070000000 1.0
C      1  0.5185280000000  0.4784470000000  0.4459370000000 1.0
C      1  0.4881110000000  0.4726400000000  0.5526040000000 1.0
C      1  0.4716490000000  0.4937630000000  0.4460030000000 1.0
C      1  0.4837660000000  0.5202880000000  0.5504660000000 1.0
C      1  0.5084260000000  0.5268420000000  0.4458990000000 1.0
C      1  0.5299120000000  0.5077820000000  0.5567760000000 1.0
C      1  0.4984910000000  0.5034920000000  0.5298390000000 1.0
END
