TITL C-146851-697-3 -0.193680981211636 125000 -515.101432018554 0 0 77 (C1) n - 1
REM
REM in /rds/project/t2_vol4/rds-t2-cs072/BORA/CARBON/from-Arr/AIRSS/Generating-Clusters/GAP-ML-2020/Higher-Symm/SD-CG/HFTN-CG
REM
REM
REM
REM
REM
REM ./C.cell (b20cbc046b6831c77cfcea5457e17084)
REM AIRSS Version 0.9.1 bugfix July 2018 build 013d7b7c2542+ Fri, 06 Jul 2018 19:26:36 +0100
REM compiler GCC version 9.3.0
REM options -cpp -mtune=generic -march=x86-64 -g -O0
REM seed 720115218 -2059073679 100173613 -870282264 -1319090235 -1459329016 -1124967306 -1831571905 -292744676 691139910 -1331037918 -889434743 826648997 -1874489108 -1641995496 1132242350 985789155 13347944 -960041274 -1119228009 178788764 -629968039 1569802505 1218243666 746636866 -736277971 -485672722 -196874883 -1920802315 2036848485 -965752461 1006402006 111863705
REM
CELL 1.54180   50.00000   50.00000   50.00000   90.00000   90.00000   90.00000
LATT -1
SFAC C  
C      1  0.4791140000000  0.5271650000000  0.5208640000000 1.0
C      1  0.4781590000000  0.5326390000000  0.4763940000000 1.0
C      1  0.4843150000000  0.4713000000000  0.4734750000000 1.0
C      1  0.4830730000000  0.4747340000000  0.5299000000000 1.0
C      1  0.5191240000000  0.5330750000000  0.5146540000000 1.0
C      1  0.5202620000000  0.5215680000000  0.4735060000000 1.0
C      1  0.5158690000000  0.4675100000000  0.4777790000000 1.0
C      1  0.5142640000000  0.4791930000000  0.5352720000000 1.0
C      1  0.5318610000000  0.4281560000000  0.4633190000000 1.0
C      1  0.5299680000000  0.4647390000000  0.5746560000000 1.0
C      1  0.5354400000000  0.5701000000000  0.5271460000000 1.0
C      1  0.5373850000000  0.5345100000000  0.4361390000000 1.0
C      1  0.4659900000000  0.4347600000000  0.4542150000000 1.0
C      1  0.4628300000000  0.4561430000000  0.5653510000000 1.0
C      1  0.4611420000000  0.5639300000000  0.5415900000000 1.0
C      1  0.4608720000000  0.5332160000000  0.4318190000000 1.0
C      1  0.5146390000000  0.5643900000000  0.5493120000000 1.0
C      1  0.5272150000000  0.5605260000000  0.4498230000000 1.0
C      1  0.5171640000000  0.4422910000000  0.4401150000000 1.0
C      1  0.5132650000000  0.4411840000000  0.5644480000000 1.0
C      1  0.4861930000000  0.5573370000000  0.5559150000000 1.0
C      1  0.4992890000000  0.5614370000000  0.4522500000000 1.0
C      1  0.4885030000000  0.4455790000000  0.4357570000000 1.0
C      1  0.4848570000000  0.4361470000000  0.5571400000000 1.0
C      1  0.5430750000000  0.5173630000000  0.5115380000000 1.0
C      1  0.5438720000000  0.5079010000000  0.4828280000000 1.0
C      1  0.5387410000000  0.4794810000000  0.4916940000000 1.0
C      1  0.5382080000000  0.4885180000000  0.5208120000000 1.0
C      1  0.4544380000000  0.5149800000000  0.5134010000000 1.0
C      1  0.4548500000000  0.5161000000000  0.4832210000000 1.0
C      1  0.4607740000000  0.4854950000000  0.4842790000000 1.0
C      1  0.4593020000000  0.4849150000000  0.5146390000000 1.0
C      1  0.4871540000000  0.5341600000000  0.4459040000000 1.0
C      1  0.4783830000000  0.4416220000000  0.4793000000000 1.0
C      1  0.4758630000000  0.4803860000000  0.5586420000000 1.0
C      1  0.4758830000000  0.5576850000000  0.5183950000000 1.0
C      1  0.5122050000000  0.5174860000000  0.4430140000000 1.0
C      1  0.5144050000000  0.4379580000000  0.4841390000000 1.0
C      1  0.5138210000000  0.4860670000000  0.5641710000000 1.0
C      1  0.5203680000000  0.5606510000000  0.5025950000000 1.0
C      1  0.5159670000000  0.5363910000000  0.5441400000000 1.0
C      1  0.5290750000000  0.5506960000000  0.4761600000000 1.0
C      1  0.5239030000000  0.4691070000000  0.4482270000000 1.0
C      1  0.5169920000000  0.4488290000000  0.5374650000000 1.0
C      1  0.4894930000000  0.5269670000000  0.5518440000000 1.0
C      1  0.4824400000000  0.5626300000000  0.4757700000000 1.0
C      1  0.4853400000000  0.4737100000000  0.4435060000000 1.0
C      1  0.4887920000000  0.4438510000000  0.5280460000000 1.0
C      1  0.5690320000000  0.5130520000000  0.4671920000000 1.0
C      1  0.5632510000000  0.4616000000000  0.4856520000000 1.0
C      1  0.5623270000000  0.4789960000000  0.5376430000000 1.0
C      1  0.5676520000000  0.5316470000000  0.5212270000000 1.0
C      1  0.4298220000000  0.5219810000000  0.4678020000000 1.0
C      1  0.4353480000000  0.4699690000000  0.4738120000000 1.0
C      1  0.4335940000000  0.4732340000000  0.5280590000000 1.0
C      1  0.4295750000000  0.5287040000000  0.5247890000000 1.0
C      1  0.4107440000000  0.4812610000000  0.4853720000000 1.0
C      1  0.4101540000000  0.4845400000000  0.5146980000000 1.0
C      1  0.4076220000000  0.5144440000000  0.5117840000000 1.0
C      1  0.4075950000000  0.5108870000000  0.4818750000000 1.0
C      1  0.5873840000000  0.4760510000000  0.4945480000000 1.0
C      1  0.5872610000000  0.4859200000000  0.5228580000000 1.0
C      1  0.5903760000000  0.5142470000000  0.5131090000000 1.0
C      1  0.5907190000000  0.5041310000000  0.4845950000000 1.0
C      1  0.5596910000000  0.5565730000000  0.5286410000000 1.0
C      1  0.5615400000000  0.5253010000000  0.4442170000000 1.0
C      1  0.5558030000000  0.4392780000000  0.4725480000000 1.0
C      1  0.5548040000000  0.4686380000000  0.5612590000000 1.0
C      1  0.4373330000000  0.5498340000000  0.5400680000000 1.0
C      1  0.4378450000000  0.5284930000000  0.4420300000000 1.0
C      1  0.4428920000000  0.4498850000000  0.4576500000000 1.0
C      1  0.4404000000000  0.4593230000000  0.5496840000000 1.0
C      1  0.4919640000000  0.4305430000000  0.5014530000000 1.0
C      1  0.5082500000000  0.4896630000000  0.4358980000000 1.0
C      1  0.4905540000000  0.5025200000000  0.5683020000000 1.0
C      1  0.4927780000000  0.5702090000000  0.5003210000000 1.0
C      1  0.4981530000000  0.5205780000000  0.4963750000000 1.0
END
