TITL C-148561-4633-4 -0.0226795617563824 125000 -75.2409300966712 0 0 12 (Cs) n - 1
REM
REM in /rds/project/t2_vol4/rds-t2-cs072/BORA/CARBON/from-Arr/AIRSS/Generating-Clusters/GAP-ML-2020/Higher-Symm/SD-CG/HFTN-CG
REM
REM
REM
REM
REM
REM ./C.cell (b20cbc046b6831c77cfcea5457e17084)
REM AIRSS Version 0.9.1 bugfix July 2018 build 013d7b7c2542+ Fri, 06 Jul 2018 19:26:36 +0100
REM compiler GCC version 9.3.0
REM options -cpp -mtune=generic -march=x86-64 -g -O0
REM seed 800776652 1082849928 -1925042902 1564933328 -49832393 -2000863264 465342208 262762506 -590899494 -260372701 1081856304 -1901171424 -1479137132 683579551 -983646540 1543782225 -1790631585 1764518436 -1472921435 627733947 5139356 -220770144 283743494 1132755784 -1927592568 1481560575 -884558317 -1105275114 -396418678 610962487 -1652239300 1326339231 -567619740
REM
CELL 1.54180   50.00000   50.00000   50.00000   90.00000   90.00000   90.00000
LATT -1
SFAC C  
C      1  0.4726360000000  0.5035560000000  0.5011480000000 1.0
C      1  0.4615650000000  0.5044280000000  0.5261370000000 1.0
C      1  0.4760150000000  0.5022540000000  0.5481680000000 1.0
C      1  0.5018530000000  0.4990870000000  0.5495480000000 1.0
C      1  0.5241190000000  0.4966210000000  0.5368360000000 1.0
C      1  0.5457410000000  0.4948990000000  0.4889970000000 1.0
C      1  0.5380580000000  0.4962890000000  0.4649350000000 1.0
C      1  0.5165520000000  0.4991900000000  0.4498290000000 1.0
C      1  0.4948190000000  0.5015200000000  0.4662820000000 1.0
C      1  0.4667420000000  0.5048220000000  0.4721620000000 1.0
C      1  0.5253230000000  0.4970110000000  0.5085280000000 1.0
C      1  0.5002910000000  0.5003230000000  0.4943620000000 1.0
END
