TITL C-148581-6855-6 -0.15906526324087 125000 -601.20405779564 0 0 86 (C1) n - 1
REM
REM in /rds/project/t2_vol4/rds-t2-cs072/BORA/CARBON/from-Arr/AIRSS/Generating-Clusters/GAP-ML-2020/Higher-Symm/SD-CG/HFTN-CG
REM
REM
REM
REM
REM
REM ./C.cell (b20cbc046b6831c77cfcea5457e17084)
REM AIRSS Version 0.9.1 bugfix July 2018 build 013d7b7c2542+ Fri, 06 Jul 2018 19:26:36 +0100
REM compiler GCC version 9.3.0
REM options -cpp -mtune=generic -march=x86-64 -g -O0
REM seed 347808866 -688794538 1281428217 926515901 -1843843531 231303442 -672169357 1006617487 361904680 1337783170 1332646819 222871068 991381295 -347890826 340582149 287656993 1027556429 222513557 -1789998047 366912365 1158135289 1234573468 -1062860347 -1856298798 539823959 -121172177 -1141219979 -139383597 1081191791 -1621388352 355620830 -1150779296 -659300270
REM
CELL 1.54180   50.00000   50.00000   50.00000   90.00000   90.00000   90.00000
LATT -1
SFAC C  
C      1  0.5180860000000  0.4311340000000  0.4974830000000 1.0
C      1  0.4991280000000  0.4986930000000  0.4679460000000 1.0
C      1  0.5094360000000  0.4827330000000  0.5616330000000 1.0
C      1  0.5722210000000  0.5337550000000  0.4735600000000 1.0
C      1  0.4918740000000  0.5261360000000  0.5763160000000 1.0
C      1  0.4914690000000  0.5712730000000  0.4756840000000 1.0
C      1  0.5120420000000  0.4529770000000  0.5580790000000 1.0
C      1  0.5621980000000  0.4517990000000  0.5065800000000 1.0
C      1  0.4378850000000  0.5310700000000  0.5514940000000 1.0
C      1  0.4415550000000  0.4710140000000  0.4848910000000 1.0
C      1  0.4855120000000  0.5396320000000  0.5495590000000 1.0
C      1  0.4725240000000  0.4693680000000  0.5292940000000 1.0
C      1  0.5036580000000  0.5620400000000  0.5427650000000 1.0
C      1  0.4374150000000  0.5287740000000  0.4524940000000 1.0
C      1  0.5771690000000  0.4873610000000  0.4800710000000 1.0
C      1  0.4861220000000  0.4977090000000  0.5744680000000 1.0
C      1  0.4971810000000  0.4853910000000  0.5338310000000 1.0
C      1  0.5285240000000  0.4924560000000  0.4671110000000 1.0
C      1  0.5530230000000  0.4723100000000  0.5465170000000 1.0
C      1  0.4531880000000  0.4677050000000  0.5550880000000 1.0
C      1  0.5457030000000  0.5218880000000  0.5610940000000 1.0
C      1  0.4615480000000  0.5455110000000  0.4414740000000 1.0
C      1  0.5502000000000  0.5509320000000  0.4677330000000 1.0
C      1  0.5277970000000  0.5387500000000  0.5761660000000 1.0
C      1  0.5852540000000  0.4923430000000  0.5073470000000 1.0
C      1  0.4321540000000  0.4556410000000  0.5354380000000 1.0
C      1  0.4865510000000  0.5602510000000  0.4501870000000 1.0
C      1  0.4904110000000  0.5147650000000  0.5275190000000 1.0
C      1  0.4896910000000  0.4782600000000  0.4874660000000 1.0
C      1  0.5145860000000  0.5742700000000  0.4930040000000 1.0
C      1  0.4909790000000  0.4273690000000  0.5049100000000 1.0
C      1  0.4575840000000  0.4932220000000  0.5706200000000 1.0
C      1  0.5704360000000  0.5084180000000  0.4615050000000 1.0
C      1  0.4114950000000  0.4672840000000  0.5211140000000 1.0
C      1  0.4387040000000  0.5146910000000  0.5727110000000 1.0
C      1  0.4982170000000  0.5232000000000  0.4813530000000 1.0
C      1  0.4984690000000  0.5710090000000  0.5168920000000 1.0
C      1  0.4987690000000  0.5285800000000  0.4173440000000 1.0
C      1  0.5095040000000  0.5370580000000  0.5952640000000 1.0
C      1  0.4577220000000  0.5516910000000  0.5462900000000 1.0
C      1  0.4767730000000  0.4375200000000  0.5282340000000 1.0
C      1  0.5419640000000  0.4451530000000  0.4201010000000 1.0
C      1  0.5386370000000  0.4937210000000  0.5602070000000 1.0
C      1  0.4663770000000  0.4469250000000  0.5703890000000 1.0
C      1  0.5435250000000  0.5091390000000  0.4464060000000 1.0
C      1  0.5420050000000  0.5641380000000  0.4923810000000 1.0
C      1  0.4735050000000  0.5322970000000  0.4902860000000 1.0
C      1  0.5391850000000  0.4633910000000  0.4660250000000 1.0
C      1  0.4234450000000  0.5276610000000  0.4759480000000 1.0
C      1  0.5338920000000  0.4943010000000  0.4204310000000 1.0
C      1  0.4733300000000  0.4343560000000  0.4835070000000 1.0
C      1  0.4811120000000  0.4847420000000  0.4230680000000 1.0
C      1  0.4723470000000  0.4666480000000  0.4450840000000 1.0
C      1  0.4477840000000  0.4374610000000  0.5203770000000 1.0
C      1  0.5354100000000  0.4493640000000  0.5429390000000 1.0
C      1  0.5507590000000  0.5457470000000  0.5413840000000 1.0
C      1  0.4651380000000  0.5127380000000  0.5109710000000 1.0
C      1  0.4212590000000  0.5144780000000  0.4996300000000 1.0
C      1  0.4394280000000  0.5271530000000  0.5203500000000 1.0
C      1  0.4743730000000  0.5606540000000  0.5012480000000 1.0
C      1  0.5172730000000  0.4422350000000  0.4695230000000 1.0
C      1  0.4415060000000  0.5013730000000  0.4419590000000 1.0
C      1  0.5584900000000  0.5527560000000  0.5142330000000 1.0
C      1  0.5634910000000  0.4628020000000  0.4809110000000 1.0
C      1  0.4703180000000  0.5296090000000  0.4197690000000 1.0
C      1  0.4648730000000  0.4834170000000  0.5027540000000 1.0
C      1  0.5721490000000  0.4717670000000  0.5247220000000 1.0
C      1  0.5350130000000  0.4405500000000  0.4456270000000 1.0
C      1  0.4512500000000  0.5556020000000  0.5188370000000 1.0
C      1  0.5427900000000  0.4697600000000  0.4109010000000 1.0
C      1  0.4601890000000  0.5034820000000  0.4207430000000 1.0
C      1  0.5097080000000  0.5474880000000  0.4355820000000 1.0
C      1  0.5060420000000  0.5011110000000  0.4165230000000 1.0
C      1  0.4479490000000  0.4770510000000  0.4563640000000 1.0
C      1  0.5289990000000  0.5593710000000  0.5545050000000 1.0
C      1  0.5391270000000  0.4378010000000  0.5163470000000 1.0
C      1  0.5348330000000  0.5392410000000  0.4468150000000 1.0
C      1  0.4876970000000  0.4377460000000  0.5564300000000 1.0
C      1  0.5790180000000  0.5370870000000  0.5013510000000 1.0
C      1  0.4881570000000  0.4528610000000  0.4672050000000 1.0
C      1  0.5939720000000  0.5174530000000  0.5131600000000 1.0
C      1  0.5108210000000  0.4795820000000  0.5082470000000 1.0
C      1  0.5126820000000  0.5193990000000  0.5065990000000 1.0
C      1  0.4188300000000  0.4837300000000  0.5005890000000 1.0
C      1  0.4485330000000  0.4427400000000  0.4926030000000 1.0
C      1  0.5300580000000  0.4979360000000  0.4984360000000 1.0
END
