TITL C-146873-4977-12 57.3629659619065 125000 -589.717560244596 0 0 85 (C1) n - 1
REM
REM in /rds/project/t2_vol4/rds-t2-cs072/BORA/CARBON/from-Arr/AIRSS/Generating-Clusters/GAP-ML-2020/Higher-Symm/SD-CG/HFTN-CG
REM
REM
REM
REM
REM
REM ./C.cell (b20cbc046b6831c77cfcea5457e17084)
REM AIRSS Version 0.9.1 bugfix July 2018 build 013d7b7c2542+ Fri, 06 Jul 2018 19:26:36 +0100
REM compiler GCC version 9.3.0
REM options -cpp -mtune=generic -march=x86-64 -g -O0
REM seed -248243459 -361599759 1840050364 44637087 -2006804337 -1977288277 783228257 899183891 -1403496403 1834649293 -672021721 489456881 -585685580 67552512 -74408667 -2052595909 2036391066 -1440913188 -1443689419 1376948277 1672153186 -572610317 767539696 681791270 1444730038 -753803956 -1249964593 126958249 1734280484 649905201 1292551334 -654731927 1956330758
REM
CELL 1.54180   50.00000   50.00000   50.00000   90.00000   90.00000   90.00000
LATT -1
SFAC C  
C      1  0.4934780000000  0.5775240000000  0.5234650000000 1.0
C      1  0.4762590000000  0.5771380000000  0.5002450000000 1.0
C      1  0.4927480000000  0.5767760000000  0.4772630000000 1.0
C      1  0.5201300000000  0.5773510000000  0.4858530000000 1.0
C      1  0.5210450000000  0.5778660000000  0.5147510000000 1.0
C      1  0.4859910000000  0.5557960000000  0.4575030000000 1.0
C      1  0.5368800000000  0.5570140000000  0.4734240000000 1.0
C      1  0.5410350000000  0.5623070000000  0.5276980000000 1.0
C      1  0.4875310000000  0.5567550000000  0.5430750000000 1.0
C      1  0.4554870000000  0.5558810000000  0.5006810000000 1.0
C      1  0.4573210000000  0.4933610000000  0.5572130000000 1.0
C      1  0.4396330000000  0.4961910000000  0.4800250000000 1.0
C      1  0.5015940000000  0.4941260000000  0.4276760000000 1.0
C      1  0.5675990000000  0.4940610000000  0.4794610000000 1.0
C      1  0.5414950000000  0.4950440000000  0.5591880000000 1.0
C      1  0.4788340000000  0.4063520000000  0.4883960000000 1.0
C      1  0.5065870000000  0.4062540000000  0.4766460000000 1.0
C      1  0.5261560000000  0.4063760000000  0.4983130000000 1.0
C      1  0.5095150000000  0.4089660000000  0.5223750000000 1.0
C      1  0.4805740000000  0.4063420000000  0.5176020000000 1.0
C      1  0.5206990000000  0.4553740000000  0.5487740000000 1.0
C      1  0.4603850000000  0.4514160000000  0.5349440000000 1.0
C      1  0.4533230000000  0.4536090000000  0.4715000000000 1.0
C      1  0.5123540000000  0.4537410000000  0.4467020000000 1.0
C      1  0.5516710000000  0.4528530000000  0.4954720000000 1.0
C      1  0.4634750000000  0.4227480000000  0.5329670000000 1.0
C      1  0.4603790000000  0.4247070000000  0.4771110000000 1.0
C      1  0.5116590000000  0.4246150000000  0.4555510000000 1.0
C      1  0.5481240000000  0.4239800000000  0.4971320000000 1.0
C      1  0.5176150000000  0.4283880000000  0.5402670000000 1.0
C      1  0.4369870000000  0.4696030000000  0.4910840000000 1.0
C      1  0.4896480000000  0.4698310000000  0.4362110000000 1.0
C      1  0.5565020000000  0.4698220000000  0.4700340000000 1.0
C      1  0.5453430000000  0.4712560000000  0.5444210000000 1.0
C      1  0.4720090000000  0.4693540000000  0.5580220000000 1.0
C      1  0.5659840000000  0.5175120000000  0.4626750000000 1.0
C      1  0.5571750000000  0.5184430000000  0.5519440000000 1.0
C      1  0.4691690000000  0.5173940000000  0.5691720000000 1.0
C      1  0.4241590000000  0.5180950000000  0.4928490000000 1.0
C      1  0.4848340000000  0.5177560000000  0.4242110000000 1.0
C      1  0.4495210000000  0.4956190000000  0.4511840000000 1.0
C      1  0.5300110000000  0.4956880000000  0.4357510000000 1.0
C      1  0.5689140000000  0.4960880000000  0.5086770000000 1.0
C      1  0.5139220000000  0.4962650000000  0.5696830000000 1.0
C      1  0.4387600000000  0.4944620000000  0.5342970000000 1.0
C      1  0.4756740000000  0.5312410000000  0.4993110000000 1.0
C      1  0.4963040000000  0.5301610000000  0.4768590000000 1.0
C      1  0.5211030000000  0.5341470000000  0.4890980000000 1.0
C      1  0.5169300000000  0.5247360000000  0.5161610000000 1.0
C      1  0.4908880000000  0.5324990000000  0.5230880000000 1.0
C      1  0.4139530000000  0.5395470000000  0.4786080000000 1.0
C      1  0.4950480000000  0.5403870000000  0.4113740000000 1.0
C      1  0.5823600000000  0.5397360000000  0.4684390000000 1.0
C      1  0.5572620000000  0.5408920000000  0.5683840000000 1.0
C      1  0.4528620000000  0.5396250000000  0.5747770000000 1.0
C      1  0.4599590000000  0.5194040000000  0.4400120000000 1.0
C      1  0.5437550000000  0.5198630000000  0.4432730000000 1.0
C      1  0.5669550000000  0.5203530000000  0.5240850000000 1.0
C      1  0.4988410000000  0.5202850000000  0.5713280000000 1.0
C      1  0.4313100000000  0.5192830000000  0.5215120000000 1.0
C      1  0.4389710000000  0.4693350000000  0.5203890000000 1.0
C      1  0.4625160000000  0.4704490000000  0.4482500000000 1.0
C      1  0.5369400000000  0.4707040000000  0.4481030000000 1.0
C      1  0.5599100000000  0.4711260000000  0.5195080000000 1.0
C      1  0.5005310000000  0.4712950000000  0.5633870000000 1.0
C      1  0.4814350000000  0.4565030000000  0.5146350000000 1.0
C      1  0.4786040000000  0.4457050000000  0.4869940000000 1.0
C      1  0.5055100000000  0.4451720000000  0.4752840000000 1.0
C      1  0.5224830000000  0.4564250000000  0.4956620000000 1.0
C      1  0.5087180000000  0.4479950000000  0.5203590000000 1.0
C      1  0.4437830000000  0.5445940000000  0.5264260000000 1.0
C      1  0.4580570000000  0.5446510000000  0.4539150000000 1.0
C      1  0.5312130000000  0.5454170000000  0.4460430000000 1.0
C      1  0.5609730000000  0.5464560000000  0.5132790000000 1.0
C      1  0.5080750000000  0.5458750000000  0.5616590000000 1.0
C      1  0.5634060000000  0.5508970000000  0.4848740000000 1.0
C      1  0.5354720000000  0.5513490000000  0.5547440000000 1.0
C      1  0.4590930000000  0.5495910000000  0.5498830000000 1.0
C      1  0.4399490000000  0.5497600000000  0.4755310000000 1.0
C      1  0.5051540000000  0.5506620000000  0.4350040000000 1.0
C      1  0.5153490000000  0.4863790000000  0.4900170000000 1.0
C      1  0.5105110000000  0.4973090000000  0.5154930000000 1.0
C      1  0.4837130000000  0.4868540000000  0.5143030000000 1.0
C      1  0.4701400000000  0.5025930000000  0.4938950000000 1.0
C      1  0.4937730000000  0.5006410000000  0.4745690000000 1.0
END
