TITL C-149064-9439-8 -143.664570992713 125000 -367.495860596443 0 0 52 (C1) n - 1
REM
REM in /rds/project/t2_vol4/rds-t2-cs072/BORA/CARBON/from-Arr/AIRSS/Generating-Clusters/GAP-ML-2020/Higher-Symm/SD-CG/HFTN-CG
REM
REM
REM
REM
REM
REM ./C.cell (b20cbc046b6831c77cfcea5457e17084)
REM AIRSS Version 0.9.1 bugfix July 2018 build 013d7b7c2542+ Fri, 06 Jul 2018 19:26:36 +0100
REM compiler GCC version 9.3.0
REM options -cpp -mtune=generic -march=x86-64 -g -O0
REM seed 1072829691 -312129889 -598569014 -1947082966 920400781 -1247225341 966282195 1665603995 -793057658 -919317190 -808235002 278225488 -1219495315 1552212352 1484832897 1025341441 511265307 -1127860990 2134777102 1785515134 -1257492225 -1371289557 -1135018614 -611272278 905906753 298031660 301902356 805942925 -1391411494 393802386 -2007018791 -1164455790 -1811575036
REM
CELL 1.54180   50.00000   50.00000   50.00000   90.00000   90.00000   90.00000
LATT -1
SFAC C  
C      1  0.5434460000000  0.5546220000000  0.5162040000000 1.0
C      1  0.5153990000000  0.5353810000000  0.5522430000000 1.0
C      1  0.5544330000000  0.5100960000000  0.5329840000000 1.0
C      1  0.5207810000000  0.4274710000000  0.4971440000000 1.0
C      1  0.4921500000000  0.4276590000000  0.5010800000000 1.0
C      1  0.4662610000000  0.5652860000000  0.4861780000000 1.0
C      1  0.5152060000000  0.4666650000000  0.4368980000000 1.0
C      1  0.4810440000000  0.4685310000000  0.5573850000000 1.0
C      1  0.4857790000000  0.5347830000000  0.4501710000000 1.0
C      1  0.5532790000000  0.4823150000000  0.4650940000000 1.0
C      1  0.4455100000000  0.4889080000000  0.5348740000000 1.0
C      1  0.4451090000000  0.5114930000000  0.4710730000000 1.0
C      1  0.5318270000000  0.5127250000000  0.5520800000000 1.0
C      1  0.5035700000000  0.5762080000000  0.5300660000000 1.0
C      1  0.5597160000000  0.5303650000000  0.5148500000000 1.0
C      1  0.5346080000000  0.4853540000000  0.4419400000000 1.0
C      1  0.4658750000000  0.5151810000000  0.4497850000000 1.0
C      1  0.4649340000000  0.4907460000000  0.5580430000000 1.0
C      1  0.5158670000000  0.4421530000000  0.4527380000000 1.0
C      1  0.4879150000000  0.5571430000000  0.4698480000000 1.0
C      1  0.4884540000000  0.4333330000000  0.5285290000000 1.0
C      1  0.5508070000000  0.4612350000000  0.4832630000000 1.0
C      1  0.4361000000000  0.5328480000000  0.4864390000000 1.0
C      1  0.4521080000000  0.4660170000000  0.5193980000000 1.0
C      1  0.4870070000000  0.4430640000000  0.4566030000000 1.0
C      1  0.4675210000000  0.4860900000000  0.4475550000000 1.0
C      1  0.4559990000000  0.4623190000000  0.4907120000000 1.0
C      1  0.4804050000000  0.5612570000000  0.5352330000000 1.0
C      1  0.5173130000000  0.5546490000000  0.4694240000000 1.0
C      1  0.5136870000000  0.4403580000000  0.5408060000000 1.0
C      1  0.4661700000000  0.5190990000000  0.5546580000000 1.0
C      1  0.5348020000000  0.5142920000000  0.4455100000000 1.0
C      1  0.5297380000000  0.4837360000000  0.5532730000000 1.0
C      1  0.4428430000000  0.5372410000000  0.5147720000000 1.0
C      1  0.5580860000000  0.5308180000000  0.4854920000000 1.0
C      1  0.5502540000000  0.4606600000000  0.5131930000000 1.0
C      1  0.4855130000000  0.4671610000000  0.4400740000000 1.0
C      1  0.4747550000000  0.4410410000000  0.4818210000000 1.0
C      1  0.4506650000000  0.4828130000000  0.4715860000000 1.0
C      1  0.4864530000000  0.5380830000000  0.5525390000000 1.0
C      1  0.5098630000000  0.4643100000000  0.5562780000000 1.0
C      1  0.5152120000000  0.5337310000000  0.4485450000000 1.0
C      1  0.4609700000000  0.5590040000000  0.5153500000000 1.0
C      1  0.5332510000000  0.4383890000000  0.5205750000000 1.0
C      1  0.5393060000000  0.5540940000000  0.4870290000000 1.0
C      1  0.4450800000000  0.5174520000000  0.5338880000000 1.0
C      1  0.5506020000000  0.4812240000000  0.5322960000000 1.0
C      1  0.5555640000000  0.5114300000000  0.4665070000000 1.0
C      1  0.5330350000000  0.4392310000000  0.4744000000000 1.0
C      1  0.4691560000000  0.4513260000000  0.5372860000000 1.0
C      1  0.4414100000000  0.5579930000000  0.4737780000000 1.0
C      1  0.5247210000000  0.5585960000000  0.5360940000000 1.0
END
