TITL C-140560-926-2 11.5048995824844 125000 -897.637097285719 0 0 122 (C1) n - 1
REM
REM in /rds/project/t2_vol4/rds-t2-cs072/BORA/CARBON/from-Arr/AIRSS/Generating-Clusters/GAP-ML-2020/Higher-Symm/SD-CG/HFTN-CG
REM
REM
REM
REM
REM
REM ./C.cell (b20cbc046b6831c77cfcea5457e17084)
REM AIRSS Version 0.9.1 bugfix July 2018 build 013d7b7c2542+ Fri, 06 Jul 2018 19:26:36 +0100
REM compiler GCC version 9.3.0
REM options -cpp -mtune=generic -march=x86-64 -g -O0
REM seed 915676037 -1617238531 383916190 -1721826774 910840321 1352551856 740789293 -1628990838 1973686621 -1795277608 649663168 1736434609 976407947 -1066847413 57869497 -167483565 -785531922 1518502583 2016621050 -1683632586 1155805951 -288281946 1789358178 964387503 1955425119 -1320114456 -1135155342 -842926123 -2039303374 1221971112 256373865 -1902557671 -877251104
REM
CELL 1.54180   50.00000   50.00000   50.00000   90.00000   90.00000   90.00000
LATT -1
SFAC C  
C      1  0.5269470000000  0.4625350000000  0.4179510000000 1.0
C      1  0.4131090000000  0.4617410000000  0.5178180000000 1.0
C      1  0.5584300000000  0.4609590000000  0.5649140000000 1.0
C      1  0.5273570000000  0.5380220000000  0.5828100000000 1.0
C      1  0.4153410000000  0.5390770000000  0.4802780000000 1.0
C      1  0.5578910000000  0.5410530000000  0.4341470000000 1.0
C      1  0.4732410000000  0.5389470000000  0.5794500000000 1.0
C      1  0.5840760000000  0.5404570000000  0.4812170000000 1.0
C      1  0.4423630000000  0.5398750000000  0.4341820000000 1.0
C      1  0.4730460000000  0.4614320000000  0.4189240000000 1.0
C      1  0.5841960000000  0.4616440000000  0.5172560000000 1.0
C      1  0.4418140000000  0.4602780000000  0.5635640000000 1.0
C      1  0.5697800000000  0.4461900000000  0.4755240000000 1.0
C      1  0.4444380000000  0.4470930000000  0.4528430000000 1.0
C      1  0.4854270000000  0.4434490000000  0.5706240000000 1.0
C      1  0.5682410000000  0.5553700000000  0.5223580000000 1.0
C      1  0.4453190000000  0.5547620000000  0.5450930000000 1.0
C      1  0.4856360000000  0.5564360000000  0.4270320000000 1.0
C      1  0.4316670000000  0.5549850000000  0.5203540000000 1.0
C      1  0.5555670000000  0.5531270000000  0.5480930000000 1.0
C      1  0.5141390000000  0.5569270000000  0.4268380000000 1.0
C      1  0.4294480000000  0.4464530000000  0.4766570000000 1.0
C      1  0.5549420000000  0.4477060000000  0.4517210000000 1.0
C      1  0.5143810000000  0.4446930000000  0.5718290000000 1.0
C      1  0.4289520000000  0.4392730000000  0.5236820000000 1.0
C      1  0.5549180000000  0.4394580000000  0.5473730000000 1.0
C      1  0.5136270000000  0.4409270000000  0.4301780000000 1.0
C      1  0.4309100000000  0.5612810000000  0.4737040000000 1.0
C      1  0.5542690000000  0.5638320000000  0.4503200000000 1.0
C      1  0.5141420000000  0.5592840000000  0.5703970000000 1.0
C      1  0.5676980000000  0.5625090000000  0.4748010000000 1.0
C      1  0.4452300000000  0.5629020000000  0.4499220000000 1.0
C      1  0.4862210000000  0.5611210000000  0.5685960000000 1.0
C      1  0.5692010000000  0.4391300000000  0.5234410000000 1.0
C      1  0.4440990000000  0.4378930000000  0.5468800000000 1.0
C      1  0.4857370000000  0.4393840000000  0.4310690000000 1.0
C      1  0.4668680000000  0.5350980000000  0.4203610000000 1.0
C      1  0.4485240000000  0.5343960000000  0.5659100000000 1.0
C      1  0.5844410000000  0.5356250000000  0.5093120000000 1.0
C      1  0.4662840000000  0.4644280000000  0.5774720000000 1.0
C      1  0.4482600000000  0.4668190000000  0.4321850000000 1.0
C      1  0.5850330000000  0.4664270000000  0.4888330000000 1.0
C      1  0.5342390000000  0.4649460000000  0.5803820000000 1.0
C      1  0.5521760000000  0.4677000000000  0.4307920000000 1.0
C      1  0.4136200000000  0.4665620000000  0.4894050000000 1.0
C      1  0.5333360000000  0.5359620000000  0.4203350000000 1.0
C      1  0.5531030000000  0.5336900000000  0.5699970000000 1.0
C      1  0.4148880000000  0.5348070000000  0.5086060000000 1.0
C      1  0.4436810000000  0.5058190000000  0.5695490000000 1.0
C      1  0.5892830000000  0.5071160000000  0.5124380000000 1.0
C      1  0.4668800000000  0.5067110000000  0.4154900000000 1.0
C      1  0.4435170000000  0.4948790000000  0.4282370000000 1.0
C      1  0.5895760000000  0.4950000000000  0.4860680000000 1.0
C      1  0.4666130000000  0.4933390000000  0.5824910000000 1.0
C      1  0.5569360000000  0.4959890000000  0.4277900000000 1.0
C      1  0.4096900000000  0.4946040000000  0.4860170000000 1.0
C      1  0.5343440000000  0.4932270000000  0.5860890000000 1.0
C      1  0.5576750000000  0.5054480000000  0.5729370000000 1.0
C      1  0.4093570000000  0.5068390000000  0.5123490000000 1.0
C      1  0.5331300000000  0.5076850000000  0.4157620000000 1.0
C      1  0.4289060000000  0.5157050000000  0.4414370000000 1.0
C      1  0.4858120000000  0.5142400000000  0.5881190000000 1.0
C      1  0.5856930000000  0.5160690000000  0.4662270000000 1.0
C      1  0.4283770000000  0.4851150000000  0.5566310000000 1.0
C      1  0.4858720000000  0.4858520000000  0.4108970000000 1.0
C      1  0.5845670000000  0.4861260000000  0.5321150000000 1.0
C      1  0.5715600000000  0.4852350000000  0.5576270000000 1.0
C      1  0.5140430000000  0.4867380000000  0.4108920000000 1.0
C      1  0.4130660000000  0.4860230000000  0.5325450000000 1.0
C      1  0.5717930000000  0.5168440000000  0.4412210000000 1.0
C      1  0.5143230000000  0.5138980000000  0.5903410000000 1.0
C      1  0.4145790000000  0.5148620000000  0.4659400000000 1.0
C      1  0.4705710000000  0.4334640000000  0.4557360000000 1.0
C      1  0.4718550000000  0.4280600000000  0.5449560000000 1.0
C      1  0.5565870000000  0.4285980000000  0.4976740000000 1.0
C      1  0.4715750000000  0.5687890000000  0.5428520000000 1.0
C      1  0.4719460000000  0.5733010000000  0.4469430000000 1.0
C      1  0.5519100000000  0.5693890000000  0.4979300000000 1.0
C      1  0.5299880000000  0.5654100000000  0.5479790000000 1.0
C      1  0.5275580000000  0.5739450000000  0.4465710000000 1.0
C      1  0.4435830000000  0.5690360000000  0.4974370000000 1.0
C      1  0.5289750000000  0.4353650000000  0.4529490000000 1.0
C      1  0.5276090000000  0.4315360000000  0.5498440000000 1.0
C      1  0.4426720000000  0.4323640000000  0.4993460000000 1.0
C      1  0.5156530000000  0.5114260000000  0.5282900000000 1.0
C      1  0.5289680000000  0.5131430000000  0.4816920000000 1.0
C      1  0.4697500000000  0.5063770000000  0.5082960000000 1.0
C      1  0.5207450000000  0.4868330000000  0.4789780000000 1.0
C      1  0.5177910000000  0.4831320000000  0.5264900000000 1.0
C      1  0.4698830000000  0.4799810000000  0.5155770000000 1.0
C      1  0.4935620000000  0.4836960000000  0.4711050000000 1.0
C      1  0.4922230000000  0.4732430000000  0.5320720000000 1.0
C      1  0.5285660000000  0.4715760000000  0.5030580000000 1.0
C      1  0.4892480000000  0.5213200000000  0.5261880000000 1.0
C      1  0.4752180000000  0.5067200000000  0.4798810000000 1.0
C      1  0.5335290000000  0.5220170000000  0.5095430000000 1.0
C      1  0.5129210000000  0.5359120000000  0.4776680000000 1.0
C      1  0.4758310000000  0.5533660000000  0.4977500000000 1.0
C      1  0.5145080000000  0.5658930000000  0.5235390000000 1.0
C      1  0.5140210000000  0.4286060000000  0.5245550000000 1.0
C      1  0.4717520000000  0.4535780000000  0.5012730000000 1.0
C      1  0.5127520000000  0.4354990000000  0.4769140000000 1.0
C      1  0.4881730000000  0.4437490000000  0.5259180000000 1.0
C      1  0.5288480000000  0.4417430000000  0.5010600000000 1.0
C      1  0.4873010000000  0.4544330000000  0.4763380000000 1.0
C      1  0.4849150000000  0.5334250000000  0.4782520000000 1.0
C      1  0.5282790000000  0.5509620000000  0.5018290000000 1.0
C      1  0.4873340000000  0.5504160000000  0.5241190000000 1.0
C      1  0.4594150000000  0.4089450000000  0.4984470000000 1.0
C      1  0.5032200000000  0.4020500000000  0.5161210000000 1.0
C      1  0.5021030000000  0.4081760000000  0.4790640000000 1.0
C      1  0.4697190000000  0.5825440000000  0.4951590000000 1.0
C      1  0.5141170000000  0.5883990000000  0.4673440000000 1.0
C      1  0.5142490000000  0.5948990000000  0.5147120000000 1.0
C      1  0.5297810000000  0.5917240000000  0.4913350000000 1.0
C      1  0.4848010000000  0.5871720000000  0.4682580000000 1.0
C      1  0.4757150000000  0.5934510000000  0.5224690000000 1.0
C      1  0.5464510000000  0.4014120000000  0.4943900000000 1.0
C      1  0.4753220000000  0.4048020000000  0.5225020000000 1.0
C      1  0.4745730000000  0.4099090000000  0.4741550000000 1.0
C      1  0.5200800000000  0.3929510000000  0.4949370000000 1.0
C      1  0.4949540000000  0.6131360000000  0.5232410000000 1.0
END
