TITL C-140556-131-3 -10.0391733530501 125000 -857.06270778311 0 0 124 (C3) n - 1
REM
REM in /rds/project/t2_vol4/rds-t2-cs072/BORA/CARBON/from-Arr/AIRSS/Generating-Clusters/GAP-ML-2020/Higher-Symm/SD-CG/HFTN-CG
REM
REM
REM
REM
REM
REM ./C.cell (b20cbc046b6831c77cfcea5457e17084)
REM AIRSS Version 0.9.1 bugfix July 2018 build 013d7b7c2542+ Fri, 06 Jul 2018 19:26:36 +0100
REM compiler GCC version 9.3.0
REM options -cpp -mtune=generic -march=x86-64 -g -O0
REM seed 1756084792 -391882501 1707028284 -1841236865 692388306 -1969683969 -1934518568 -351593999 -731761749 1796703306 -1188787208 338091659 40722958 -1835222261 1981704080 -273664378 1474937400 -1285223659 394502309 884442021 -7335819 1159113823 -496877991 -442446584 1355246398 81161964 -1619206621 1560501579 -1848740211 -1943079502 1540167599 286874123 -1215597060
REM
CELL 1.54180   50.00000   50.00000   50.00000   90.00000   90.00000   90.00000
LATT -1
SFAC C  
C      1  0.4254610000000  0.5522700000000  0.5442750000000 1.0
C      1  0.5751920000000  0.5510960000000  0.5436470000000 1.0
C      1  0.4997920000000  0.5528260000000  0.4142910000000 1.0
C      1  0.4741150000000  0.5203120000000  0.4794330000000 1.0
C      1  0.4945770000000  0.5196780000000  0.5332950000000 1.0
C      1  0.5309930000000  0.5197830000000  0.4886400000000 1.0
C      1  0.5292090000000  0.4369850000000  0.4496370000000 1.0
C      1  0.4408790000000  0.4372500000000  0.4988200000000 1.0
C      1  0.5276320000000  0.4361110000000  0.5507220000000 1.0
C      1  0.5606030000000  0.5176670000000  0.5737320000000 1.0
C      1  0.5330000000000  0.5193100000000  0.4112160000000 1.0
C      1  0.4060560000000  0.5193870000000  0.5163890000000 1.0
C      1  0.4803770000000  0.4125390000000  0.4614920000000 1.0
C      1  0.4754540000000  0.4119360000000  0.5346880000000 1.0
C      1  0.5413050000000  0.4117010000000  0.5023480000000 1.0
C      1  0.5271430000000  0.3894140000000  0.5026850000000 1.0
C      1  0.4876540000000  0.3899840000000  0.4731410000000 1.0
C      1  0.4818100000000  0.3896000000000  0.5221130000000 1.0
C      1  0.4378820000000  0.4997380000000  0.4376350000000 1.0
C      1  0.4764040000000  0.4981400000000  0.5851500000000 1.0
C      1  0.5848980000000  0.4982260000000  0.4780230000000 1.0
C      1  0.4910340000000  0.5820040000000  0.4489950000000 1.0
C      1  0.4600180000000  0.5814930000000  0.5350940000000 1.0
C      1  0.5500880000000  0.5809250000000  0.5189000000000 1.0
C      1  0.4545140000000  0.5142060000000  0.5762090000000 1.0
C      1  0.5881650000000  0.5138070000000  0.5017680000000 1.0
C      1  0.4568790000000  0.5155300000000  0.4232480000000 1.0
C      1  0.4667780000000  0.4711220000000  0.5786080000000 1.0
C      1  0.5839300000000  0.4709840000000  0.4890880000000 1.0
C      1  0.4478340000000  0.4725540000000  0.4323980000000 1.0
C      1  0.4228650000000  0.5110360000000  0.4603180000000 1.0
C      1  0.5036030000000  0.5092880000000  0.5870400000000 1.0
C      1  0.5729850000000  0.5099110000000  0.4537500000000 1.0
C      1  0.5162980000000  0.4489530000000  0.4259840000000 1.0
C      1  0.4268990000000  0.4488140000000  0.5220620000000 1.0
C      1  0.5548000000000  0.4475490000000  0.5514390000000 1.0
C      1  0.5194130000000  0.5777640000000  0.4487490000000 1.0
C      1  0.4456000000000  0.5778030000000  0.5105590000000 1.0
C      1  0.5360320000000  0.5768010000000  0.5435740000000 1.0
C      1  0.5748370000000  0.5385290000000  0.4992770000000 1.0
C      1  0.4614880000000  0.5399730000000  0.4365280000000 1.0
C      1  0.4638130000000  0.5388180000000  0.5660680000000 1.0
C      1  0.5564940000000  0.4439890000000  0.4558090000000 1.0
C      1  0.4326130000000  0.4448200000000  0.4722500000000 1.0
C      1  0.5087850000000  0.4433510000000  0.5713110000000 1.0
C      1  0.5235970000000  0.4761530000000  0.4719410000000 1.0
C      1  0.4631660000000  0.4764420000000  0.4933130000000 1.0
C      1  0.5118860000000  0.4756920000000  0.5349600000000 1.0
C      1  0.4781410000000  0.5715250000000  0.4259280000000 1.0
C      1  0.4464420000000  0.5706200000000  0.5575780000000 1.0
C      1  0.5763030000000  0.5699330000000  0.5191980000000 1.0
C      1  0.5626390000000  0.4322680000000  0.5040040000000 1.0
C      1  0.4712320000000  0.4335270000000  0.4426030000000 1.0
C      1  0.4637550000000  0.4326220000000  0.5524670000000 1.0
C      1  0.5728430000000  0.5583750000000  0.4666770000000 1.0
C      1  0.4343350000000  0.5595690000000  0.4549470000000 1.0
C      1  0.4934220000000  0.5579990000000  0.5807630000000 1.0
C      1  0.5305000000000  0.4929720000000  0.4944690000000 1.0
C      1  0.4792970000000  0.4935340000000  0.4764110000000 1.0
C      1  0.4892560000000  0.4929870000000  0.5297830000000 1.0
C      1  0.4797370000000  0.5021530000000  0.4131650000000 1.0
C      1  0.4342980000000  0.5012120000000  0.5611900000000 1.0
C      1  0.5852090000000  0.5003270000000  0.5265200000000 1.0
C      1  0.4398330000000  0.4484270000000  0.5479160000000 1.0
C      1  0.5707230000000  0.4475770000000  0.5273080000000 1.0
C      1  0.4874390000000  0.4491370000000  0.4242600000000 1.0
C      1  0.5065970000000  0.5209900000000  0.4490720000000 1.0
C      1  0.4520470000000  0.5207940000000  0.5203600000000 1.0
C      1  0.5410570000000  0.5199910000000  0.5319530000000 1.0
C      1  0.4830220000000  0.5368740000000  0.4585830000000 1.0
C      1  0.4721370000000  0.5362780000000  0.5363360000000 1.0
C      1  0.5449160000000  0.5359630000000  0.5068810000000 1.0
C      1  0.4806070000000  0.4462910000000  0.5715490000000 1.0
C      1  0.5707980000000  0.4463820000000  0.4801470000000 1.0
C      1  0.4465510000000  0.4476450000000  0.4477460000000 1.0
C      1  0.4553350000000  0.5349790000000  0.4940420000000 1.0
C      1  0.5166800000000  0.5340700000000  0.5425450000000 1.0
C      1  0.5280160000000  0.5346600000000  0.4651660000000 1.0
C      1  0.4823450000000  0.5636640000000  0.5255590000000 1.0
C      1  0.5305940000000  0.5634740000000  0.5039770000000 1.0
C      1  0.4877820000000  0.5640830000000  0.4729850000000 1.0
C      1  0.5230050000000  0.4892690000000  0.5845230000000 1.0
C      1  0.5610210000000  0.4902570000000  0.4378090000000 1.0
C      1  0.4149560000000  0.4910530000000  0.4782530000000 1.0
C      1  0.5281770000000  0.4699060000000  0.4132780000000 1.0
C      1  0.4100440000000  0.4699120000000  0.5185470000000 1.0
C      1  0.5602700000000  0.4682930000000  0.5682120000000 1.0
C      1  0.5132260000000  0.5368010000000  0.5772040000000 1.0
C      1  0.5597710000000  0.5375430000000  0.4508850000000 1.0
C      1  0.4271050000000  0.5383870000000  0.4737430000000 1.0
C      1  0.4857760000000  0.4354940000000  0.5208170000000 1.0
C      1  0.5242320000000  0.4353670000000  0.5008160000000 1.0
C      1  0.4876840000000  0.4358590000000  0.4775140000000 1.0
C      1  0.5495260000000  0.4709300000000  0.4544090000000 1.0
C      1  0.4349980000000  0.4716120000000  0.4795210000000 1.0
C      1  0.5140030000000  0.4702290000000  0.5661470000000 1.0
C      1  0.5126730000000  0.4455470000000  0.5255710000000 1.0
C      1  0.5149450000000  0.4459700000000  0.4753510000000 1.0
C      1  0.4703170000000  0.4461180000000  0.4984960000000 1.0
C      1  0.4416950000000  0.4724390000000  0.5642800000000 1.0
C      1  0.5840650000000  0.4717240000000  0.5179960000000 1.0
C      1  0.4728050000000  0.4734790000000  0.4178450000000 1.0
C      1  0.5326220000000  0.4917490000000  0.5227560000000 1.0
C      1  0.5027290000000  0.4925320000000  0.4604090000000 1.0
C      1  0.4636790000000  0.4923390000000  0.5174730000000 1.0
C      1  0.5439040000000  0.5406640000000  0.5780650000000 1.0
C      1  0.5451970000000  0.5420070000000  0.4239690000000 1.0
C      1  0.4110990000000  0.5423970000000  0.4999070000000 1.0
C      1  0.4228120000000  0.5619960000000  0.5171060000000 1.0
C      1  0.5530270000000  0.5605960000000  0.5597170000000 1.0
C      1  0.5248300000000  0.5619950000000  0.4256400000000 1.0
C      1  0.4690040000000  0.5631630000000  0.4972660000000 1.0
C      1  0.5127570000000  0.5625340000000  0.5296620000000 1.0
C      1  0.5189390000000  0.5629600000000  0.4755710000000 1.0
C      1  0.5512250000000  0.4915650000000  0.5799420000000 1.0
C      1  0.5429560000000  0.4930720000000  0.4157110000000 1.0
C      1  0.4048600000000  0.4933760000000  0.5049970000000 1.0
C      1  0.5838750000000  0.5643480000000  0.4907070000000 1.0
C      1  0.4496570000000  0.5659070000000  0.4335020000000 1.0
C      1  0.4672170000000  0.5644970000000  0.5783430000000 1.0
C      1  0.5033510000000  0.5223790000000  0.4157200000000 1.0
C      1  0.4247910000000  0.5219090000000  0.5398710000000 1.0
C      1  0.5715850000000  0.5207000000000  0.5458220000000 1.0
C      1  0.4988400000000  0.3860110000000  0.4992810000000 1.0
END
