TITL C-140559-641-3 -0.0847835284824854 125000 -493.316426132567 0 0 73 (C1) n - 1
REM
REM in /rds/project/t2_vol4/rds-t2-cs072/BORA/CARBON/from-Arr/AIRSS/Generating-Clusters/GAP-ML-2020/Higher-Symm/SD-CG/HFTN-CG
REM
REM
REM
REM
REM
REM ./C.cell (b20cbc046b6831c77cfcea5457e17084)
REM AIRSS Version 0.9.1 bugfix July 2018 build 013d7b7c2542+ Fri, 06 Jul 2018 19:26:36 +0100
REM compiler GCC version 9.3.0
REM options -cpp -mtune=generic -march=x86-64 -g -O0
REM seed 1597073245 993778268 -1581087505 521159260 94803372 332748103 -800710762 2139705004 911522073 -607783628 -830061013 1295533806 799194057 -1854504856 -1571356921 -2049052396 20051297 -5067284 110202147 -1851104496 -2121059554 1201357069 -560150336 -756438448 -501382932 1462895775 1907802240 1313499921 -952923748 278007332 1251272083 -1037763982 1462945733
REM
CELL 1.54180   50.00000   50.00000   50.00000   90.00000   90.00000   90.00000
LATT -1
SFAC C  
C      1  0.5642490000000  0.4905940000000  0.4694080000000 1.0
C      1  0.4414830000000  0.4614330000000  0.5012940000000 1.0
C      1  0.5494370000000  0.5090690000000  0.5452270000000 1.0
C      1  0.4452940000000  0.5398200000000  0.4825150000000 1.0
C      1  0.5351210000000  0.4399140000000  0.5505660000000 1.0
C      1  0.4482970000000  0.5448120000000  0.5529880000000 1.0
C      1  0.5498290000000  0.5615000000000  0.4627340000000 1.0
C      1  0.4680300000000  0.4570610000000  0.4350450000000 1.0
C      1  0.5613570000000  0.4703430000000  0.4901320000000 1.0
C      1  0.4364610000000  0.4812850000000  0.5211070000000 1.0
C      1  0.5553090000000  0.5295560000000  0.5262990000000 1.0
C      1  0.4453660000000  0.5201770000000  0.4620650000000 1.0
C      1  0.4549170000000  0.5069870000000  0.5250300000000 1.0
C      1  0.5409530000000  0.5306890000000  0.4981090000000 1.0
C      1  0.4623610000000  0.4940060000000  0.4643830000000 1.0
C      1  0.5376250000000  0.4685270000000  0.5125670000000 1.0
C      1  0.4814680000000  0.4932170000000  0.5266000000000 1.0
C      1  0.5122390000000  0.5205290000000  0.5048620000000 1.0
C      1  0.4863540000000  0.5077180000000  0.4731140000000 1.0
C      1  0.5112000000000  0.4697020000000  0.4984340000000 1.0
C      1  0.5065920000000  0.5081850000000  0.5307990000000 1.0
C      1  0.4874680000000  0.5314690000000  0.4904650000000 1.0
C      1  0.5241830000000  0.4969370000000  0.4644040000000 1.0
C      1  0.4846840000000  0.4695670000000  0.5094600000000 1.0
C      1  0.5568700000000  0.4810720000000  0.4416320000000 1.0
C      1  0.4525510000000  0.4361930000000  0.5117090000000 1.0
C      1  0.5336810000000  0.5182410000000  0.5679930000000 1.0
C      1  0.4594580000000  0.5641240000000  0.4749960000000 1.0
C      1  0.5232910000000  0.4643990000000  0.5567740000000 1.0
C      1  0.4618550000000  0.5535530000000  0.5300920000000 1.0
C      1  0.5445340000000  0.5374200000000  0.4502410000000 1.0
C      1  0.4734230000000  0.4489570000000  0.4611370000000 1.0
C      1  0.4978130000000  0.4347760000000  0.4665740000000 1.0
C      1  0.4965080000000  0.4669800000000  0.5671590000000 1.0
C      1  0.4874060000000  0.5671830000000  0.5311130000000 1.0
C      1  0.5202730000000  0.5342700000000  0.4336320000000 1.0
C      1  0.5668560000000  0.4452570000000  0.4808320000000 1.0
C      1  0.4284440000000  0.4711490000000  0.5450290000000 1.0
C      1  0.5580120000000  0.5539890000000  0.5385240000000 1.0
C      1  0.4478650000000  0.5301270000000  0.4369020000000 1.0
C      1  0.4696970000000  0.4840970000000  0.4351910000000 1.0
C      1  0.5372650000000  0.4391280000000  0.5233790000000 1.0
C      1  0.4506830000000  0.5176650000000  0.5538850000000 1.0
C      1  0.5415980000000  0.5602080000000  0.4888250000000 1.0
C      1  0.5276260000000  0.4238740000000  0.5006990000000 1.0
C      1  0.4607020000000  0.4967550000000  0.5714070000000 1.0
C      1  0.5265940000000  0.5761400000000  0.5078210000000 1.0
C      1  0.4863350000000  0.5039040000000  0.4219730000000 1.0
C      1  0.4744900000000  0.5285840000000  0.4298270000000 1.0
C      1  0.5420000000000  0.4340240000000  0.4778900000000 1.0
C      1  0.4513840000000  0.4719440000000  0.5601790000000 1.0
C      1  0.5336520000000  0.5664390000000  0.5342180000000 1.0
C      1  0.4732770000000  0.4541480000000  0.5556170000000 1.0
C      1  0.5094750000000  0.5572580000000  0.5467090000000 1.0
C      1  0.4946430000000  0.5451010000000  0.4413720000000 1.0
C      1  0.5239950000000  0.4434660000000  0.4578830000000 1.0
C      1  0.4763940000000  0.4455150000000  0.5273950000000 1.0
C      1  0.5085820000000  0.5285690000000  0.5540180000000 1.0
C      1  0.4882030000000  0.5537420000000  0.4695180000000 1.0
C      1  0.5285750000000  0.4712490000000  0.4477360000000 1.0
C      1  0.4630040000000  0.4683780000000  0.4825710000000 1.0
C      1  0.5316450000000  0.4870680000000  0.5364940000000 1.0
C      1  0.4600250000000  0.5328140000000  0.5076130000000 1.0
C      1  0.5478870000000  0.5154640000000  0.4709230000000 1.0
C      1  0.5364910000000  0.4879870000000  0.4238220000000 1.0
C      1  0.4763820000000  0.4224820000000  0.5086640000000 1.0
C      1  0.5091990000000  0.5120900000000  0.5791040000000 1.0
C      1  0.4810820000000  0.5784750000000  0.4844160000000 1.0
C      1  0.4972350000000  0.5799870000000  0.5076760000000 1.0
C      1  0.5160470000000  0.5084460000000  0.4211820000000 1.0
C      1  0.4995100000000  0.4219690000000  0.4921640000000 1.0
C      1  0.4891660000000  0.4923050000000  0.5781850000000 1.0
C      1  0.5084810000000  0.4951630000000  0.4862760000000 1.0
END
