TITL C-146863-8861-5 -57.7649398901986 125000 -729.071248275431 0 0 102 (C2) n - 1
REM
REM in /rds/project/t2_vol4/rds-t2-cs072/BORA/CARBON/from-Arr/AIRSS/Generating-Clusters/GAP-ML-2020/Higher-Symm/SD-CG/HFTN-CG
REM
REM
REM
REM
REM
REM ./C.cell (b20cbc046b6831c77cfcea5457e17084)
REM AIRSS Version 0.9.1 bugfix July 2018 build 013d7b7c2542+ Fri, 06 Jul 2018 19:26:36 +0100
REM compiler GCC version 9.3.0
REM options -cpp -mtune=generic -march=x86-64 -g -O0
REM seed 1845845726 2128064733 -525383306 2037117633 1989927317 -1622175988 935466666 -413038493 1211687236 1441424157 -237656970 -1412673957 -379560697 1473643430 1548200778 -1144949835 335162292 577717276 -291171980 -836754104 -1547902018 1465852710 1468423166 705528633 1396378845 -276986699 818577506 1213950665 -1666960701 -2087940542 -161486784 983568983 1815911044
REM
CELL 1.54180   50.00000   50.00000   50.00000   90.00000   90.00000   90.00000
LATT -1
SFAC C  
C      1  0.4211330000000  0.4784380000000  0.4896630000000 1.0
C      1  0.5789750000000  0.4762730000000  0.5043070000000 1.0
C      1  0.4210910000000  0.4832190000000  0.5176150000000 1.0
C      1  0.5789120000000  0.4965970000000  0.5241320000000 1.0
C      1  0.4210270000000  0.5113530000000  0.5214320000000 1.0
C      1  0.5788670000000  0.5215700000000  0.5106980000000 1.0
C      1  0.4208320000000  0.5238080000000  0.4959570000000 1.0
C      1  0.5791590000000  0.5166740000000  0.4827690000000 1.0
C      1  0.4208390000000  0.5034630000000  0.4763330000000 1.0
C      1  0.5791660000000  0.4886860000000  0.4788120000000 1.0
C      1  0.5531130000000  0.4663460000000  0.5556550000000 1.0
C      1  0.4469860000000  0.5052960000000  0.5643350000000 1.0
C      1  0.5529830000000  0.5418970000000  0.5488780000000 1.0
C      1  0.4467430000000  0.5629730000000  0.5149620000000 1.0
C      1  0.5531260000000  0.5593590000000  0.4751880000000 1.0
C      1  0.4467530000000  0.5336070000000  0.4449510000000 1.0
C      1  0.5532340000000  0.4947240000000  0.4357240000000 1.0
C      1  0.4470190000000  0.4581850000000  0.4515360000000 1.0
C      1  0.5532240000000  0.4371210000000  0.4852080000000 1.0
C      1  0.4468750000000  0.4401770000000  0.5253120000000 1.0
C      1  0.5142170000000  0.5116190000000  0.4179120000000 1.0
C      1  0.4857690000000  0.4612400000000  0.4268570000000 1.0
C      1  0.5142950000000  0.4255620000000  0.4636350000000 1.0
C      1  0.4858250000000  0.4187420000000  0.5145490000000 1.0
C      1  0.5142710000000  0.4425690000000  0.5597440000000 1.0
C      1  0.4857370000000  0.4884060000000  0.5821090000000 1.0
C      1  0.5141800000000  0.5386930000000  0.5730710000000 1.0
C      1  0.4857050000000  0.5746230000000  0.5363630000000 1.0
C      1  0.5142260000000  0.5816530000000  0.4856040000000 1.0
C      1  0.4857750000000  0.5576970000000  0.4403950000000 1.0
C      1  0.5304620000000  0.5233180000000  0.5103350000000 1.0
C      1  0.4673050000000  0.5265630000000  0.4951730000000 1.0
C      1  0.5327560000000  0.5180660000000  0.4806600000000 1.0
C      1  0.4672410000000  0.5042710000000  0.4739330000000 1.0
C      1  0.5326940000000  0.4876060000000  0.4761620000000 1.0
C      1  0.4695370000000  0.4776500000000  0.4880570000000 1.0
C      1  0.5308830000000  0.4727290000000  0.5025470000000 1.0
C      1  0.4684660000000  0.4774530000000  0.5219590000000 1.0
C      1  0.5315370000000  0.4967190000000  0.5313550000000 1.0
C      1  0.4691190000000  0.5149240000000  0.5231380000000 1.0
C      1  0.4709990000000  0.4666910000000  0.5715590000000 1.0
C      1  0.5290240000000  0.5150790000000  0.5776800000000 1.0
C      1  0.4708080000000  0.5576920000000  0.5537190000000 1.0
C      1  0.5290900000000  0.5779750000000  0.5096400000000 1.0
C      1  0.4708630000000  0.5689340000000  0.4619420000000 1.0
C      1  0.5291520000000  0.5333700000000  0.4287170000000 1.0
C      1  0.4708870000000  0.4851730000000  0.4228290000000 1.0
C      1  0.5291440000000  0.4425570000000  0.4463200000000 1.0
C      1  0.4711160000000  0.4225600000000  0.4906500000000 1.0
C      1  0.5289870000000  0.4316360000000  0.5381120000000 1.0
C      1  0.5075650000000  0.4554340000000  0.5078980000000 1.0
C      1  0.4929250000000  0.4675610000000  0.5337940000000 1.0
C      1  0.5070800000000  0.4934780000000  0.5464380000000 1.0
C      1  0.4924380000000  0.5213520000000  0.5400600000000 1.0
C      1  0.5072690000000  0.5389770000000  0.5191030000000 1.0
C      1  0.4921970000000  0.5420050000000  0.4926550000000 1.0
C      1  0.5077460000000  0.5293030000000  0.4696640000000 1.0
C      1  0.4922500000000  0.5060230000000  0.4583070000000 1.0
C      1  0.5078000000000  0.4800860000000  0.4624440000000 1.0
C      1  0.4927310000000  0.4611030000000  0.4811100000000 1.0
C      1  0.4404300000000  0.4589040000000  0.4802470000000 1.0
C      1  0.5593580000000  0.4550340000000  0.5081100000000 1.0
C      1  0.4406520000000  0.4680430000000  0.5333490000000 1.0
C      1  0.5593530000000  0.4935340000000  0.5457790000000 1.0
C      1  0.4406450000000  0.5214280000000  0.5405100000000 1.0
C      1  0.5595690000000  0.5410130000000  0.5203010000000 1.0
C      1  0.4401070000000  0.5454610000000  0.4921920000000 1.0
C      1  0.5597660000000  0.5318910000000  0.4670610000000 1.0
C      1  0.4402290000000  0.5064800000000  0.4546700000000 1.0
C      1  0.5598910000000  0.4783260000000  0.4594310000000 1.0
C      1  0.4709830000000  0.4296420000000  0.5359990000000 1.0
C      1  0.5290090000000  0.4642490000000  0.5703640000000 1.0
C      1  0.4710200000000  0.5121830000000  0.5774140000000 1.0
C      1  0.5288870000000  0.5551800000000  0.5553510000000 1.0
C      1  0.4708540000000  0.5778100000000  0.5123130000000 1.0
C      1  0.5291070000000  0.5701000000000  0.4642610000000 1.0
C      1  0.4708400000000  0.5357920000000  0.4299020000000 1.0
C      1  0.5291300000000  0.4877210000000  0.4223150000000 1.0
C      1  0.4709070000000  0.4445590000000  0.4445510000000 1.0
C      1  0.5291940000000  0.4223030000000  0.4876600000000 1.0
C      1  0.4467770000000  0.5505040000000  0.5405330000000 1.0
C      1  0.5529790000000  0.5640840000000  0.5031980000000 1.0
C      1  0.4467610000000  0.5540540000000  0.4646780000000 1.0
C      1  0.5532410000000  0.5228550000000  0.4397000000000 1.0
C      1  0.4468690000000  0.4831700000000  0.4380220000000 1.0
C      1  0.5532550000000  0.4496020000000  0.4596420000000 1.0
C      1  0.4470190000000  0.4358360000000  0.4971370000000 1.0
C      1  0.5530200000000  0.4461840000000  0.5354890000000 1.0
C      1  0.4468940000000  0.4769930000000  0.5608560000000 1.0
C      1  0.5531300000000  0.5170190000000  0.5627960000000 1.0
C      1  0.4855820000000  0.4470940000000  0.5549030000000 1.0
C      1  0.5144260000000  0.4894370000000  0.5755600000000 1.0
C      1  0.4855810000000  0.5353360000000  0.5661770000000 1.0
C      1  0.5140640000000  0.5666300000000  0.5324230000000 1.0
C      1  0.4858830000000  0.5730470000000  0.4871460000000 1.0
C      1  0.5141270000000  0.5515930000000  0.4466180000000 1.0
C      1  0.4858650000000  0.5104690000000  0.4265560000000 1.0
C      1  0.5141130000000  0.4653240000000  0.4345860000000 1.0
C      1  0.4859360000000  0.4335850000000  0.4675120000000 1.0
C      1  0.5144230000000  0.4262430000000  0.5129490000000 1.0
C      1  0.5166140000000  0.4969720000000  0.5081140000000 1.0
C      1  0.4833870000000  0.4956170000000  0.5074540000000 1.0
END
