TITL C-146849-6750-1 -0.146877562375393 125000 -847.744079954387 0 0 119 (C1) n - 1
REM
REM in /rds/project/t2_vol4/rds-t2-cs072/BORA/CARBON/from-Arr/AIRSS/Generating-Clusters/GAP-ML-2020/Higher-Symm/SD-CG/HFTN-CG
REM
REM
REM
REM
REM
REM ./C.cell (b20cbc046b6831c77cfcea5457e17084)
REM AIRSS Version 0.9.1 bugfix July 2018 build 013d7b7c2542+ Fri, 06 Jul 2018 19:26:36 +0100
REM compiler GCC version 9.3.0
REM options -cpp -mtune=generic -march=x86-64 -g -O0
REM seed -160438367 844490772 -1289495646 728920344 1702412249 244646540 -1186613623 1805810775 -1635455919 215525046 -589092615 825567788 -68808244 936028013 -1269690105 185309600 -187429322 1794460283 703126578 323807913 1117929615 1331763418 1145947856 -202151262 -1470745966 -405429867 -180852772 172750975 156622578 -241587141 1733064536 -600656148 531839022
REM
CELL 1.54180   50.00000   50.00000   50.00000   90.00000   90.00000   90.00000
LATT -1
SFAC C  
C      1  0.4458470000000  0.5555130000000  0.5406630000000 1.0
C      1  0.5586840000000  0.5560940000000  0.5418430000000 1.0
C      1  0.5560530000000  0.4428810000000  0.5397900000000 1.0
C      1  0.4427700000000  0.4448570000000  0.5390410000000 1.0
C      1  0.4457850000000  0.5558190000000  0.4616460000000 1.0
C      1  0.5582580000000  0.5570040000000  0.4604170000000 1.0
C      1  0.5553600000000  0.4440970000000  0.4593430000000 1.0
C      1  0.4420670000000  0.4446240000000  0.4585490000000 1.0
C      1  0.5348050000000  0.5575070000000  0.4420120000000 1.0
C      1  0.5568520000000  0.4673150000000  0.4413700000000 1.0
C      1  0.4662190000000  0.4440150000000  0.4396730000000 1.0
C      1  0.4447170000000  0.5332220000000  0.4428240000000 1.0
C      1  0.5354490000000  0.5562760000000  0.5604210000000 1.0
C      1  0.5572480000000  0.4657330000000  0.5584270000000 1.0
C      1  0.4664390000000  0.4439730000000  0.5572660000000 1.0
C      1  0.4447330000000  0.5325640000000  0.5588230000000 1.0
C      1  0.4938030000000  0.5351950000000  0.5578000000000 1.0
C      1  0.5371310000000  0.5079720000000  0.5570180000000 1.0
C      1  0.5093260000000  0.4641150000000  0.5565530000000 1.0
C      1  0.4645600000000  0.4910090000000  0.5575520000000 1.0
C      1  0.4928060000000  0.5357760000000  0.4445940000000 1.0
C      1  0.5367570000000  0.5093510000000  0.4437720000000 1.0
C      1  0.5093250000000  0.4647200000000  0.4420580000000 1.0
C      1  0.4641660000000  0.4902190000000  0.4413080000000 1.0
C      1  0.5756670000000  0.5332350000000  0.5450830000000 1.0
C      1  0.5334430000000  0.4257070000000  0.5432080000000 1.0
C      1  0.4241220000000  0.4665270000000  0.5434550000000 1.0
C      1  0.4681410000000  0.5731620000000  0.5452400000000 1.0
C      1  0.5752400000000  0.5344020000000  0.4562830000000 1.0
C      1  0.5334630000000  0.4260090000000  0.4545860000000 1.0
C      1  0.4232500000000  0.4670760000000  0.4553950000000 1.0
C      1  0.4679030000000  0.5738600000000  0.4579100000000 1.0
C      1  0.5130580000000  0.4360120000000  0.4374030000000 1.0
C      1  0.4344720000000  0.4876620000000  0.4389510000000 1.0
C      1  0.4881950000000  0.5646370000000  0.4401660000000 1.0
C      1  0.5653410000000  0.5138870000000  0.4390770000000 1.0
C      1  0.5128960000000  0.4353490000000  0.5604540000000 1.0
C      1  0.4352810000000  0.4866710000000  0.5601920000000 1.0
C      1  0.4886480000000  0.5636880000000  0.5626630000000 1.0
C      1  0.5658120000000  0.5122420000000  0.5617230000000 1.0
C      1  0.5348390000000  0.5082430000000  0.5267010000000 1.0
C      1  0.5101370000000  0.4670490000000  0.5267680000000 1.0
C      1  0.4682630000000  0.4927720000000  0.5274420000000 1.0
C      1  0.4974700000000  0.5342050000000  0.5279930000000 1.0
C      1  0.5346760000000  0.5095190000000  0.4741060000000 1.0
C      1  0.5108780000000  0.4646960000000  0.4720960000000 1.0
C      1  0.4655590000000  0.4836560000000  0.4699330000000 1.0
C      1  0.4953180000000  0.5340000000000  0.4747520000000 1.0
C      1  0.4686540000000  0.4110390000000  0.4840150000000 1.0
C      1  0.4087380000000  0.5315250000000  0.4859660000000 1.0
C      1  0.5327760000000  0.5905320000000  0.4868620000000 1.0
C      1  0.5892900000000  0.4695740000000  0.4852400000000 1.0
C      1  0.4688630000000  0.4111980000000  0.5131220000000 1.0
C      1  0.4092170000000  0.5308840000000  0.5151740000000 1.0
C      1  0.5329840000000  0.5902900000000  0.5162450000000 1.0
C      1  0.5897680000000  0.4689440000000  0.5142740000000 1.0
C      1  0.5127840000000  0.5189880000000  0.4057370000000 1.0
C      1  0.5187940000000  0.4901270000000  0.4049720000000 1.0
C      1  0.4902080000000  0.4841160000000  0.4040200000000 1.0
C      1  0.4839880000000  0.5130640000000  0.4056060000000 1.0
C      1  0.5130320000000  0.5161930000000  0.5955420000000 1.0
C      1  0.5185580000000  0.4873070000000  0.5949500000000 1.0
C      1  0.4897810000000  0.4817160000000  0.5949710000000 1.0
C      1  0.4841570000000  0.5107170000000  0.5951790000000 1.0
C      1  0.5717020000000  0.4464770000000  0.5149380000000 1.0
C      1  0.4462450000000  0.4291250000000  0.5140840000000 1.0
C      1  0.4291350000000  0.5519340000000  0.5162420000000 1.0
C      1  0.5558960000000  0.5728520000000  0.5169300000000 1.0
C      1  0.5710410000000  0.4473010000000  0.4840520000000 1.0
C      1  0.4459740000000  0.4289180000000  0.4832950000000 1.0
C      1  0.4291350000000  0.5522010000000  0.4857070000000 1.0
C      1  0.5556770000000  0.5731490000000  0.4855690000000 1.0
C      1  0.4073600000000  0.5097740000000  0.5335130000000 1.0
C      1  0.5114500000000  0.5915070000000  0.5347350000000 1.0
C      1  0.5922720000000  0.4901910000000  0.5326160000000 1.0
C      1  0.4904480000000  0.4090220000000  0.5312290000000 1.0
C      1  0.4070980000000  0.5104450000000  0.4671800000000 1.0
C      1  0.5110120000000  0.5920600000000  0.4686580000000 1.0
C      1  0.5920700000000  0.4911940000000  0.4673930000000 1.0
C      1  0.4903290000000  0.4092330000000  0.4660810000000 1.0
C      1  0.5209120000000  0.5318320000000  0.4320320000000 1.0
C      1  0.5317320000000  0.4813110000000  0.4311260000000 1.0
C      1  0.4811580000000  0.4694060000000  0.4290290000000 1.0
C      1  0.4700010000000  0.5195070000000  0.4324860000000 1.0
C      1  0.5216290000000  0.5301890000000  0.5698900000000 1.0
C      1  0.5318920000000  0.4797420000000  0.5685360000000 1.0
C      1  0.4810680000000  0.4688790000000  0.5684080000000 1.0
C      1  0.4704380000000  0.5189000000000  0.5689230000000 1.0
C      1  0.4522660000000  0.5016970000000  0.4855350000000 1.0
C      1  0.5210530000000  0.5315740000000  0.4862010000000 1.0
C      1  0.5253200000000  0.4859150000000  0.4861650000000 1.0
C      1  0.4852770000000  0.4689680000000  0.4845150000000 1.0
C      1  0.4454210000000  0.4925570000000  0.5106370000000 1.0
C      1  0.5216180000000  0.5302530000000  0.5150750000000 1.0
C      1  0.5297030000000  0.4837090000000  0.5144770000000 1.0
C      1  0.4856530000000  0.4727170000000  0.5139320000000 1.0
C      1  0.4054840000000  0.4813160000000  0.4744800000000 1.0
C      1  0.4822060000000  0.5909130000000  0.4766210000000 1.0
C      1  0.5918570000000  0.5200200000000  0.4751860000000 1.0
C      1  0.5192140000000  0.4094300000000  0.4734580000000 1.0
C      1  0.4052410000000  0.4809140000000  0.5253320000000 1.0
C      1  0.4825020000000  0.5905800000000  0.5269080000000 1.0
C      1  0.5919580000000  0.5192700000000  0.5255340000000 1.0
C      1  0.5193340000000  0.4094590000000  0.5237880000000 1.0
C      1  0.4869490000000  0.4254910000000  0.4434620000000 1.0
C      1  0.4246220000000  0.5132530000000  0.4452760000000 1.0
C      1  0.5140420000000  0.5760450000000  0.4458380000000 1.0
C      1  0.5759160000000  0.4879080000000  0.4448770000000 1.0
C      1  0.4869550000000  0.4249280000000  0.5540260000000 1.0
C      1  0.4249630000000  0.5124510000000  0.5551770000000 1.0
C      1  0.5146710000000  0.5750960000000  0.5571930000000 1.0
C      1  0.5763520000000  0.4863660000000  0.5552760000000 1.0
C      1  0.4750090000000  0.5978350000000  0.5018530000000 1.0
C      1  0.5985600000000  0.5273700000000  0.5004490000000 1.0
C      1  0.5270950000000  0.4030830000000  0.4986070000000 1.0
C      1  0.3959090000000  0.4758290000000  0.4997900000000 1.0
C      1  0.4783240000000  0.5187840000000  0.5168180000000 1.0
C      1  0.4781260000000  0.5168090000000  0.4888370000000 1.0
C      1  0.4964380000000  0.4940830000000  0.4953430000000 1.0
END
