TITL C-148573-4786-9 -0.0546461277763818 125000 -180.308249139125 0 0 28 (C2h) n - 1
REM
REM in /rds/project/t2_vol4/rds-t2-cs072/BORA/CARBON/from-Arr/AIRSS/Generating-Clusters/GAP-ML-2020/Higher-Symm/SD-CG/HFTN-CG
REM
REM
REM
REM
REM
REM ./C.cell (b20cbc046b6831c77cfcea5457e17084)
REM AIRSS Version 0.9.1 bugfix July 2018 build 013d7b7c2542+ Fri, 06 Jul 2018 19:26:36 +0100
REM compiler GCC version 9.3.0
REM options -cpp -mtune=generic -march=x86-64 -g -O0
REM seed -1400781072 39228495 -2127937177 1394314168 -1176744034 1328264571 166991052 -1692263645 -797277073 1879722836 1078528973 1671603037 1757813235 1472082304 -1263842099 961949103 -324353477 995983180 1926110995 -71240139 -371856701 -1948707967 -1286512817 2123584676 -1525110927 -798622855 412717176 931086159 -447364519 -1903251920 -1778045379 312930429 -1668331878
REM
CELL 1.54180   50.00000   50.00000   50.00000   90.00000   90.00000   90.00000
LATT -1
SFAC C  
C      1  0.5211520000000  0.5261700000000  0.4532090000000 1.0
C      1  0.4795440000000  0.5260490000000  0.5471660000000 1.0
C      1  0.5204560000000  0.4739510000000  0.4528340000000 1.0
C      1  0.4788480000000  0.4738300000000  0.5467910000000 1.0
C      1  0.4513880000000  0.4658340000000  0.4517480000000 1.0
C      1  0.5476750000000  0.4638600000000  0.5477460000000 1.0
C      1  0.4523250000000  0.5361400000000  0.4522540000000 1.0
C      1  0.5486120000000  0.5341660000000  0.5482520000000 1.0
C      1  0.5029270000000  0.4856800000000  0.5422900000000 1.0
C      1  0.4967010000000  0.4863730000000  0.4575090000000 1.0
C      1  0.5032990000000  0.5136270000000  0.5424910000000 1.0
C      1  0.4970730000000  0.5143200000000  0.4577100000000 1.0
C      1  0.5301630000000  0.5245590000000  0.5320330000000 1.0
C      1  0.4705090000000  0.5258130000000  0.4683290000000 1.0
C      1  0.5294910000000  0.4741870000000  0.5316710000000 1.0
C      1  0.4698370000000  0.4754410000000  0.4679670000000 1.0
C      1  0.4504590000000  0.4857920000000  0.5211890000000 1.0
C      1  0.5491490000000  0.4847830000000  0.4785990000000 1.0
C      1  0.4508510000000  0.5152170000000  0.5214010000000 1.0
C      1  0.5495410000000  0.5142080000000  0.4788110000000 1.0
C      1  0.5458980000000  0.5324870000000  0.4576380000000 1.0
C      1  0.4549760000000  0.5330860000000  0.5428340000000 1.0
C      1  0.5450240000000  0.4669140000000  0.4571660000000 1.0
C      1  0.4541020000000  0.4675130000000  0.5423620000000 1.0
C      1  0.4632140000000  0.4865130000000  0.4946960000000 1.0
C      1  0.5364120000000  0.4854620000000  0.5051030000000 1.0
C      1  0.4635880000000  0.5145380000000  0.4948970000000 1.0
C      1  0.5367860000000  0.5134870000000  0.5053040000000 1.0
END
