TITL C-146863-8861-6 -0.0766064427740988 125000 -155.383788086348 0 0 25 (C5v) n - 1
REM
REM in /rds/project/t2_vol4/rds-t2-cs072/BORA/CARBON/from-Arr/AIRSS/Generating-Clusters/GAP-ML-2020/Higher-Symm/SD-CG/HFTN-CG
REM
REM
REM
REM
REM
REM ./C.cell (b20cbc046b6831c77cfcea5457e17084)
REM AIRSS Version 0.9.1 bugfix July 2018 build 013d7b7c2542+ Fri, 06 Jul 2018 19:26:36 +0100
REM compiler GCC version 9.3.0
REM options -cpp -mtune=generic -march=x86-64 -g -O0
REM seed 270220672 -1877303648 -1953660917 -695273567 1281383637 1421884608 -1819939194 -669005168 1213307988 422554786 388286743 342392072 1837579929 812041705 -613614493 -1851104743 1677993662 -1381699471 -1309140313 1431872827 1706681719 -523844469 -79651392 98214815 -1999315813 1402755321 -946193049 1090633580 225571821 1731004125 -1287757532 1050573578 1335264002
REM
CELL 1.54180   50.00000   50.00000   50.00000   90.00000   90.00000   90.00000
LATT -1
SFAC C  
C      1  0.5279630000000  0.5038650000000  0.5380140000000 1.0
C      1  0.4724880000000  0.5038650000000  0.5383410000000 1.0
C      1  0.4550340000000  0.5038640000000  0.4856820000000 1.0
C      1  0.4997210000000  0.5038630000000  0.4528100000000 1.0
C      1  0.5447940000000  0.5038630000000  0.4851520000000 1.0
C      1  0.5279640000000  0.5038630000000  0.4619870000000 1.0
C      1  0.4724890000000  0.5038640000000  0.4616580000000 1.0
C      1  0.4550330000000  0.5038650000000  0.5143160000000 1.0
C      1  0.4997210000000  0.5038650000000  0.5471900000000 1.0
C      1  0.5447940000000  0.5038640000000  0.5148480000000 1.0
C      1  0.4731110000000  0.4738370000000  0.5369760000000 1.0
C      1  0.4565250000000  0.4738360000000  0.4858540000000 1.0
C      1  0.5000200000000  0.4738340000000  0.4542820000000 1.0
C      1  0.5434870000000  0.4738350000000  0.4858920000000 1.0
C      1  0.5268560000000  0.4738360000000  0.5369990000000 1.0
C      1  0.4731120000000  0.4738350000000  0.4630250000000 1.0
C      1  0.4565250000000  0.4738360000000  0.5141470000000 1.0
C      1  0.5000190000000  0.4738370000000  0.5457190000000 1.0
C      1  0.5434870000000  0.4738350000000  0.5141100000000 1.0
C      1  0.5268570000000  0.4738340000000  0.4630020000000 1.0
C      1  0.4746260000000  0.5214250000000  0.4999990000000 1.0
C      1  0.4921590000000  0.5214250000000  0.5241320000000 1.0
C      1  0.4921590000000  0.5214240000000  0.4758670000000 1.0
C      1  0.5205290000000  0.5214240000000  0.4850850000000 1.0
C      1  0.5205290000000  0.5214250000000  0.5149140000000 1.0
END
