TITL C-146864-7696-3 0.0372101811206319 125000 -158.344320495205 0 0 25 (C1) n - 1
REM
REM in /rds/project/t2_vol4/rds-t2-cs072/BORA/CARBON/from-Arr/AIRSS/Generating-Clusters/GAP-ML-2020/Higher-Symm/SD-CG/HFTN-CG
REM
REM
REM
REM
REM
REM ./C.cell (b20cbc046b6831c77cfcea5457e17084)
REM AIRSS Version 0.9.1 bugfix July 2018 build 013d7b7c2542+ Fri, 06 Jul 2018 19:26:36 +0100
REM compiler GCC version 9.3.0
REM options -cpp -mtune=generic -march=x86-64 -g -O0
REM seed -1560337355 1379164094 1437038131 -394028568 -350410432 1307958292 -1848867325 -1661108941 1110542824 2034140758 1143466864 -1641848060 20191183 1174644121 1670819264 1267546185 -1128403486 -1005398032 -461490854 589794807 176156139 120901712 -1740082774 -782354946 905954702 1768640404 226147538 -218958643 -708242131 -2087024894 -878462552 876618939 -338323899
REM
CELL 1.54180   50.00000   50.00000   50.00000   90.00000   90.00000   90.00000
LATT -1
SFAC C  
C      1  0.4735920000000  0.5340860000000  0.4792340000000 1.0
C      1  0.5274240000000  0.4592880000000  0.5172210000000 1.0
C      1  0.5162140000000  0.4792180000000  0.4774200000000 1.0
C      1  0.4883550000000  0.5311810000000  0.5300580000000 1.0
C      1  0.5118880000000  0.4949030000000  0.4529630000000 1.0
C      1  0.4887480000000  0.5071210000000  0.5477170000000 1.0
C      1  0.4544810000000  0.4814110000000  0.4940680000000 1.0
C      1  0.5371250000000  0.5138300000000  0.5022310000000 1.0
C      1  0.4692450000000  0.4779150000000  0.5140840000000 1.0
C      1  0.5371090000000  0.5291720000000  0.4796350000000 1.0
C      1  0.5440560000000  0.5057990000000  0.5302350000000 1.0
C      1  0.4521490000000  0.4956840000000  0.4696960000000 1.0
C      1  0.5382060000000  0.5234150000000  0.5512950000000 1.0
C      1  0.4623080000000  0.4868540000000  0.4434470000000 1.0
C      1  0.5374940000000  0.4781700000000  0.5359250000000 1.0
C      1  0.4487470000000  0.5228560000000  0.4706500000000 1.0
C      1  0.4871130000000  0.4917550000000  0.4410650000000 1.0
C      1  0.5113770000000  0.5222740000000  0.5463730000000 1.0
C      1  0.5115180000000  0.4668810000000  0.5397380000000 1.0
C      1  0.4937340000000  0.5380580000000  0.4592790000000 1.0
C      1  0.5247120000000  0.4567330000000  0.4903430000000 1.0
C      1  0.4801300000000  0.5372880000000  0.5064090000000 1.0
C      1  0.5168440000000  0.5235420000000  0.4612590000000 1.0
C      1  0.4862170000000  0.4811050000000  0.5364170000000 1.0
C      1  0.5138150000000  0.4982670000000  0.4989080000000 1.0
END
