TITL C-146877-8062-13 -93.8427078446726 125000 -434.273499269088 0 0 64 (C2) n - 1
REM
REM in /rds/project/t2_vol4/rds-t2-cs072/BORA/CARBON/from-Arr/AIRSS/Generating-Clusters/GAP-ML-2020/Higher-Symm/SD-CG/HFTN-CG
REM
REM
REM
REM
REM
REM ./C.cell (b20cbc046b6831c77cfcea5457e17084)
REM AIRSS Version 0.9.1 bugfix July 2018 build 013d7b7c2542+ Fri, 06 Jul 2018 19:26:36 +0100
REM compiler GCC version 9.3.0
REM options -cpp -mtune=generic -march=x86-64 -g -O0
REM seed 436651811 -1900084738 1943186370 -908411022 1716721613 1439672133 -2128061365 439737874 -514827220 -1376848134 1381313889 -1778609153 -1003419231 2093186831 -1557434885 776273352 1441359884 1102574304 113285688 549232857 -640085056 -718306993 1705950467 -1302312105 999874650 -612807873 -1493874604 701868321 -472196498 607462982 -1659433286 -807095860 1568417328
REM
CELL 1.54180   50.00000   50.00000   50.00000   90.00000   90.00000   90.00000
LATT -1
SFAC C  
C      1  0.5445140000000  0.4571950000000  0.5195910000000 1.0
C      1  0.4554870000000  0.5428110000000  0.5195810000000 1.0
C      1  0.5125600000000  0.4657610000000  0.4734020000000 1.0
C      1  0.4874390000000  0.5342310000000  0.4733930000000 1.0
C      1  0.4416850000000  0.4828030000000  0.5056250000000 1.0
C      1  0.5583150000000  0.5171990000000  0.5056170000000 1.0
C      1  0.4903600000000  0.4669900000000  0.4945790000000 1.0
C      1  0.5096390000000  0.5330080000000  0.4945690000000 1.0
C      1  0.4983430000000  0.4349160000000  0.5444040000000 1.0
C      1  0.5016600000000  0.5650960000000  0.5443860000000 1.0
C      1  0.5200660000000  0.4300760000000  0.4588690000000 1.0
C      1  0.4799310000000  0.5699130000000  0.4588500000000 1.0
C      1  0.4797990000000  0.5034400000000  0.5185940000000 1.0
C      1  0.5202020000000  0.4965660000000  0.5185940000000 1.0
C      1  0.5734500000000  0.5032690000000  0.4828980000000 1.0
C      1  0.4265490000000  0.4967260000000  0.4829030000000 1.0
C      1  0.5311850000000  0.4416180000000  0.4827020000000 1.0
C      1  0.4688140000000  0.5583770000000  0.4826880000000 1.0
C      1  0.4875760000000  0.4971630000000  0.4231290000000 1.0
C      1  0.5124200000000  0.5028150000000  0.4231280000000 1.0
C      1  0.5421190000000  0.5615260000000  0.4826760000000 1.0
C      1  0.4578800000000  0.4384700000000  0.4826950000000 1.0
C      1  0.5014940000000  0.5532430000000  0.4539750000000 1.0
C      1  0.4985040000000  0.4467440000000  0.4539900000000 1.0
C      1  0.5323100000000  0.4889990000000  0.4677620000000 1.0
C      1  0.4676890000000  0.5109920000000  0.4677600000000 1.0
C      1  0.4589160000000  0.5178930000000  0.5358310000000 1.0
C      1  0.5410860000000  0.4821170000000  0.5358340000000 1.0
C      1  0.5519480000000  0.5226320000000  0.5571710000000 1.0
C      1  0.4480550000000  0.4773840000000  0.5571800000000 1.0
C      1  0.4688620000000  0.4470740000000  0.4563600000000 1.0
C      1  0.5311360000000  0.5529130000000  0.4563430000000 1.0
C      1  0.5579680000000  0.5077880000000  0.5354580000000 1.0
C      1  0.4420340000000  0.4922220000000  0.5354630000000 1.0
C      1  0.5320900000000  0.5054510000000  0.4422630000000 1.0
C      1  0.4679070000000  0.4945330000000  0.4422670000000 1.0
C      1  0.4753490000000  0.5628210000000  0.5124190000000 1.0
C      1  0.5246510000000  0.4371830000000  0.5124350000000 1.0
C      1  0.4315020000000  0.4735900000000  0.4663160000000 1.0
C      1  0.5684960000000  0.5264000000000  0.4663050000000 1.0
C      1  0.5256160000000  0.5240320000000  0.5653810000000 1.0
C      1  0.4743870000000  0.4759870000000  0.5653890000000 1.0
C      1  0.4538910000000  0.4701200000000  0.4482510000000 1.0
C      1  0.5461070000000  0.5298660000000  0.4482400000000 1.0
C      1  0.4970450000000  0.4784680000000  0.5210710000000 1.0
C      1  0.5029570000000  0.5215380000000  0.5210650000000 1.0
C      1  0.4450750000000  0.5426400000000  0.4921570000000 1.0
C      1  0.5549240000000  0.4573580000000  0.4921660000000 1.0
C      1  0.5018800000000  0.5375610000000  0.5506000000000 1.0
C      1  0.4981220000000  0.4624530000000  0.5506100000000 1.0
C      1  0.5193590000000  0.5619300000000  0.4988290000000 1.0
C      1  0.4806410000000  0.4380690000000  0.4988480000000 1.0
C      1  0.5229700000000  0.4770210000000  0.5593180000000 1.0
C      1  0.4770330000000  0.5229960000000  0.5593120000000 1.0
C      1  0.4367850000000  0.4571710000000  0.4892970000000 1.0
C      1  0.5632150000000  0.5428260000000  0.4892810000000 1.0
C      1  0.5302420000000  0.5092100000000  0.4930730000000 1.0
C      1  0.4697580000000  0.4907880000000  0.4930770000000 1.0
C      1  0.5603080000000  0.4794660000000  0.4758450000000 1.0
C      1  0.4396910000000  0.5205270000000  0.4758430000000 1.0
C      1  0.5146870000000  0.4992180000000  0.5735270000000 1.0
C      1  0.4853160000000  0.5008030000000  0.5735280000000 1.0
C      1  0.5022710000000  0.5730250000000  0.5186320000000 1.0
C      1  0.4977300000000  0.4269800000000  0.5186530000000 1.0
END
