TITL C-140559-641-7 0.022307300813528 125000 -154.034029278752 0 0 26 (D2d) n - 1
REM
REM in /rds/project/t2_vol4/rds-t2-cs072/BORA/CARBON/from-Arr/AIRSS/Generating-Clusters/GAP-ML-2020/Higher-Symm/SD-CG/HFTN-CG
REM
REM
REM
REM
REM
REM ./C.cell (b20cbc046b6831c77cfcea5457e17084)
REM AIRSS Version 0.9.1 bugfix July 2018 build 013d7b7c2542+ Fri, 06 Jul 2018 19:26:36 +0100
REM compiler GCC version 9.3.0
REM options -cpp -mtune=generic -march=x86-64 -g -O0
REM seed 998904594 -1497022360 -756252165 -370666011 1808617657 -664355729 -85448399 -987697207 613152528 -1415867410 -1128728839 -1669821167 -368295182 -637690662 1214806213 931666824 -1524946858 1154323976 1513075735 761713136 -1416897770 -1379278424 -675694817 -1043582575 -266710129 634262570 -1555127495 -429577095 1111412310 1381430092 2043420781 57164945 2099525704
REM
CELL 1.54180   50.00000   50.00000   50.00000   90.00000   90.00000   90.00000
LATT -1
SFAC C  
C      1  0.5016060000000  0.4480640000000  0.5336860000000 1.0
C      1  0.5014540000000  0.5519350000000  0.4663150000000 1.0
C      1  0.5020550000000  0.5519320000000  0.5336900000000 1.0
C      1  0.5020840000000  0.4480680000000  0.4663090000000 1.0
C      1  0.5014530000000  0.5336900000000  0.4480680000000 1.0
C      1  0.5016060000000  0.4663090000000  0.5519320000000 1.0
C      1  0.5020880000000  0.5336860000000  0.5519350000000 1.0
C      1  0.5020510000000  0.4663150000000  0.4480640000000 1.0
C      1  0.5396510000000  0.4719920000000  0.5077240000000 1.0
C      1  0.5395880000000  0.5280740000000  0.4922070000000 1.0
C      1  0.4639630000000  0.5280080000000  0.5077960000000 1.0
C      1  0.4639980000000  0.4719270000000  0.4922730000000 1.0
C      1  0.5395870000000  0.5077940000000  0.4719250000000 1.0
C      1  0.5396510000000  0.4922710000000  0.5280060000000 1.0
C      1  0.4639990000000  0.5077260000000  0.5280760000000 1.0
C      1  0.4639610000000  0.4922080000000  0.4719930000000 1.0
C      1  0.5100370000000  0.4663210000000  0.5109240000000 1.0
C      1  0.5099580000000  0.5336940000000  0.4890610000000 1.0
C      1  0.4935830000000  0.5336780000000  0.5109420000000 1.0
C      1  0.4936210000000  0.4663070000000  0.4890730000000 1.0
C      1  0.5099570000000  0.5109420000000  0.4663070000000 1.0
C      1  0.5100380000000  0.4890720000000  0.5336780000000 1.0
C      1  0.4936230000000  0.5109240000000  0.5336940000000 1.0
C      1  0.4935810000000  0.4890610000000  0.4663210000000 1.0
C      1  0.5412270000000  0.5000340000000  0.4999640000000 1.0
C      1  0.4623720000000  0.4999660000000  0.5000360000000 1.0
END
