TITL C-140551-871-5 99.8521203899941 125000 -814.989394666115 0 0 122 (C4h) n - 1
REM
REM in /rds/project/t2_vol4/rds-t2-cs072/BORA/CARBON/from-Arr/AIRSS/Generating-Clusters/GAP-ML-2020/Higher-Symm/SD-CG/HFTN-CG
REM
REM
REM
REM
REM
REM ./C.cell (b20cbc046b6831c77cfcea5457e17084)
REM AIRSS Version 0.9.1 bugfix July 2018 build 013d7b7c2542+ Fri, 06 Jul 2018 19:26:36 +0100
REM compiler GCC version 9.3.0
REM options -cpp -mtune=generic -march=x86-64 -g -O0
REM seed -1813622670 -1475160208 1501178829 -739095726 715461227 -291790554 -1088549947 416274193 300013138 499285919 2132511128 -915233638 -431801969 1500852744 939984617 1668644539 362612048 1058323179 -1487973623 1473882165 1942815831 1890222814 2011764907 -2034318447 1635513663 -827891490 -2122153672 137464544 870239088 -1996607967 162357749 -854591770 -1956761747
REM
CELL 1.54180   50.00000   50.00000   50.00000   90.00000   90.00000   90.00000
LATT -1
SFAC C  
C      1  0.5254260000000  0.5416120000000  0.5782130000000 1.0
C      1  0.5254490000000  0.4216530000000  0.5412970000000 1.0
C      1  0.5255790000000  0.4585680000000  0.4213380000000 1.0
C      1  0.5255550000000  0.5785280000000  0.4582530000000 1.0
C      1  0.4730320000000  0.5416190000000  0.5781580000000 1.0
C      1  0.4730550000000  0.4216590000000  0.5412430000000 1.0
C      1  0.4731850000000  0.4585750000000  0.4212830000000 1.0
C      1  0.4731610000000  0.5785350000000  0.4581980000000 1.0
C      1  0.5357640000000  0.5587490000000  0.4212250000000 1.0
C      1  0.5356240000000  0.5786500000000  0.5584460000000 1.0
C      1  0.5355860000000  0.4414290000000  0.5783470000000 1.0
C      1  0.5357260000000  0.4215280000000  0.4411260000000 1.0
C      1  0.4630240000000  0.5587580000000  0.4211490000000 1.0
C      1  0.4628840000000  0.5786590000000  0.5583700000000 1.0
C      1  0.4628460000000  0.4414380000000  0.5782710000000 1.0
C      1  0.4629860000000  0.4215370000000  0.4410500000000 1.0
C      1  0.5627960000000  0.4625170000000  0.4598990000000 1.0
C      1  0.5628040000000  0.5400000000000  0.4622460000000 1.0
C      1  0.5627230000000  0.5376540000000  0.5397290000000 1.0
C      1  0.5627150000000  0.4601710000000  0.5373820000000 1.0
C      1  0.4358880000000  0.4625340000000  0.4597670000000 1.0
C      1  0.4358950000000  0.5400160000000  0.4621140000000 1.0
C      1  0.4358140000000  0.5376700000000  0.5395970000000 1.0
C      1  0.4358070000000  0.4601870000000  0.5372500000000 1.0
C      1  0.5140790000000  0.4713840000000  0.5534310000000 1.0
C      1  0.5141610000000  0.4464240000000  0.4710560000000 1.0
C      1  0.5141980000000  0.5287990000000  0.4460960000000 1.0
C      1  0.5141150000000  0.5537590000000  0.5284700000000 1.0
C      1  0.4844120000000  0.4713880000000  0.5534000000000 1.0
C      1  0.4844950000000  0.4464280000000  0.4710250000000 1.0
C      1  0.4845310000000  0.5288030000000  0.4460650000000 1.0
C      1  0.4844490000000  0.5537630000000  0.5284400000000 1.0
C      1  0.4723140000000  0.5133470000000  0.5325870000000 1.0
C      1  0.4723290000000  0.4672290000000  0.5129690000000 1.0
C      1  0.4723790000000  0.4868470000000  0.4668520000000 1.0
C      1  0.4723650000000  0.5329650000000  0.4864700000000 1.0
C      1  0.5262310000000  0.5133400000000  0.5326430000000 1.0
C      1  0.5262460000000  0.4672230000000  0.5130260000000 1.0
C      1  0.5262960000000  0.4868410000000  0.4669080000000 1.0
C      1  0.5262820000000  0.5329580000000  0.4865260000000 1.0
C      1  0.5493010000000  0.5620260000000  0.4478070000000 1.0
C      1  0.5491810000000  0.5520800000000  0.5617380000000 1.0
C      1  0.5491770000000  0.4381490000000  0.5517930000000 1.0
C      1  0.5492970000000  0.4480940000000  0.4378610000000 1.0
C      1  0.4494330000000  0.5620390000000  0.4477030000000 1.0
C      1  0.4493130000000  0.5520930000000  0.5616340000000 1.0
C      1  0.4493090000000  0.4381610000000  0.5516890000000 1.0
C      1  0.4494290000000  0.4481070000000  0.4377570000000 1.0
C      1  0.4693600000000  0.5063810000000  0.4039480000000 1.0
C      1  0.4692650000000  0.5958660000000  0.5060000000000 1.0
C      1  0.4691590000000  0.4938140000000  0.5954860000000 1.0
C      1  0.4692540000000  0.4043290000000  0.4934330000000 1.0
C      1  0.5294510000000  0.5063730000000  0.4040100000000 1.0
C      1  0.5293560000000  0.5958590000000  0.5060630000000 1.0
C      1  0.5292500000000  0.4938060000000  0.5955480000000 1.0
C      1  0.5293450000000  0.4043210000000  0.4934960000000 1.0
C      1  0.4606560000000  0.5166700000000  0.4294310000000 1.0
C      1  0.4605720000000  0.5703750000000  0.5162790000000 1.0
C      1  0.4605050000000  0.4835270000000  0.5699840000000 1.0
C      1  0.4605890000000  0.4298220000000  0.4831360000000 1.0
C      1  0.5381050000000  0.5166600000000  0.4295120000000 1.0
C      1  0.5380220000000  0.5703650000000  0.5163590000000 1.0
C      1  0.5379550000000  0.4835170000000  0.5700650000000 1.0
C      1  0.5380380000000  0.4298120000000  0.4832170000000 1.0
C      1  0.5602490000000  0.4850010000000  0.5500210000000 1.0
C      1  0.5603130000000  0.4498760000000  0.4847270000000 1.0
C      1  0.5603580000000  0.5151700000000  0.4496020000000 1.0
C      1  0.5602940000000  0.5502950000000  0.5148960000000 1.0
C      1  0.4382530000000  0.4850170000000  0.5498940000000 1.0
C      1  0.4383160000000  0.4498920000000  0.4846000000000 1.0
C      1  0.4383610000000  0.5151860000000  0.4494750000000 1.0
C      1  0.4382980000000  0.5503110000000  0.5147690000000 1.0
C      1  0.4846130000000  0.5187220000000  0.5948300000000 1.0
C      1  0.4846790000000  0.4049980000000  0.5183590000000 1.0
C      1  0.4848070000000  0.4814690000000  0.4046350000000 1.0
C      1  0.4847420000000  0.5951930000000  0.4811060000000 1.0
C      1  0.5138040000000  0.5187180000000  0.5948610000000 1.0
C      1  0.5138690000000  0.4049940000000  0.5183900000000 1.0
C      1  0.5139970000000  0.4814650000000  0.4046650000000 1.0
C      1  0.5139320000000  0.5951890000000  0.4811360000000 1.0
C      1  0.5139410000000  0.4883980000000  0.5292200000000 1.0
C      1  0.5139810000000  0.4706340000000  0.4880690000000 1.0
C      1  0.5140050000000  0.5117860000000  0.4703060000000 1.0
C      1  0.5139640000000  0.5295490000000  0.5114570000000 1.0
C      1  0.4846050000000  0.4884020000000  0.5291900000000 1.0
C      1  0.4846460000000  0.4706380000000  0.4880390000000 1.0
C      1  0.4846700000000  0.5117890000000  0.4702750000000 1.0
C      1  0.4846290000000  0.5295530000000  0.5114260000000 1.0
C      1  0.5368870000000  0.5342020000000  0.4057180000000 1.0
C      1  0.5367610000000  0.5941570000000  0.5339010000000 1.0
C      1  0.5366820000000  0.4659750000000  0.5938560000000 1.0
C      1  0.5368080000000  0.4060200000000  0.4656730000000 1.0
C      1  0.4619280000000  0.5342120000000  0.4056400000000 1.0
C      1  0.4618020000000  0.5941670000000  0.5338230000000 1.0
C      1  0.4617230000000  0.4659850000000  0.5937780000000 1.0
C      1  0.4618490000000  0.4060300000000  0.4655950000000 1.0
C      1  0.4418720000000  0.4667110000000  0.5085780000000 1.0
C      1  0.4419190000000  0.4912110000000  0.4662980000000 1.0
C      1  0.4418990000000  0.5334910000000  0.4907980000000 1.0
C      1  0.4418520000000  0.5089910000000  0.5330780000000 1.0
C      1  0.5567120000000  0.4666960000000  0.5086970000000 1.0
C      1  0.5567590000000  0.4911970000000  0.4664180000000 1.0
C      1  0.5567390000000  0.5334760000000  0.4909180000000 1.0
C      1  0.5566920000000  0.5089760000000  0.5331970000000 1.0
C      1  0.4845090000000  0.4673330000000  0.4470310000000 1.0
C      1  0.4844990000000  0.5527970000000  0.4669700000000 1.0
C      1  0.4844070000000  0.5328580000000  0.5524340000000 1.0
C      1  0.4844170000000  0.4473940000000  0.5324950000000 1.0
C      1  0.5142030000000  0.4673290000000  0.4470620000000 1.0
C      1  0.5141930000000  0.5527940000000  0.4670010000000 1.0
C      1  0.5141020000000  0.5328540000000  0.5524650000000 1.0
C      1  0.5141110000000  0.4473900000000  0.5325260000000 1.0
C      1  0.4855260000000  0.5770000000000  0.4301880000000 1.0
C      1  0.4853720000000  0.5696410000000  0.5766380000000 1.0
C      1  0.4853610000000  0.4231910000000  0.5692790000000 1.0
C      1  0.4855150000000  0.4305500000000  0.4228290000000 1.0
C      1  0.5132490000000  0.5769960000000  0.4302170000000 1.0
C      1  0.5130960000000  0.5696370000000  0.5766670000000 1.0
C      1  0.5130840000000  0.4231880000000  0.5693080000000 1.0
C      1  0.5132380000000  0.4305460000000  0.4228580000000 1.0
C      1  0.4370050000000  0.5001020000000  0.4996830000000 1.0
C      1  0.5616050000000  0.5000860000000  0.4998130000000 1.0
END
