TITL C-149069-9669-2 103.067454165204 125000 -417.401261028927 0 0 64 (C1) n - 1
REM
REM in /rds/project/t2_vol4/rds-t2-cs072/BORA/CARBON/from-Arr/AIRSS/Generating-Clusters/GAP-ML-2020/Higher-Symm/SD-CG/HFTN-CG
REM
REM
REM
REM
REM
REM ./C.cell (b20cbc046b6831c77cfcea5457e17084)
REM AIRSS Version 0.9.1 bugfix July 2018 build 013d7b7c2542+ Fri, 06 Jul 2018 19:26:36 +0100
REM compiler GCC version 9.3.0
REM options -cpp -mtune=generic -march=x86-64 -g -O0
REM seed -1899369820 -357912383 2146537022 -99472619 328113354 -652318737 -366934258 -2120233269 -2050138366 -87509639 -225040261 959786487 2065811201 1901648889 -702231509 -2027708108 -1896082613 -543846698 -1940413458 -768325085 129059410 1818487538 646025401 -1351588199 -1767494377 -1499429945 -572835579 -1884841436 1779179465 1208552800 -2049357457 197706067 -1060904468
REM
CELL 1.54180   50.00000   50.00000   50.00000   90.00000   90.00000   90.00000
LATT -1
SFAC C  
C      1  0.4395560000000  0.5044120000000  0.5287350000000 1.0
C      1  0.5550390000000  0.4903510000000  0.5187070000000 1.0
C      1  0.4359650000000  0.4767480000000  0.5196100000000 1.0
C      1  0.5595640000000  0.4714390000000  0.4947050000000 1.0
C      1  0.4376840000000  0.4819670000000  0.4749920000000 1.0
C      1  0.5626440000000  0.4879040000000  0.4705970000000 1.0
C      1  0.4458020000000  0.5109570000000  0.4790810000000 1.0
C      1  0.5644470000000  0.5304570000000  0.4919770000000 1.0
C      1  0.4399710000000  0.5245400000000  0.5058730000000 1.0
C      1  0.5608300000000  0.5201270000000  0.5192810000000 1.0
C      1  0.4733080000000  0.5295350000000  0.5562650000000 1.0
C      1  0.5287630000000  0.4926190000000  0.5609770000000 1.0
C      1  0.4732540000000  0.4570950000000  0.5479910000000 1.0
C      1  0.5264250000000  0.4384720000000  0.5121260000000 1.0
C      1  0.4708560000000  0.4423850000000  0.4742270000000 1.0
C      1  0.5253630000000  0.4682740000000  0.4448840000000 1.0
C      1  0.4735880000000  0.5089920000000  0.4387070000000 1.0
C      1  0.5287560000000  0.5430630000000  0.4539740000000 1.0
C      1  0.4731270000000  0.5604220000000  0.4898980000000 1.0
C      1  0.5281700000000  0.5569150000000  0.5285090000000 1.0
C      1  0.5438570000000  0.4893260000000  0.4485800000000 1.0
C      1  0.4592430000000  0.5255660000000  0.4558600000000 1.0
C      1  0.5434630000000  0.5473990000000  0.4793960000000 1.0
C      1  0.4559290000000  0.5480060000000  0.5101540000000 1.0
C      1  0.5445090000000  0.5354960000000  0.5372820000000 1.0
C      1  0.4565650000000  0.5065110000000  0.5518410000000 1.0
C      1  0.5435770000000  0.4767210000000  0.5435230000000 1.0
C      1  0.4556000000000  0.4557530000000  0.5254960000000 1.0
C      1  0.5419280000000  0.4489380000000  0.4907380000000 1.0
C      1  0.4561170000000  0.4644900000000  0.4612270000000 1.0
C      1  0.5034750000000  0.5522360000000  0.4519920000000 1.0
C      1  0.4983500000000  0.5683710000000  0.5011940000000 1.0
C      1  0.4993470000000  0.5630240000000  0.5294580000000 1.0
C      1  0.4986880000000  0.5221370000000  0.5657930000000 1.0
C      1  0.5011260000000  0.4938550000000  0.5708730000000 1.0
C      1  0.4977180000000  0.4451010000000  0.5420830000000 1.0
C      1  0.4975130000000  0.4323610000000  0.5155910000000 1.0
C      1  0.4969500000000  0.4374570000000  0.4676880000000 1.0
C      1  0.5014260000000  0.4777400000000  0.4345240000000 1.0
C      1  0.5014990000000  0.5068980000000  0.4305560000000 1.0
C      1  0.4766390000000  0.4806990000000  0.4497080000000 1.0
C      1  0.5244440000000  0.5138550000000  0.4478310000000 1.0
C      1  0.4796570000000  0.5439640000000  0.4671050000000 1.0
C      1  0.5247940000000  0.5546670000000  0.4992010000000 1.0
C      1  0.4759960000000  0.5442970000000  0.5315390000000 1.0
C      1  0.5238430000000  0.5195790000000  0.5497010000000 1.0
C      1  0.4781140000000  0.4853260000000  0.5542800000000 1.0
C      1  0.5232400000000  0.4583570000000  0.5335380000000 1.0
C      1  0.4743510000000  0.4469240000000  0.5033000000000 1.0
C      1  0.5210470000000  0.4536680000000  0.4701540000000 1.0
C      1  0.4878920000000  0.4875160000000  0.4762340000000 1.0
C      1  0.5110850000000  0.5066440000000  0.4729510000000 1.0
C      1  0.4912600000000  0.5238090000000  0.4856750000000 1.0
C      1  0.5182870000000  0.5242620000000  0.4962390000000 1.0
C      1  0.4855840000000  0.5203870000000  0.5150270000000 1.0
C      1  0.5117760000000  0.5120890000000  0.5240700000000 1.0
C      1  0.4886730000000  0.4930620000000  0.5270730000000 1.0
C      1  0.5099770000000  0.4776270000000  0.5145960000000 1.0
C      1  0.4818750000000  0.4760370000000  0.5038740000000 1.0
C      1  0.5138650000000  0.4793490000000  0.4852970000000 1.0
C      1  0.5292120000000  0.4980940000000  0.5058710000000 1.0
C      1  0.4713840000000  0.5037630000000  0.4929930000000 1.0
C      1  0.5740580000000  0.5115650000000  0.4757940000000 1.0
C      1  0.4229590000000  0.4731520000000  0.4955570000000 1.0
END
