TITL C-149074-9431-5 -0.00675241039122794 125000 -185.829280885875 0 0 29 (C1) n - 1
REM
REM in /rds/project/t2_vol4/rds-t2-cs072/BORA/CARBON/from-Arr/AIRSS/Generating-Clusters/GAP-ML-2020/Higher-Symm/SD-CG/HFTN-CG
REM
REM
REM
REM
REM
REM ./C.cell (b20cbc046b6831c77cfcea5457e17084)
REM AIRSS Version 0.9.1 bugfix July 2018 build 013d7b7c2542+ Fri, 06 Jul 2018 19:26:36 +0100
REM compiler GCC version 9.3.0
REM options -cpp -mtune=generic -march=x86-64 -g -O0
REM seed 2058124133 -139240563 -176366175 170481302 -1258970254 -1333804699 547825609 -1203917673 1087689812 1555369000 -167561446 1460731764 1424952343 1560906976 -1622870585 661455111 -203945285 -111454160 1213539472 -1867246443 158764240 1735448860 -1648788023 -1373283089 197252738 -1196492153 1186219953 -245959297 1984916015 -1498840789 -813119214 -1176215281 -1451336435
REM
CELL 1.54180   50.00000   50.00000   50.00000   90.00000   90.00000   90.00000
LATT -1
SFAC C  
C      1  0.4799550000000  0.5355660000000  0.5396140000000 1.0
C      1  0.4594780000000  0.5281830000000  0.4845780000000 1.0
C      1  0.5659180000000  0.4895180000000  0.5576200000000 1.0
C      1  0.5236260000000  0.4724520000000  0.4444850000000 1.0
C      1  0.5380870000000  0.5076120000000  0.4613540000000 1.0
C      1  0.5243690000000  0.5267490000000  0.5095740000000 1.0
C      1  0.5029530000000  0.5517830000000  0.4733050000000 1.0
C      1  0.4855500000000  0.4453360000000  0.5417540000000 1.0
C      1  0.5159400000000  0.4519140000000  0.5072900000000 1.0
C      1  0.4771390000000  0.4868660000000  0.4733860000000 1.0
C      1  0.5373050000000  0.5008750000000  0.5146440000000 1.0
C      1  0.4951580000000  0.4835940000000  0.4953000000000 1.0
C      1  0.5375480000000  0.4778310000000  0.4685950000000 1.0
C      1  0.5238210000000  0.4768340000000  0.4952410000000 1.0
C      1  0.4442490000000  0.5246270000000  0.5097510000000 1.0
C      1  0.4994600000000  0.5237140000000  0.5242220000000 1.0
C      1  0.4905100000000  0.4965560000000  0.5197020000000 1.0
C      1  0.4308450000000  0.5013530000000  0.4958340000000 1.0
C      1  0.5515660000000  0.4960450000000  0.5372230000000 1.0
C      1  0.4836380000000  0.5325600000000  0.4697370000000 1.0
C      1  0.4691160000000  0.4899110000000  0.5357370000000 1.0
C      1  0.4895380000000  0.5065280000000  0.4564790000000 1.0
C      1  0.4578250000000  0.5185400000000  0.5347930000000 1.0
C      1  0.4519100000000  0.4983990000000  0.4797270000000 1.0
C      1  0.5270480000000  0.5432170000000  0.4849570000000 1.0
C      1  0.5144810000000  0.5000060000000  0.4448610000000 1.0
C      1  0.5054250000000  0.4367930000000  0.5250470000000 1.0
C      1  0.4698130000000  0.4649960000000  0.5474610000000 1.0
C      1  0.5477280000000  0.5316430000000  0.4677270000000 1.0
END
