TITL C-149055-9514-3 -21.1173196476266 125000 -398.531365025673 0 0 58 (C1) n - 1
REM
REM in /rds/project/t2_vol4/rds-t2-cs072/BORA/CARBON/from-Arr/AIRSS/Generating-Clusters/GAP-ML-2020/Higher-Symm/SD-CG/HFTN-CG
REM
REM
REM
REM
REM
REM ./C.cell (b20cbc046b6831c77cfcea5457e17084)
REM AIRSS Version 0.9.1 bugfix July 2018 build 013d7b7c2542+ Fri, 06 Jul 2018 19:26:36 +0100
REM compiler GCC version 9.3.0
REM options -cpp -mtune=generic -march=x86-64 -g -O0
REM seed -1610510432 -201248306 -386646389 -191921942 -1530056065 139242359 -520725324 286270971 -163877777 2089116339 340270812 -1474083411 2050573038 -159015417 598908146 2037177371 -2030091110 -2006775232 796243681 -194378428 1257849929 -1759547703 -2088731788 -1563823576 -1803269148 -1741388174 -1416569248 -1918300344 -1398984316 -140101248 -452215800 -1966036806 -1935327484
REM
CELL 1.54180   50.00000   50.00000   50.00000   90.00000   90.00000   90.00000
LATT -1
SFAC C  
C      1  0.5177310000000  0.5412470000000  0.4541300000000 1.0
C      1  0.4813750000000  0.5392880000000  0.5412630000000 1.0
C      1  0.5257410000000  0.4524340000000  0.4527060000000 1.0
C      1  0.4760760000000  0.4549260000000  0.5420560000000 1.0
C      1  0.4716610000000  0.5470480000000  0.4556770000000 1.0
C      1  0.5266820000000  0.5474000000000  0.5398310000000 1.0
C      1  0.4788170000000  0.4547330000000  0.4533280000000 1.0
C      1  0.5232430000000  0.4568100000000  0.5434970000000 1.0
C      1  0.4908610000000  0.5150060000000  0.5220730000000 1.0
C      1  0.5194030000000  0.5101290000000  0.4899870000000 1.0
C      1  0.4779880000000  0.4897390000000  0.5139240000000 1.0
C      1  0.5066970000000  0.4838450000000  0.4823810000000 1.0
C      1  0.5181780000000  0.5025620000000  0.5192360000000 1.0
C      1  0.4930450000000  0.5234360000000  0.4931860000000 1.0
C      1  0.5052110000000  0.4763660000000  0.5113320000000 1.0
C      1  0.4799260000000  0.4971060000000  0.4846940000000 1.0
C      1  0.4496400000000  0.5408410000000  0.4944370000000 1.0
C      1  0.5642460000000  0.5372190000000  0.5124790000000 1.0
C      1  0.4496210000000  0.4573040000000  0.4892680000000 1.0
C      1  0.5584650000000  0.4666350000000  0.5159830000000 1.0
C      1  0.5498380000000  0.5413490000000  0.4897570000000 1.0
C      1  0.4416510000000  0.5305830000000  0.5177720000000 1.0
C      1  0.5496630000000  0.4597710000000  0.4915000000000 1.0
C      1  0.4379890000000  0.4649690000000  0.5125400000000 1.0
C      1  0.4879350000000  0.4370700000000  0.4737360000000 1.0
C      1  0.5140410000000  0.4421190000000  0.5203780000000 1.0
C      1  0.4830840000000  0.5658950000000  0.4737490000000 1.0
C      1  0.5146970000000  0.5625810000000  0.5191670000000 1.0
C      1  0.5157310000000  0.4355370000000  0.4733490000000 1.0
C      1  0.4852920000000  0.4376300000000  0.5214860000000 1.0
C      1  0.5110600000000  0.5628430000000  0.4716460000000 1.0
C      1  0.4862640000000  0.5613670000000  0.5219280000000 1.0
C      1  0.5466270000000  0.4742560000000  0.5392990000000 1.0
C      1  0.4573460000000  0.4712420000000  0.4636410000000 1.0
C      1  0.5495160000000  0.5301790000000  0.5348940000000 1.0
C      1  0.4529540000000  0.5295260000000  0.4671110000000 1.0
C      1  0.4556900000000  0.4757430000000  0.5323800000000 1.0
C      1  0.5461310000000  0.4699470000000  0.4635800000000 1.0
C      1  0.4536160000000  0.5270040000000  0.5417580000000 1.0
C      1  0.5378600000000  0.5227530000000  0.4688360000000 1.0
C      1  0.5459990000000  0.4978780000000  0.4528160000000 1.0
C      1  0.4531150000000  0.4993940000000  0.5518310000000 1.0
C      1  0.4631190000000  0.5007480000000  0.4598720000000 1.0
C      1  0.5387650000000  0.5030890000000  0.5438980000000 1.0
C      1  0.5313350000000  0.4978240000000  0.4299940000000 1.0
C      1  0.4711570000000  0.4985920000000  0.5714930000000 1.0
C      1  0.4846320000000  0.5066470000000  0.4387100000000 1.0
C      1  0.5172440000000  0.5098230000000  0.5632340000000 1.0
C      1  0.4702070000000  0.5621860000000  0.4986950000000 1.0
C      1  0.4719970000000  0.4392510000000  0.4965880000000 1.0
C      1  0.5298960000000  0.4388370000000  0.4969280000000 1.0
C      1  0.5275370000000  0.5612050000000  0.4940470000000 1.0
C      1  0.4990370000000  0.4654150000000  0.5557220000000 1.0
C      1  0.4928590000000  0.5331440000000  0.4428090000000 1.0
C      1  0.5024740000000  0.4621300000000  0.4390120000000 1.0
C      1  0.5070450000000  0.5354740000000  0.5559770000000 1.0
C      1  0.4968990000000  0.4906900000000  0.5674080000000 1.0
C      1  0.5050890000000  0.4887600000000  0.4309950000000 1.0
END
