TITL C-149048-9490-3 0.0503295333017412 125000 -711.363147953321 0 0 104 (C1) n - 1
REM
REM in /rds/project/t2_vol4/rds-t2-cs072/BORA/CARBON/from-Arr/AIRSS/Generating-Clusters/GAP-ML-2020/Higher-Symm/SD-CG/HFTN-CG
REM
REM
REM
REM
REM
REM ./C.cell (b20cbc046b6831c77cfcea5457e17084)
REM AIRSS Version 0.9.1 bugfix July 2018 build 013d7b7c2542+ Fri, 06 Jul 2018 19:26:36 +0100
REM compiler GCC version 9.3.0
REM options -cpp -mtune=generic -march=x86-64 -g -O0
REM seed 575884909 1533386509 -1530999385 1844030720 653873512 -1794172920 1975366083 -219682570 -437816194 -80919784 1691003480 2006813616 228328541 -949709094 967159736 1004118726 -1920153261 372801132 1874154539 -718404943 -1092148609 -588394063 770083289 2033103897 1195434300 -800583250 -162172293 -1719344549 -2073431841 653645802 2070922331 1441692207 -1655932403
REM
CELL 1.54180   50.00000   50.00000   50.00000   90.00000   90.00000   90.00000
LATT -1
SFAC C  
C      1  0.4719190000000  0.4639010000000  0.5827810000000 1.0
C      1  0.4209760000000  0.4594670000000  0.4988100000000 1.0
C      1  0.4742660000000  0.4600940000000  0.4200210000000 1.0
C      1  0.5632500000000  0.4591800000000  0.4550660000000 1.0
C      1  0.5629850000000  0.4581160000000  0.5593220000000 1.0
C      1  0.5021170000000  0.4984760000000  0.5900910000000 1.0
C      1  0.4217590000000  0.4925880000000  0.5318140000000 1.0
C      1  0.4430470000000  0.4927550000000  0.4311560000000 1.0
C      1  0.5437950000000  0.4912400000000  0.4271270000000 1.0
C      1  0.5864790000000  0.4873500000000  0.5244280000000 1.0
C      1  0.4392030000000  0.4496250000000  0.5200110000000 1.0
C      1  0.4628310000000  0.4533390000000  0.4470390000000 1.0
C      1  0.5325570000000  0.4535960000000  0.4546860000000 1.0
C      1  0.5694320000000  0.4437330000000  0.5112850000000 1.0
C      1  0.4980030000000  0.4547690000000  0.5744120000000 1.0
C      1  0.5611770000000  0.5418920000000  0.4790140000000 1.0
C      1  0.5393390000000  0.5408260000000  0.5481400000000 1.0
C      1  0.4567820000000  0.5495550000000  0.5567870000000 1.0
C      1  0.4305360000000  0.5477620000000  0.4759910000000 1.0
C      1  0.4958950000000  0.5454990000000  0.4308660000000 1.0
C      1  0.5094440000000  0.4180030000000  0.5344710000000 1.0
C      1  0.4593750000000  0.4275080000000  0.5141530000000 1.0
C      1  0.4698010000000  0.4251420000000  0.4619030000000 1.0
C      1  0.5227920000000  0.4236740000000  0.4595770000000 1.0
C      1  0.5513600000000  0.4215040000000  0.5014410000000 1.0
C      1  0.5722280000000  0.5397850000000  0.5058020000000 1.0
C      1  0.5176570000000  0.5446760000000  0.5682410000000 1.0
C      1  0.4345870000000  0.5460030000000  0.5399480000000 1.0
C      1  0.4394250000000  0.5455740000000  0.4492200000000 1.0
C      1  0.5244580000000  0.5429700000000  0.4318840000000 1.0
C      1  0.5790350000000  0.4972700000000  0.4585800000000 1.0
C      1  0.5643840000000  0.4980350000000  0.5664600000000 1.0
C      1  0.4551720000000  0.5014440000000  0.5806520000000 1.0
C      1  0.4112230000000  0.4980550000000  0.4837340000000 1.0
C      1  0.4846980000000  0.4987670000000  0.4088150000000 1.0
C      1  0.5632950000000  0.5215910000000  0.5510790000000 1.0
C      1  0.4674620000000  0.5253620000000  0.5687570000000 1.0
C      1  0.4251630000000  0.5229460000000  0.4886250000000 1.0
C      1  0.4789440000000  0.5246960000000  0.4217980000000 1.0
C      1  0.5636630000000  0.5219490000000  0.4590080000000 1.0
C      1  0.4498370000000  0.5172930000000  0.5045730000000 1.0
C      1  0.4725660000000  0.5128540000000  0.4649660000000 1.0
C      1  0.5189480000000  0.5087690000000  0.4664790000000 1.0
C      1  0.5413440000000  0.4986640000000  0.5153880000000 1.0
C      1  0.4855210000000  0.5162380000000  0.5458030000000 1.0
C      1  0.5837660000000  0.4668880000000  0.5029290000000 1.0
C      1  0.5186840000000  0.4750500000000  0.5841190000000 1.0
C      1  0.4361370000000  0.4695110000000  0.5423630000000 1.0
C      1  0.4367330000000  0.4696390000000  0.4482940000000 1.0
C      1  0.5250110000000  0.4693160000000  0.4274220000000 1.0
C      1  0.5185230000000  0.5798850000000  0.5161000000000 1.0
C      1  0.4899900000000  0.5810700000000  0.5219990000000 1.0
C      1  0.4747410000000  0.5824050000000  0.4977310000000 1.0
C      1  0.4928270000000  0.5812060000000  0.4761400000000 1.0
C      1  0.5193880000000  0.5788540000000  0.4874580000000 1.0
C      1  0.5717970000000  0.5136710000000  0.5225110000000 1.0
C      1  0.4986830000000  0.5232680000000  0.5744280000000 1.0
C      1  0.4324810000000  0.5188850000000  0.5274940000000 1.0
C      1  0.4541450000000  0.5194180000000  0.4401770000000 1.0
C      1  0.5387640000000  0.5169640000000  0.4427900000000 1.0
C      1  0.4814260000000  0.5641590000000  0.5452760000000 1.0
C      1  0.4474580000000  0.5652070000000  0.4982070000000 1.0
C      1  0.4822600000000  0.5621570000000  0.4532850000000 1.0
C      1  0.5355130000000  0.5577960000000  0.4737300000000 1.0
C      1  0.5415750000000  0.5668910000000  0.5306900000000 1.0
C      1  0.5351560000000  0.5634660000000  0.4457160000000 1.0
C      1  0.5659340000000  0.5631890000000  0.5189780000000 1.0
C      1  0.5017610000000  0.5660370000000  0.5647830000000 1.0
C      1  0.4318530000000  0.5662450000000  0.5218040000000 1.0
C      1  0.4554890000000  0.5669870000000  0.4447730000000 1.0
C      1  0.5114300000000  0.5351450000000  0.4803040000000 1.0
C      1  0.5296790000000  0.5229190000000  0.5256580000000 1.0
C      1  0.4853690000000  0.5395650000000  0.5259910000000 1.0
C      1  0.4667490000000  0.5419790000000  0.5019330000000 1.0
C      1  0.4821230000000  0.5393180000000  0.4749100000000 1.0
C      1  0.4487100000000  0.4749480000000  0.5674830000000 1.0
C      1  0.4198700000000  0.4724410000000  0.4707030000000 1.0
C      1  0.5002870000000  0.4729230000000  0.4142100000000 1.0
C      1  0.5810140000000  0.4725140000000  0.4753700000000 1.0
C      1  0.5466660000000  0.4763290000000  0.5769870000000 1.0
C      1  0.4825430000000  0.4235610000000  0.5315120000000 1.0
C      1  0.4603910000000  0.4201180000000  0.4873320000000 1.0
C      1  0.4961520000000  0.4195400000000  0.4559260000000 1.0
C      1  0.5406120000000  0.4128160000000  0.4783080000000 1.0
C      1  0.5356340000000  0.4232040000000  0.5263390000000 1.0
C      1  0.4933770000000  0.4956460000000  0.4553250000000 1.0
C      1  0.5252390000000  0.4924970000000  0.4901900000000 1.0
C      1  0.5346070000000  0.4741590000000  0.5304660000000 1.0
C      1  0.4908080000000  0.4923280000000  0.5312330000000 1.0
C      1  0.4704670000000  0.4982860000000  0.4927780000000 1.0
C      1  0.5250840000000  0.4650310000000  0.4834970000000 1.0
C      1  0.5514490000000  0.4477690000000  0.5348040000000 1.0
C      1  0.4982070000000  0.4441190000000  0.5472710000000 1.0
C      1  0.4773100000000  0.4697370000000  0.4897960000000 1.0
C      1  0.4837900000000  0.4684900000000  0.4620720000000 1.0
C      1  0.5802150000000  0.4792730000000  0.5506170000000 1.0
C      1  0.4758380000000  0.4889530000000  0.5961100000000 1.0
C      1  0.4095040000000  0.4834780000000  0.5083600000000 1.0
C      1  0.4603540000000  0.4830260000000  0.4111660000000 1.0
C      1  0.5676970000000  0.4808110000000  0.4373620000000 1.0
C      1  0.5064080000000  0.4676520000000  0.5296270000000 1.0
C      1  0.5024480000000  0.4587490000000  0.5001530000000 1.0
C      1  0.5081150000000  0.5304930000000  0.5097800000000 1.0
C      1  0.4971800000000  0.5033110000000  0.5047210000000 1.0
END
