TITL C-149047-9415-4 139.500898390735 125000 -121.695197015225 0 0 19 (C2v) n - 1
REM
REM in /rds/project/t2_vol4/rds-t2-cs072/BORA/CARBON/from-Arr/AIRSS/Generating-Clusters/GAP-ML-2020/Higher-Symm/SD-CG/HFTN-CG
REM
REM
REM
REM
REM
REM ./C.cell (b20cbc046b6831c77cfcea5457e17084)
REM AIRSS Version 0.9.1 bugfix July 2018 build 013d7b7c2542+ Fri, 06 Jul 2018 19:26:36 +0100
REM compiler GCC version 9.3.0
REM options -cpp -mtune=generic -march=x86-64 -g -O0
REM seed -1662380598 2098871588 1127267728 454182320 -1437740272 -434901924 -348141146 2023672483 -473222257 -1195806370 1820050762 790156238 -203921742 423341395 410341877 1775449761 -915262173 -1305577903 -328805268 -2110940933 469547902 2028470348 -1466384804 -1606555277 -988714253 482203307 -647018086 -418098364 -1992108848 -1871759629 -1064141264 -1100359418 1781049669
REM
CELL 1.54180   50.00000   50.00000   50.00000   90.00000   90.00000   90.00000
LATT -1
SFAC C  
C      1  0.5357000000000  0.5060300000000  0.5187270000000 1.0
C      1  0.5213230000000  0.4846030000000  0.5268880000000 1.0
C      1  0.5139570000000  0.4608070000000  0.5156950000000 1.0
C      1  0.4847820000000  0.4567500000000  0.5127680000000 1.0
C      1  0.4639430000000  0.4777710000000  0.5128560000000 1.0
C      1  0.4714340000000  0.5015250000000  0.5240560000000 1.0
C      1  0.4739250000000  0.5269830000000  0.5152200000000 1.0
C      1  0.4985960000000  0.5418560000000  0.5172480000000 1.0
C      1  0.5250630000000  0.5328790000000  0.5187500000000 1.0
C      1  0.5006000000000  0.5428120000000  0.4876650000000 1.0
C      1  0.5270670000000  0.5338350000000  0.4891670000000 1.0
C      1  0.5377200000000  0.5069940000000  0.4888980000000 1.0
C      1  0.5246670000000  0.4861990000000  0.4775140000000 1.0
C      1  0.5159640000000  0.4617650000000  0.4860600000000 1.0
C      1  0.4866790000000  0.4576550000000  0.4847640000000 1.0
C      1  0.4659500000000  0.4787290000000  0.4832210000000 1.0
C      1  0.4747780000000  0.5031210000000  0.4746820000000 1.0
C      1  0.4759460000000  0.5279470000000  0.4853910000000 1.0
C      1  0.4994130000000  0.4979150000000  0.5010080000000 1.0
END
