TITL C-149054-9459-5 62.4556467509502 125000 -1099.07103009299 0 0 158 (C1) n - 1
REM
REM in /rds/project/t2_vol4/rds-t2-cs072/BORA/CARBON/from-Arr/AIRSS/Generating-Clusters/GAP-ML-2020/Higher-Symm/SD-CG/HFTN-CG
REM
REM
REM
REM
REM
REM ./C.cell (b20cbc046b6831c77cfcea5457e17084)
REM AIRSS Version 0.9.1 bugfix July 2018 build 013d7b7c2542+ Fri, 06 Jul 2018 19:26:36 +0100
REM compiler GCC version 9.3.0
REM options -cpp -mtune=generic -march=x86-64 -g -O0
REM seed 2137873703 370037559 801231717 -810523969 -1516462275 1965259138 1061166854 -1302686437 -915756970 492976169 53860649 1301235218 -950185988 -1086754357 489259302 -559133855 1108759840 1234735139 -541129440 -1091489258 -1816668978 405215919 103208258 -1981993397 339044570 1507360383 -2049355995 -364358319 1545796702 655352270 -366548212 -1542452593 821332424
REM
CELL 1.54180   50.00000   50.00000   50.00000   90.00000   90.00000   90.00000
LATT -1
SFAC C  
C      1  0.4502500000000  0.4904980000000  0.5279350000000 1.0
C      1  0.4503660000000  0.4701460000000  0.5013480000000 1.0
C      1  0.4501880000000  0.4901090000000  0.4724170000000 1.0
C      1  0.4504300000000  0.5235140000000  0.4824990000000 1.0
C      1  0.4504800000000  0.5242670000000  0.5161670000000 1.0
C      1  0.5094820000000  0.6008440000000  0.4610190000000 1.0
C      1  0.5093730000000  0.5678000000000  0.5840840000000 1.0
C      1  0.5090360000000  0.4408410000000  0.5910760000000 1.0
C      1  0.5089990000000  0.3948410000000  0.4725190000000 1.0
C      1  0.5091370000000  0.4935440000000  0.3924180000000 1.0
C      1  0.4900160000000  0.5371190000000  0.5481520000000 1.0
C      1  0.4887870000000  0.4649900000000  0.5509180000000 1.0
C      1  0.4889280000000  0.4404320000000  0.4831170000000 1.0
C      1  0.4888280000000  0.4975560000000  0.4387300000000 1.0
C      1  0.4894400000000  0.5572970000000  0.4792910000000 1.0
C      1  0.5592680000000  0.5617020000000  0.4417000000000 1.0
C      1  0.5595590000000  0.5750170000000  0.5410160000000 1.0
C      1  0.5593310000000  0.4839660000000  0.5844100000000 1.0
C      1  0.5593530000000  0.4144370000000  0.5114270000000 1.0
C      1  0.5593390000000  0.4625840000000  0.4230870000000 1.0
C      1  0.4113590000000  0.5475510000000  0.5018450000000 1.0
C      1  0.4115960000000  0.5128380000000  0.5458820000000 1.0
C      1  0.4111040000000  0.4599570000000  0.5267510000000 1.0
C      1  0.4113310000000  0.4621560000000  0.4707220000000 1.0
C      1  0.4113060000000  0.5161380000000  0.4552960000000 1.0
C      1  0.5825440000000  0.5363980000000  0.5308820000000 1.0
C      1  0.5824130000000  0.4814740000000  0.5442530000000 1.0
C      1  0.5826570000000  0.4518880000000  0.4965100000000 1.0
C      1  0.5823270000000  0.4884410000000  0.4540120000000 1.0
C      1  0.5833410000000  0.5414000000000  0.4750940000000 1.0
C      1  0.4979090000000  0.4650040000000  0.3968330000000 1.0
C      1  0.4982190000000  0.5873630000000  0.4353430000000 1.0
C      1  0.4981880000000  0.5880980000000  0.5637480000000 1.0
C      1  0.4978610000000  0.4666120000000  0.6041030000000 1.0
C      1  0.4978560000000  0.3904390000000  0.5010300000000 1.0
C      1  0.5298850000000  0.4289860000000  0.4464980000000 1.0
C      1  0.5298170000000  0.5287120000000  0.4176760000000 1.0
C      1  0.5301090000000  0.5897140000000  0.5024490000000 1.0
C      1  0.5300970000000  0.5247900000000  0.5849130000000 1.0
C      1  0.5298810000000  0.4267280000000  0.5504440000000 1.0
C      1  0.4071040000000  0.4359640000000  0.5381840000000 1.0
C      1  0.4072960000000  0.4438100000000  0.4514630000000 1.0
C      1  0.4073990000000  0.5285490000000  0.4317720000000 1.0
C      1  0.4074680000000  0.5736710000000  0.5068240000000 1.0
C      1  0.4078870000000  0.5167390000000  0.5722400000000 1.0
C      1  0.4249280000000  0.4833300000000  0.5430150000000 1.0
C      1  0.4249430000000  0.4537820000000  0.4979980000000 1.0
C      1  0.4249050000000  0.4876170000000  0.4558480000000 1.0
C      1  0.4249930000000  0.5381970000000  0.4749020000000 1.0
C      1  0.4251510000000  0.5355670000000  0.5286840000000 1.0
C      1  0.5661720000000  0.5083590000000  0.4395260000000 1.0
C      1  0.5670620000000  0.5619530000000  0.4894420000000 1.0
C      1  0.5664810000000  0.5285430000000  0.5544990000000 1.0
C      1  0.5662780000000  0.4567020000000  0.5443270000000 1.0
C      1  0.5663920000000  0.4440820000000  0.4730400000000 1.0
C      1  0.5978520000000  0.4904060000000  0.5224770000000 1.0
C      1  0.5979580000000  0.4756140000000  0.4981240000000 1.0
C      1  0.5977640000000  0.4945000000000  0.4766960000000 1.0
C      1  0.5982650000000  0.5209750000000  0.4876010000000 1.0
C      1  0.5980430000000  0.5182990000000  0.5160160000000 1.0
C      1  0.5579050000000  0.5791440000000  0.4651170000000 1.0
C      1  0.5576710000000  0.5573710000000  0.5642040000000 1.0
C      1  0.5575260000000  0.4563700000000  0.5751480000000 1.0
C      1  0.5575400000000  0.4147090000000  0.4823120000000 1.0
C      1  0.5574950000000  0.4904190000000  0.4145150000000 1.0
C      1  0.5354530000000  0.5546630000000  0.5829480000000 1.0
C      1  0.5352810000000  0.4377650000000  0.5783720000000 1.0
C      1  0.5352540000000  0.4058940000000  0.4656770000000 1.0
C      1  0.5351980000000  0.5035240000000  0.4011260000000 1.0
C      1  0.5357640000000  0.5968580000000  0.4730970000000 1.0
C      1  0.5111630000000  0.4436250000000  0.4117830000000 1.0
C      1  0.5112790000000  0.5662720000000  0.4198080000000 1.0
C      1  0.5112840000000  0.5967950000000  0.5391250000000 1.0
C      1  0.5110790000000  0.4927100000000  0.6044920000000 1.0
C      1  0.5111140000000  0.3981500000000  0.5259840000000 1.0
C      1  0.4895770000000  0.5141880000000  0.3957960000000 1.0
C      1  0.4895730000000  0.6037740000000  0.4815080000000 1.0
C      1  0.4897020000000  0.5491250000000  0.5932720000000 1.0
C      1  0.4894410000000  0.4261710000000  0.5761590000000 1.0
C      1  0.4894010000000  0.4044400000000  0.4539160000000 1.0
C      1  0.4800190000000  0.5274370000000  0.4385820000000 1.0
C      1  0.4803570000000  0.5670840000000  0.5074790000000 1.0
C      1  0.4804120000000  0.5133710000000  0.5657800000000 1.0
C      1  0.4800220000000  0.4407240000000  0.5336350000000 1.0
C      1  0.4799180000000  0.4494450000000  0.4547170000000 1.0
C      1  0.4708210000000  0.3927420000000  0.5026230000000 1.0
C      1  0.4708470000000  0.4641790000000  0.3992570000000 1.0
C      1  0.4712470000000  0.5843430000000  0.4354340000000 1.0
C      1  0.4712240000000  0.5872170000000  0.5606860000000 1.0
C      1  0.4708140000000  0.4687730000000  0.6025630000000 1.0
C      1  0.5235850000000  0.4589720000000  0.5102760000000 1.0
C      1  0.5228390000000  0.4766570000000  0.4643220000000 1.0
C      1  0.5255750000000  0.5256590000000  0.4703830000000 1.0
C      1  0.5254750000000  0.5371770000000  0.5141110000000 1.0
C      1  0.5232120000000  0.4964370000000  0.5424350000000 1.0
C      1  0.4516420000000  0.4821400000000  0.4071540000000 1.0
C      1  0.4517670000000  0.5826280000000  0.4546670000000 1.0
C      1  0.4519350000000  0.5683060000000  0.5649390000000 1.0
C      1  0.4515460000000  0.4590130000000  0.5856350000000 1.0
C      1  0.4515100000000  0.4056240000000  0.4880140000000 1.0
C      1  0.4767020000000  0.4804730000000  0.4595060000000 1.0
C      1  0.4772130000000  0.5325160000000  0.4693550000000 1.0
C      1  0.4773380000000  0.5392360000000  0.5217290000000 1.0
C      1  0.4769560000000  0.4909980000000  0.5438750000000 1.0
C      1  0.4770430000000  0.4549280000000  0.5057560000000 1.0
C      1  0.5180670000000  0.4411770000000  0.4895320000000 1.0
C      1  0.5179490000000  0.4914460000000  0.4413880000000 1.0
C      1  0.5181950000000  0.5539170000000  0.4746460000000 1.0
C      1  0.5192940000000  0.5391750000000  0.5422080000000 1.0
C      1  0.5178030000000  0.4711290000000  0.5524770000000 1.0
C      1  0.4618270000000  0.5093150000000  0.4019170000000 1.0
C      1  0.4619300000000  0.5961460000000  0.4788120000000 1.0
C      1  0.4620740000000  0.5495320000000  0.5852030000000 1.0
C      1  0.4616810000000  0.4338200000000  0.5740220000000 1.0
C      1  0.4616450000000  0.4088840000000  0.4604810000000 1.0
C      1  0.5007160000000  0.5184980000000  0.5905220000000 1.0
C      1  0.5005680000000  0.4193150000000  0.5461930000000 1.0
C      1  0.5005630000000  0.4307460000000  0.4380400000000 1.0
C      1  0.5006910000000  0.5372790000000  0.4161670000000 1.0
C      1  0.5006150000000  0.5920970000000  0.5102320000000 1.0
C      1  0.4558980000000  0.4334760000000  0.4470290000000 1.0
C      1  0.4560180000000  0.5298150000000  0.4210220000000 1.0
C      1  0.4562310000000  0.5842280000000  0.5042100000000 1.0
C      1  0.4564330000000  0.5218060000000  0.5814990000000 1.0
C      1  0.4558710000000  0.4285700000000  0.5464810000000 1.0
C      1  0.4321060000000  0.4229260000000  0.5314510000000 1.0
C      1  0.4321980000000  0.4461880000000  0.4369890000000 1.0
C      1  0.4322780000000  0.5432270000000  0.4297140000000 1.0
C      1  0.4325690000000  0.5800670000000  0.5198150000000 1.0
C      1  0.4326270000000  0.5058320000000  0.5824710000000 1.0
C      1  0.4995140000000  0.5227930000000  0.5098670000000 1.0
C      1  0.5000260000000  0.4975570000000  0.5248650000000 1.0
C      1  0.5001490000000  0.4753690000000  0.5058470000000 1.0
C      1  0.4996190000000  0.4864430000000  0.4788070000000 1.0
C      1  0.4993560000000  0.5157520000000  0.4810140000000 1.0
C      1  0.5385080000000  0.4057420000000  0.5302850000000 1.0
C      1  0.5385330000000  0.4418440000000  0.4203580000000 1.0
C      1  0.5385730000000  0.5574120000000  0.4213000000000 1.0
C      1  0.5387000000000  0.5934340000000  0.5312050000000 1.0
C      1  0.5385000000000  0.4990690000000  0.5987350000000 1.0
C      1  0.5351510000000  0.5609410000000  0.4974070000000 1.0
C      1  0.5355870000000  0.5194910000000  0.5551140000000 1.0
C      1  0.5349420000000  0.4540700000000  0.5366130000000 1.0
C      1  0.5349340000000  0.4506010000000  0.4680620000000 1.0
C      1  0.5352940000000  0.5143550000000  0.4444030000000 1.0
C      1  0.5739370000000  0.4997690000000  0.5644070000000 1.0
C      1  0.5739220000000  0.4384820000000  0.5201380000000 1.0
C      1  0.5739410000000  0.4615930000000  0.4484220000000 1.0
C      1  0.5741910000000  0.5377140000000  0.4482790000000 1.0
C      1  0.5743620000000  0.5614970000000  0.5199110000000 1.0
C      1  0.4340850000000  0.4238400000000  0.5026910000000 1.0
C      1  0.4341720000000  0.4738210000000  0.4289570000000 1.0
C      1  0.4342330000000  0.5594210000000  0.4534630000000 1.0
C      1  0.4344950000000  0.5623620000000  0.5424300000000 1.0
C      1  0.4342340000000  0.4787110000000  0.5728630000000 1.0
C      1  0.4452850000000  0.4996870000000  0.5000390000000 1.0
C      1  0.5528130000000  0.4961180000000  0.5011590000000 1.0
C      1  0.5410600000000  0.5181660000000  0.4953550000000 1.0
END
