TITL C-148552-4710-3 -0.00276079083338363 125000 -22.9478494863967 0 0 4 (D(inf)h) n - 1
REM
REM in /rds/project/t2_vol4/rds-t2-cs072/BORA/CARBON/from-Arr/AIRSS/Generating-Clusters/GAP-ML-2020/Higher-Symm/SD-CG/HFTN-CG
REM
REM
REM
REM
REM
REM ./C.cell (b20cbc046b6831c77cfcea5457e17084)
REM AIRSS Version 0.9.1 bugfix July 2018 build 013d7b7c2542+ Fri, 06 Jul 2018 19:26:36 +0100
REM compiler GCC version 9.3.0
REM options -cpp -mtune=generic -march=x86-64 -g -O0
REM seed 764877715 -444109091 1748280399 1536802770 -1774141016 -1137874269 1966761591 1173155732 -1887986922 1510722845 1951533403 1943776062 1596891706 1990249203 -933324880 -1401493385 -1562561281 -964061786 -71149181 -664047599 240806877 1541906154 -690029462 2019410043 157584110 2051587304 1472689659 -492958278 -15354625 -164246303 -1360375938 -1639255578 781380576
REM
CELL 1.54180   50.00000   50.00000   50.00000   90.00000   90.00000   90.00000
LATT -1
SFAC C  
C      1  0.4863780000000  0.5193330000000  0.4640210000000 1.0
C      1  0.4875640000000  0.5087450000000  0.4870750000000 1.0
C      1  0.4900060000000  0.4869280000000  0.5345760000000 1.0
C      1  0.4888210000000  0.4975160000000  0.5115220000000 1.0
END
