TITL C-149070-9434-6 -0.019916280773645 125000 -148.751280400662 0 0 23 (D2) n - 1
REM
REM in /rds/project/t2_vol4/rds-t2-cs072/BORA/CARBON/from-Arr/AIRSS/Generating-Clusters/GAP-ML-2020/Higher-Symm/SD-CG/HFTN-CG
REM
REM
REM
REM
REM
REM ./C.cell (b20cbc046b6831c77cfcea5457e17084)
REM AIRSS Version 0.9.1 bugfix July 2018 build 013d7b7c2542+ Fri, 06 Jul 2018 19:26:36 +0100
REM compiler GCC version 9.3.0
REM options -cpp -mtune=generic -march=x86-64 -g -O0
REM seed 2069731484 227827300 891823521 -1382062775 -334938198 -1781758707 -223219516 1433239951 -1864781741 1449322407 -1241398483 -841854955 -830825411 1204870821 1768461092 -2004480008 -40278576 -271437506 717038283 904182662 831508388 1703548228 2119179687 -660937698 1435803152 -79742090 -2042471839 -473944421 958473322 -456614828 -473922565 -570551581 1280856605
REM
CELL 1.54180   50.00000   50.00000   50.00000   90.00000   90.00000   90.00000
LATT -1
SFAC C  
C      1  0.5245140000000  0.4771090000000  0.4883220000000 1.0
C      1  0.4780770000000  0.4771020000000  0.5135280000000 1.0
C      1  0.5245170000000  0.5243460000000  0.5135390000000 1.0
C      1  0.4780770000000  0.5243550000000  0.4883390000000 1.0
C      1  0.4773760000000  0.4705600000000  0.4842340000000 1.0
C      1  0.5252150000000  0.4705490000000  0.5176120000000 1.0
C      1  0.4773790000000  0.5308970000000  0.5176330000000 1.0
C      1  0.5252150000000  0.5309060000000  0.4842500000000 1.0
C      1  0.5007540000000  0.5255170000000  0.4703030000000 1.0
C      1  0.5018390000000  0.5254990000000  0.5315760000000 1.0
C      1  0.5007570000000  0.4759390000000  0.5315610000000 1.0
C      1  0.5018350000000  0.4759570000000  0.4702880000000 1.0
C      1  0.5456050000000  0.5039920000000  0.5152720000000 1.0
C      1  0.4569880000000  0.5040030000000  0.4865940000000 1.0
C      1  0.5456030000000  0.4974620000000  0.4865870000000 1.0
C      1  0.4569900000000  0.4974550000000  0.5152750000000 1.0
C      1  0.5486590000000  0.5208970000000  0.4735400000000 1.0
C      1  0.4539350000000  0.5208830000000  0.5283360000000 1.0
C      1  0.5486610000000  0.4805560000000  0.5283190000000 1.0
C      1  0.4539310000000  0.4805760000000  0.4735330000000 1.0
C      1  0.5012940000000  0.5007420000000  0.4562640000000 1.0
C      1  0.5012990000000  0.5007140000000  0.5456000000000 1.0
C      1  0.5012960000000  0.5007280000000  0.5009320000000 1.0
END
