TITL C-140568-2874-1 24.6193269539085 125000 -741.055416593334 0 0 110 (Ci) n - 1
REM
REM in /rds/project/t2_vol4/rds-t2-cs072/BORA/CARBON/from-Arr/AIRSS/Generating-Clusters/GAP-ML-2020/Higher-Symm/SD-CG/HFTN-CG
REM
REM
REM
REM
REM
REM ./C.cell (b20cbc046b6831c77cfcea5457e17084)
REM AIRSS Version 0.9.1 bugfix July 2018 build 013d7b7c2542+ Fri, 06 Jul 2018 19:26:36 +0100
REM compiler GCC version 9.3.0
REM options -cpp -mtune=generic -march=x86-64 -g -O0
REM seed -261227912 984161375 -512231454 459559949 -1079883275 1076792129 -2097553948 -315893865 -1650163841 1512650544 840059310 -2144197834 338971299 523480221 -1871103031 -775822168 365914413 117899131 -493840634 -64492211 -254447909 1229169875 -1539059359 -1544752767 1247454714 -1066412185 -152246680 898915607 -696616696 -545652009 915177550 1834601518 -318199796
REM
CELL 1.54180   50.00000   50.00000   50.00000   90.00000   90.00000   90.00000
LATT -1
SFAC C  
C      1  0.5315790000000  0.4918310000000  0.4582210000000 1.0
C      1  0.4684210000000  0.5081690000000  0.5417790000000 1.0
C      1  0.5424890000000  0.4841480000000  0.5798980000000 1.0
C      1  0.4575110000000  0.5158520000000  0.4201020000000 1.0
C      1  0.4817050000000  0.4148710000000  0.4975240000000 1.0
C      1  0.5182950000000  0.5851290000000  0.5024760000000 1.0
C      1  0.5104600000000  0.4221420000000  0.4905400000000 1.0
C      1  0.4895400000000  0.5778580000000  0.5094600000000 1.0
C      1  0.5352020000000  0.5050700000000  0.5098760000000 1.0
C      1  0.4647980000000  0.4949300000000  0.4901240000000 1.0
C      1  0.4752570000000  0.4489620000000  0.5690040000000 1.0
C      1  0.5247430000000  0.5510380000000  0.4309960000000 1.0
C      1  0.4343360000000  0.5670380000000  0.5379240000000 1.0
C      1  0.5656640000000  0.4329620000000  0.4620760000000 1.0
C      1  0.4209990000000  0.5508410000000  0.5097720000000 1.0
C      1  0.5790010000000  0.4491590000000  0.4902280000000 1.0
C      1  0.5059510000000  0.5569610000000  0.5524750000000 1.0
C      1  0.4940490000000  0.4430390000000  0.4475250000000 1.0
C      1  0.4875620000000  0.5064780000000  0.5004590000000 1.0
C      1  0.5124380000000  0.4935220000000  0.4995410000000 1.0
C      1  0.4347500000000  0.5010720000000  0.5030340000000 1.0
C      1  0.5652500000000  0.4989280000000  0.4969660000000 1.0
C      1  0.5132240000000  0.4677470000000  0.4884970000000 1.0
C      1  0.4867760000000  0.5322530000000  0.5115030000000 1.0
C      1  0.5387570000000  0.4673070000000  0.4765000000000 1.0
C      1  0.4612430000000  0.5326930000000  0.5235000000000 1.0
C      1  0.5620520000000  0.4251250000000  0.4898890000000 1.0
C      1  0.4379480000000  0.5748750000000  0.5101110000000 1.0
C      1  0.4690620000000  0.4668490000000  0.4870070000000 1.0
C      1  0.5309380000000  0.5331510000000  0.5129930000000 1.0
C      1  0.4689910000000  0.5609550000000  0.4732370000000 1.0
C      1  0.5310090000000  0.4390450000000  0.5267630000000 1.0
C      1  0.5726730000000  0.5063380000000  0.4701970000000 1.0
C      1  0.4273270000000  0.4936620000000  0.5298030000000 1.0
C      1  0.4899360000000  0.5430950000000  0.5764410000000 1.0
C      1  0.5100640000000  0.4569050000000  0.4235590000000 1.0
C      1  0.5204670000000  0.5426820000000  0.4852890000000 1.0
C      1  0.4795330000000  0.4573180000000  0.5147110000000 1.0
C      1  0.5148090000000  0.4280970000000  0.4613810000000 1.0
C      1  0.4851910000000  0.5719030000000  0.5386190000000 1.0
C      1  0.4221480000000  0.4829760000000  0.4840480000000 1.0
C      1  0.5778520000000  0.5170240000000  0.5159520000000 1.0
C      1  0.5777900000000  0.5053080000000  0.5410540000000 1.0
C      1  0.4222100000000  0.4946920000000  0.4589460000000 1.0
C      1  0.5169230000000  0.4723290000000  0.5752080000000 1.0
C      1  0.4830770000000  0.5276710000000  0.4247920000000 1.0
C      1  0.5052810000000  0.4841660000000  0.4184440000000 1.0
C      1  0.4947190000000  0.5158340000000  0.5815560000000 1.0
C      1  0.5642400000000  0.5333730000000  0.4634020000000 1.0
C      1  0.4357600000000  0.4666270000000  0.5365980000000 1.0
C      1  0.4372470000000  0.4750050000000  0.4450360000000 1.0
C      1  0.5627530000000  0.5249950000000  0.5549640000000 1.0
C      1  0.5075800000000  0.5335130000000  0.4130360000000 1.0
C      1  0.4924200000000  0.4664870000000  0.5869640000000 1.0
C      1  0.4602990000000  0.5571710000000  0.5448760000000 1.0
C      1  0.5397010000000  0.4428290000000  0.4551240000000 1.0
C      1  0.5324380000000  0.5687890000000  0.4782590000000 1.0
C      1  0.4675620000000  0.4312110000000  0.5217410000000 1.0
C      1  0.5157490000000  0.5692810000000  0.4512940000000 1.0
C      1  0.4842510000000  0.4307190000000  0.5487060000000 1.0
C      1  0.4492830000000  0.5348480000000  0.4717780000000 1.0
C      1  0.5507170000000  0.4651520000000  0.5282220000000 1.0
C      1  0.4967910000000  0.5113090000000  0.5516990000000 1.0
C      1  0.5032090000000  0.4886910000000  0.4483010000000 1.0
C      1  0.4376240000000  0.4569730000000  0.4870030000000 1.0
C      1  0.5623760000000  0.5430270000000  0.5129970000000 1.0
C      1  0.5111790000000  0.4295550000000  0.5457010000000 1.0
C      1  0.4888210000000  0.5704450000000  0.4542990000000 1.0
C      1  0.5521390000000  0.4838030000000  0.4350650000000 1.0
C      1  0.4478610000000  0.5161970000000  0.5649350000000 1.0
C      1  0.4273600000000  0.5240750000000  0.4531640000000 1.0
C      1  0.5726410000000  0.4759250000000  0.5468360000000 1.0
C      1  0.5078660000000  0.5333690000000  0.5333590000000 1.0
C      1  0.4921340000000  0.4666310000000  0.4666410000000 1.0
C      1  0.4927070000000  0.5167680000000  0.4512710000000 1.0
C      1  0.5072930000000  0.4832320000000  0.5487290000000 1.0
C      1  0.5389560000000  0.4204070000000  0.5034790000000 1.0
C      1  0.4610440000000  0.5795930000000  0.4965210000000 1.0
C      1  0.5373240000000  0.4569730000000  0.4299880000000 1.0
C      1  0.4626760000000  0.5430270000000  0.5700120000000 1.0
C      1  0.4416340000000  0.4471140000000  0.5164940000000 1.0
C      1  0.5583660000000  0.5528860000000  0.4835060000000 1.0
C      1  0.4658790000000  0.4321500000000  0.4528350000000 1.0
C      1  0.5341210000000  0.5678500000000  0.5471650000000 1.0
C      1  0.5458090000000  0.5087740000000  0.4218870000000 1.0
C      1  0.4541910000000  0.4912260000000  0.5781130000000 1.0
C      1  0.5078520000000  0.4475720000000  0.5078100000000 1.0
C      1  0.4921480000000  0.5524280000000  0.4921900000000 1.0
C      1  0.5329930000000  0.4890190000000  0.5347890000000 1.0
C      1  0.4670070000000  0.5109810000000  0.4652110000000 1.0
C      1  0.4785830000000  0.4764690000000  0.5388860000000 1.0
C      1  0.5214170000000  0.5235310000000  0.4611140000000 1.0
C      1  0.5314020000000  0.5853990000000  0.5259120000000 1.0
C      1  0.4685980000000  0.4146010000000  0.4740880000000 1.0
C      1  0.4331230000000  0.5261600000000  0.4259420000000 1.0
C      1  0.5668770000000  0.4738400000000  0.5740580000000 1.0
C      1  0.5206220000000  0.5077040000000  0.4105360000000 1.0
C      1  0.4793780000000  0.4922960000000  0.5894640000000 1.0
C      1  0.5830540000000  0.4570330000000  0.4628710000000 1.0
C      1  0.4169460000000  0.5429670000000  0.5371290000000 1.0
C      1  0.5606740000000  0.4694450000000  0.5000040000000 1.0
C      1  0.4393260000000  0.5305550000000  0.4999960000000 1.0
C      1  0.5563980000000  0.5494400000000  0.5412300000000 1.0
C      1  0.4436020000000  0.4505600000000  0.4587700000000 1.0
C      1  0.4570500000000  0.4939160000000  0.4396170000000 1.0
C      1  0.5429500000000  0.5060840000000  0.5603830000000 1.0
C      1  0.4554030000000  0.4675170000000  0.5591710000000 1.0
C      1  0.5445970000000  0.5324830000000  0.4408290000000 1.0
C      1  0.5758440000000  0.4821960000000  0.4528050000000 1.0
C      1  0.4241560000000  0.5178040000000  0.5471950000000 1.0
END
