TITL C-148565-4819-12 -0.087736446292074 125000 -348.339067811848 0 0 53 (C1) n - 1
REM
REM in /rds/project/t2_vol4/rds-t2-cs072/BORA/CARBON/from-Arr/AIRSS/Generating-Clusters/GAP-ML-2020/Higher-Symm/SD-CG/HFTN-CG
REM
REM
REM
REM
REM
REM ./C.cell (b20cbc046b6831c77cfcea5457e17084)
REM AIRSS Version 0.9.1 bugfix July 2018 build 013d7b7c2542+ Fri, 06 Jul 2018 19:26:36 +0100
REM compiler GCC version 9.3.0
REM options -cpp -mtune=generic -march=x86-64 -g -O0
REM seed 1759304946 200306897 500695370 -1790540176 -1349033067 1287972991 698436327 -1006926340 2134297378 1983009319 -1437740639 -1417235531 464381184 -1721243415 1793565569 -338058430 -1186743506 -287953503 354101922 -1119032349 -1562615115 1311001782 -1601617693 1998675784 -1352785367 2091634901 1035931988 1776193787 1186211824 -662657556 -574548592 2034008397 -562588835
REM
CELL 1.54180   50.00000   50.00000   50.00000   90.00000   90.00000   90.00000
LATT -1
SFAC C  
C      1  0.4390210000000  0.5379540000000  0.5187940000000 1.0
C      1  0.5214660000000  0.4389150000000  0.5356420000000 1.0
C      1  0.5334660000000  0.5157260000000  0.4433180000000 1.0
C      1  0.4450150000000  0.4651010000000  0.4856550000000 1.0
C      1  0.5599810000000  0.4589470000000  0.5165510000000 1.0
C      1  0.5573560000000  0.5416140000000  0.4647910000000 1.0
C      1  0.5145360000000  0.5549640000000  0.4613860000000 1.0
C      1  0.4858480000000  0.5589050000000  0.5320000000000 1.0
C      1  0.4795830000000  0.4457330000000  0.4653060000000 1.0
C      1  0.5466380000000  0.4658760000000  0.5600030000000 1.0
C      1  0.4600410000000  0.4845070000000  0.4437710000000 1.0
C      1  0.4635140000000  0.5193390000000  0.5594740000000 1.0
C      1  0.4431510000000  0.5172970000000  0.5368240000000 1.0
C      1  0.5129140000000  0.5361220000000  0.4388870000000 1.0
C      1  0.5401700000000  0.4372870000000  0.5149860000000 1.0
C      1  0.4397410000000  0.4836400000000  0.4646660000000 1.0
C      1  0.5589550000000  0.5157230000000  0.4579670000000 1.0
C      1  0.5591070000000  0.4770460000000  0.5382940000000 1.0
C      1  0.5206090000000  0.4577730000000  0.5567270000000 1.0
C      1  0.4839740000000  0.5349840000000  0.5484690000000 1.0
C      1  0.4828700000000  0.4689780000000  0.4490040000000 1.0
C      1  0.5377150000000  0.5541180000000  0.4783060000000 1.0
C      1  0.4548880000000  0.4409520000000  0.4745960000000 1.0
C      1  0.4627850000000  0.5574210000000  0.5160050000000 1.0
C      1  0.4707540000000  0.5380750000000  0.4952490000000 1.0
C      1  0.5018170000000  0.4854620000000  0.5521350000000 1.0
C      1  0.5512440000000  0.4989890000000  0.4826600000000 1.0
C      1  0.4881110000000  0.4569890000000  0.5094660000000 1.0
C      1  0.5309860000000  0.4468520000000  0.4876750000000 1.0
C      1  0.5321670000000  0.5400510000000  0.5036870000000 1.0
C      1  0.4850280000000  0.5273790000000  0.4479190000000 1.0
C      1  0.5132050000000  0.5331710000000  0.5491840000000 1.0
C      1  0.5023200000000  0.4801560000000  0.4679960000000 1.0
C      1  0.5427480000000  0.4997070000000  0.5304890000000 1.0
C      1  0.4405360000000  0.5133180000000  0.4669910000000 1.0
C      1  0.4608340000000  0.4949350000000  0.5268320000000 1.0
C      1  0.4741230000000  0.4917360000000  0.5539040000000 1.0
C      1  0.4916120000000  0.5390370000000  0.4744120000000 1.0
C      1  0.5476660000000  0.4714960000000  0.4929210000000 1.0
C      1  0.4615170000000  0.5139570000000  0.4454570000000 1.0
C      1  0.5241410000000  0.5019190000000  0.4674370000000 1.0
C      1  0.5214590000000  0.5070900000000  0.5494840000000 1.0
C      1  0.5074040000000  0.4654610000000  0.5293100000000 1.0
C      1  0.5161040000000  0.5511550000000  0.5266510000000 1.0
C      1  0.5031260000000  0.4525480000000  0.4842110000000 1.0
C      1  0.5503800000000  0.5164020000000  0.5079700000000 1.0
C      1  0.4651550000000  0.4751630000000  0.5041930000000 1.0
C      1  0.4432070000000  0.5289130000000  0.4892830000000 1.0
C      1  0.5133190000000  0.5226640000000  0.4865090000000 1.0
C      1  0.4813160000000  0.5169920000000  0.5175050000000 1.0
C      1  0.5241220000000  0.4840520000000  0.5131390000000 1.0
C      1  0.4829740000000  0.4918210000000  0.4866520000000 1.0
C      1  0.5024370000000  0.5038020000000  0.5044540000000 1.0
END
