TITL C-149050-9429-8 -0.239482747506809 125000 -862.875976915122 0 0 127 (C1) n - 1
REM
REM in /rds/project/t2_vol4/rds-t2-cs072/BORA/CARBON/from-Arr/AIRSS/Generating-Clusters/GAP-ML-2020/Higher-Symm/SD-CG/HFTN-CG
REM
REM
REM
REM
REM
REM ./C.cell (b20cbc046b6831c77cfcea5457e17084)
REM AIRSS Version 0.9.1 bugfix July 2018 build 013d7b7c2542+ Fri, 06 Jul 2018 19:26:36 +0100
REM compiler GCC version 9.3.0
REM options -cpp -mtune=generic -march=x86-64 -g -O0
REM seed 1894470097 -490102310 1200013599 -1538778617 -431844650 -1236267815 -24071880 1204185796 -1392870862 1585079733 934516313 198702947 -1930218337 -2020913301 -2097037293 580525917 -248475908 -417882186 663345700 -294513170 537840922 -1652366415 1886047988 -2096187572 191004523 -917726367 2077004896 -1969714106 1067140916 -1295262695 -1785419335 1599173766 732348601
REM
CELL 1.54180   50.00000   50.00000   50.00000   90.00000   90.00000   90.00000
LATT -1
SFAC C  
C      1  0.5217770000000  0.5471490000000  0.4618780000000 1.0
C      1  0.4795470000000  0.5582580000000  0.5526740000000 1.0
C      1  0.4822410000000  0.4446070000000  0.4455080000000 1.0
C      1  0.5305060000000  0.4375800000000  0.5604350000000 1.0
C      1  0.4299260000000  0.5571780000000  0.5181510000000 1.0
C      1  0.5484460000000  0.5530010000000  0.4646490000000 1.0
C      1  0.4520530000000  0.4500760000000  0.4819620000000 1.0
C      1  0.5499600000000  0.4376150000000  0.5395750000000 1.0
C      1  0.5207930000000  0.5664010000000  0.5298130000000 1.0
C      1  0.5077850000000  0.5510710000000  0.4865590000000 1.0
C      1  0.5094300000000  0.4530090000000  0.5201250000000 1.0
C      1  0.4802090000000  0.4582790000000  0.4732720000000 1.0
C      1  0.5294060000000  0.5626100000000  0.5039320000000 1.0
C      1  0.4908870000000  0.5253380000000  0.5015020000000 1.0
C      1  0.5402080000000  0.4454110000000  0.5130390000000 1.0
C      1  0.4926070000000  0.4405100000000  0.4972620000000 1.0
C      1  0.4275490000000  0.4931430000000  0.4865040000000 1.0
C      1  0.5678000000000  0.4932630000000  0.5141940000000 1.0
C      1  0.5757420000000  0.5128750000000  0.4927540000000 1.0
C      1  0.4226010000000  0.5092230000000  0.5118530000000 1.0
C      1  0.4843400000000  0.4937600000000  0.4280650000000 1.0
C      1  0.5146970000000  0.4935830000000  0.5676260000000 1.0
C      1  0.4895210000000  0.5109440000000  0.5681090000000 1.0
C      1  0.5123380000000  0.5071210000000  0.4321690000000 1.0
C      1  0.5760770000000  0.5190640000000  0.4416030000000 1.0
C      1  0.4215610000000  0.5240340000000  0.5559100000000 1.0
C      1  0.4227580000000  0.4754360000000  0.4447460000000 1.0
C      1  0.5786230000000  0.4794850000000  0.5593900000000 1.0
C      1  0.4447080000000  0.5245340000000  0.5741560000000 1.0
C      1  0.5587760000000  0.5169290000000  0.4170670000000 1.0
C      1  0.4428860000000  0.4765360000000  0.4233250000000 1.0
C      1  0.5582810000000  0.4812350000000  0.5807400000000 1.0
C      1  0.5415730000000  0.5033250000000  0.5206170000000 1.0
C      1  0.4503820000000  0.5112290000000  0.4770990000000 1.0
C      1  0.4533550000000  0.4994550000000  0.5244950000000 1.0
C      1  0.5407410000000  0.4900440000000  0.4720390000000 1.0
C      1  0.5226150000000  0.4950610000000  0.5394240000000 1.0
C      1  0.4735800000000  0.5066020000000  0.4562110000000 1.0
C      1  0.5190020000000  0.4868110000000  0.4531740000000 1.0
C      1  0.4769540000000  0.4937100000000  0.5440310000000 1.0
C      1  0.5363600000000  0.4301830000000  0.4874160000000 1.0
C      1  0.4648060000000  0.4357630000000  0.5055200000000 1.0
C      1  0.4484410000000  0.5703440000000  0.5010230000000 1.0
C      1  0.5547560000000  0.5586800000000  0.4915640000000 1.0
C      1  0.5039220000000  0.4434820000000  0.5487970000000 1.0
C      1  0.5062340000000  0.4273270000000  0.4526430000000 1.0
C      1  0.4867490000000  0.5695400000000  0.4798260000000 1.0
C      1  0.4913620000000  0.5703470000000  0.5299620000000 1.0
C      1  0.4857240000000  0.4582290000000  0.3958600000000 1.0
C      1  0.5067110000000  0.4567190000000  0.5994410000000 1.0
C      1  0.5245210000000  0.5492240000000  0.4145400000000 1.0
C      1  0.4890760000000  0.5487480000000  0.5989650000000 1.0
C      1  0.4055480000000  0.4527200000000  0.4935590000000 1.0
C      1  0.5912820000000  0.4525720000000  0.5075840000000 1.0
C      1  0.3867450000000  0.5364650000000  0.5007620000000 1.0
C      1  0.6057840000000  0.5453260000000  0.4911090000000 1.0
C      1  0.4688570000000  0.5262570000000  0.4119450000000 1.0
C      1  0.5301370000000  0.5258270000000  0.5950790000000 1.0
C      1  0.5263330000000  0.4784500000000  0.4024890000000 1.0
C      1  0.4678730000000  0.4807340000000  0.5931320000000 1.0
C      1  0.4029280000000  0.5223200000000  0.4616310000000 1.0
C      1  0.6023380000000  0.5200270000000  0.5317630000000 1.0
C      1  0.4086110000000  0.4791120000000  0.5319910000000 1.0
C      1  0.5902120000000  0.4781450000000  0.4689650000000 1.0
C      1  0.3807130000000  0.5343640000000  0.4726950000000 1.0
C      1  0.6169270000000  0.5236790000000  0.5062310000000 1.0
C      1  0.6056490000000  0.4705140000000  0.4909560000000 1.0
C      1  0.3921430000000  0.4689980000000  0.5113440000000 1.0
C      1  0.4887570000000  0.5304020000000  0.3936730000000 1.0
C      1  0.5063800000000  0.5299720000000  0.6109960000000 1.0
C      1  0.4894740000000  0.4753040000000  0.6114140000000 1.0
C      1  0.5037470000000  0.4770370000000  0.3852950000000 1.0
C      1  0.5655750000000  0.5461760000000  0.4435700000000 1.0
C      1  0.4302230000000  0.5499140000000  0.5446880000000 1.0
C      1  0.4364560000000  0.4520160000000  0.4557870000000 1.0
C      1  0.5700110000000  0.4521080000000  0.5543660000000 1.0
C      1  0.4537830000000  0.5496910000000  0.5609790000000 1.0
C      1  0.5516220000000  0.5452580000000  0.4183250000000 1.0
C      1  0.4546910000000  0.4513850000000  0.4338270000000 1.0
C      1  0.5500100000000  0.4536420000000  0.5762130000000 1.0
C      1  0.4735010000000  0.4693830000000  0.5659200000000 1.0
C      1  0.5219160000000  0.4640190000000  0.4294690000000 1.0
C      1  0.5254890000000  0.5439840000000  0.5727760000000 1.0
C      1  0.4778260000000  0.5359840000000  0.4418770000000 1.0
C      1  0.5621820000000  0.4671880000000  0.4735930000000 1.0
C      1  0.4384100000000  0.4702190000000  0.5252250000000 1.0
C      1  0.5833010000000  0.5420790000000  0.5315210000000 1.0
C      1  0.4290190000000  0.5356460000000  0.4737700000000 1.0
C      1  0.6141970000000  0.5234770000000  0.4768770000000 1.0
C      1  0.3811840000000  0.5249750000000  0.5246660000000 1.0
C      1  0.3899990000000  0.4718540000000  0.4820680000000 1.0
C      1  0.6072810000000  0.4723140000000  0.5187130000000 1.0
C      1  0.4771930000000  0.5276000000000  0.6106120000000 1.0
C      1  0.5155520000000  0.5302210000000  0.3950210000000 1.0
C      1  0.4741940000000  0.4808740000000  0.3863290000000 1.0
C      1  0.5180330000000  0.4792070000000  0.6108710000000 1.0
C      1  0.5912390000000  0.4929240000000  0.5358320000000 1.0
C      1  0.4075840000000  0.4919240000000  0.4639900000000 1.0
C      1  0.4052010000000  0.5080130000000  0.5374430000000 1.0
C      1  0.5905550000000  0.5068430000000  0.4642420000000 1.0
C      1  0.5351940000000  0.4969990000000  0.5905620000000 1.0
C      1  0.4609480000000  0.4967910000000  0.4090100000000 1.0
C      1  0.5326240000000  0.5054900000000  0.4085790000000 1.0
C      1  0.4642960000000  0.5092830000000  0.5891470000000 1.0
C      1  0.4960610000000  0.5417860000000  0.5692890000000 1.0
C      1  0.5086980000000  0.5365870000000  0.4390550000000 1.0
C      1  0.5035460000000  0.4649810000000  0.5701320000000 1.0
C      1  0.4921740000000  0.4625010000000  0.4253930000000 1.0
C      1  0.5778670000000  0.5444360000000  0.5022830000000 1.0
C      1  0.4181350000000  0.5368590000000  0.5017150000000 1.0
C      1  0.5633380000000  0.4636310000000  0.5039060000000 1.0
C      1  0.4333970000000  0.4657460000000  0.4961220000000 1.0
C      1  0.4559520000000  0.4454580000000  0.5305350000000 1.0
C      1  0.5490080000000  0.4415250000000  0.4647850000000 1.0
C      1  0.5664180000000  0.5519320000000  0.5497990000000 1.0
C      1  0.4442810000000  0.5605240000000  0.4729410000000 1.0
C      1  0.5302310000000  0.4396260000000  0.4428840000000 1.0
C      1  0.4731090000000  0.4437210000000  0.5518880000000 1.0
C      1  0.5394500000000  0.5566070000000  0.5521210000000 1.0
C      1  0.4687040000000  0.5599340000000  0.4588890000000 1.0
C      1  0.4924410000000  0.4873320000000  0.4708280000000 1.0
C      1  0.4999460000000  0.4847130000000  0.5247420000000 1.0
C      1  0.5304470000000  0.5020870000000  0.4948280000000 1.0
C      1  0.4645970000000  0.5157970000000  0.5027400000000 1.0
C      1  0.4757040000000  0.5759430000000  0.5057470000000 1.0
C      1  0.5097210000000  0.4239650000000  0.4807080000000 1.0
C      1  0.5015580000000  0.4991770000000  0.4976210000000 1.0
END
