TITL C-146859-7974-6 -0.0380351857783498 125000 -507.487772166258 0 0 75 (C1) n - 1
REM
REM in /rds/project/t2_vol4/rds-t2-cs072/BORA/CARBON/from-Arr/AIRSS/Generating-Clusters/GAP-ML-2020/Higher-Symm/SD-CG/HFTN-CG
REM
REM
REM
REM
REM
REM ./C.cell (b20cbc046b6831c77cfcea5457e17084)
REM AIRSS Version 0.9.1 bugfix July 2018 build 013d7b7c2542+ Fri, 06 Jul 2018 19:26:36 +0100
REM compiler GCC version 9.3.0
REM options -cpp -mtune=generic -march=x86-64 -g -O0
REM seed 1549932757 2106122572 -1457457229 -1485356101 943539057 -1757657171 -571294604 -1043370212 56122697 -439834460 548749236 -1473409015 892200775 355901549 1749691110 -2011672265 647774266 1486255279 1890449660 2128080770 1118879106 -1003626193 275543107 -1145851273 1117863653 -1337250925 2058889926 -1942011627 -1568391389 269865163 -865465500 -1028138617 190507517
REM
CELL 1.54180   50.00000   50.00000   50.00000   90.00000   90.00000   90.00000
LATT -1
SFAC C  
C      1  0.5684010000000  0.5247570000000  0.4647360000000 1.0
C      1  0.5686410000000  0.4970540000000  0.5277330000000 1.0
C      1  0.4341760000000  0.4904190000000  0.4694670000000 1.0
C      1  0.4293700000000  0.4930910000000  0.5280690000000 1.0
C      1  0.4966520000000  0.5374300000000  0.5074570000000 1.0
C      1  0.4819010000000  0.4668000000000  0.4834300000000 1.0
C      1  0.4998680000000  0.5086830000000  0.5111160000000 1.0
C      1  0.5094260000000  0.4718690000000  0.4828580000000 1.0
C      1  0.5304130000000  0.5570920000000  0.5398940000000 1.0
C      1  0.5267400000000  0.4401610000000  0.4719070000000 1.0
C      1  0.4659590000000  0.5606940000000  0.5393430000000 1.0
C      1  0.4736600000000  0.4391030000000  0.4725590000000 1.0
C      1  0.4668050000000  0.4464030000000  0.5493630000000 1.0
C      1  0.4624900000000  0.5447020000000  0.4281850000000 1.0
C      1  0.5334640000000  0.4469870000000  0.5484940000000 1.0
C      1  0.5285000000000  0.5497140000000  0.4431970000000 1.0
C      1  0.5115460000000  0.5610250000000  0.5178010000000 1.0
C      1  0.5146620000000  0.4267580000000  0.4954120000000 1.0
C      1  0.4834430000000  0.5710420000000  0.5189570000000 1.0
C      1  0.4865890000000  0.4254580000000  0.4957150000000 1.0
C      1  0.5546930000000  0.4530260000000  0.5060540000000 1.0
C      1  0.5548640000000  0.5562090000000  0.5001510000000 1.0
C      1  0.4446430000000  0.4492590000000  0.5064260000000 1.0
C      1  0.4453200000000  0.5560540000000  0.4971880000000 1.0
C      1  0.4770100000000  0.4925110000000  0.5224530000000 1.0
C      1  0.4774530000000  0.5148420000000  0.4705040000000 1.0
C      1  0.5224650000000  0.4932830000000  0.5218690000000 1.0
C      1  0.5230050000000  0.5144090000000  0.4690560000000 1.0
C      1  0.4481910000000  0.5470600000000  0.4496120000000 1.0
C      1  0.4398810000000  0.4512660000000  0.5526060000000 1.0
C      1  0.5555720000000  0.5458400000000  0.4509260000000 1.0
C      1  0.5604710000000  0.4526540000000  0.5518580000000 1.0
C      1  0.5303410000000  0.4759520000000  0.4426600000000 1.0
C      1  0.5352240000000  0.5168570000000  0.5596410000000 1.0
C      1  0.4682400000000  0.4737910000000  0.4421620000000 1.0
C      1  0.4648700000000  0.5179560000000  0.5567840000000 1.0
C      1  0.4470370000000  0.4487940000000  0.4778030000000 1.0
C      1  0.4438040000000  0.5476110000000  0.5256310000000 1.0
C      1  0.5519400000000  0.4534520000000  0.4780420000000 1.0
C      1  0.5543530000000  0.5465050000000  0.5286390000000 1.0
C      1  0.4703090000000  0.4403800000000  0.5183040000000 1.0
C      1  0.4713210000000  0.5662670000000  0.4931060000000 1.0
C      1  0.5298420000000  0.4424650000000  0.5173830000000 1.0
C      1  0.5280000000000  0.5613400000000  0.4934230000000 1.0
C      1  0.5150050000000  0.5018980000000  0.4422350000000 1.0
C      1  0.5167070000000  0.4943390000000  0.5519040000000 1.0
C      1  0.4827200000000  0.5018600000000  0.4430450000000 1.0
C      1  0.4835140000000  0.4944670000000  0.5521170000000 1.0
C      1  0.4860180000000  0.4653230000000  0.5614200000000 1.0
C      1  0.4845720000000  0.5269230000000  0.4261260000000 1.0
C      1  0.5141270000000  0.4651910000000  0.5609300000000 1.0
C      1  0.5131190000000  0.5283260000000  0.4278230000000 1.0
C      1  0.4328970000000  0.4654860000000  0.5289030000000 1.0
C      1  0.4385580000000  0.5401750000000  0.4747420000000 1.0
C      1  0.5656870000000  0.4687310000000  0.5287450000000 1.0
C      1  0.5682840000000  0.5496480000000  0.4763530000000 1.0
C      1  0.4485280000000  0.5117160000000  0.4816860000000 1.0
C      1  0.4503540000000  0.5034020000000  0.5117860000000 1.0
C      1  0.5503480000000  0.5033030000000  0.4768420000000 1.0
C      1  0.5485420000000  0.5012850000000  0.5081010000000 1.0
C      1  0.5174940000000  0.4490590000000  0.4440320000000 1.0
C      1  0.5225460000000  0.5421470000000  0.5642510000000 1.0
C      1  0.4827170000000  0.4481620000000  0.4438480000000 1.0
C      1  0.4758850000000  0.5435900000000  0.5618720000000 1.0
C      1  0.5584220000000  0.5207310000000  0.5413790000000 1.0
C      1  0.5507660000000  0.4769170000000  0.4625970000000 1.0
C      1  0.4435970000000  0.5205750000000  0.5362340000000 1.0
C      1  0.4432560000000  0.4691180000000  0.4571770000000 1.0
C      1  0.5163870000000  0.5462290000000  0.4705730000000 1.0
C      1  0.5137530000000  0.4665180000000  0.5117150000000 1.0
C      1  0.4880710000000  0.5434730000000  0.4794890000000 1.0
C      1  0.4838660000000  0.4657510000000  0.5124780000000 1.0
C      1  0.4987150000000  0.5465760000000  0.5766950000000 1.0
C      1  0.5005510000000  0.4352010000000  0.4263140000000 1.0
C      1  0.5010020000000  0.5011410000000  0.4837300000000 1.0
END
