TITL C-148575-4743-3 34.347907709228 125000 -282.8250561953 0 0 42 (C1) n - 1
REM
REM in /rds/project/t2_vol4/rds-t2-cs072/BORA/CARBON/from-Arr/AIRSS/Generating-Clusters/GAP-ML-2020/Higher-Symm/SD-CG/HFTN-CG
REM
REM
REM
REM
REM
REM ./C.cell (b20cbc046b6831c77cfcea5457e17084)
REM AIRSS Version 0.9.1 bugfix July 2018 build 013d7b7c2542+ Fri, 06 Jul 2018 19:26:36 +0100
REM compiler GCC version 9.3.0
REM options -cpp -mtune=generic -march=x86-64 -g -O0
REM seed -1871107223 -1610512003 -1180994727 -637080260 -1179337386 89923124 202857304 -1507341832 -1471757199 1009735709 -2107871117 1225794333 28808353 1513883090 1126471430 1540403354 -1566094284 955125440 1981930881 788511990 -1588073057 -244354612 170079825 2025456124 577682700 -1980100227 982159143 -1053994362 -1074231502 714230981 1487010936 -647711720 -404435909
REM
CELL 1.54180   50.00000   50.00000   50.00000   90.00000   90.00000   90.00000
LATT -1
SFAC C  
C      1  0.5416480000000  0.4624750000000  0.4757590000000 1.0
C      1  0.4701570000000  0.4438640000000  0.4667870000000 1.0
C      1  0.4369890000000  0.5092700000000  0.4683430000000 1.0
C      1  0.4880200000000  0.5586300000000  0.4690120000000 1.0
C      1  0.5514730000000  0.5315450000000  0.4685460000000 1.0
C      1  0.5181970000000  0.5182780000000  0.5689690000000 1.0
C      1  0.5277100000000  0.4940970000000  0.5590830000000 1.0
C      1  0.4890890000000  0.4645970000000  0.5640810000000 1.0
C      1  0.4689270000000  0.4859670000000  0.5642850000000 1.0
C      1  0.4928470000000  0.5294740000000  0.5596800000000 1.0
C      1  0.5248550000000  0.5434770000000  0.5080290000000 1.0
C      1  0.5476920000000  0.4986120000000  0.5072220000000 1.0
C      1  0.4915570000000  0.4537060000000  0.5087730000000 1.0
C      1  0.4564830000000  0.4883670000000  0.5085410000000 1.0
C      1  0.4729650000000  0.5365490000000  0.5089370000000 1.0
C      1  0.4822210000000  0.4840730000000  0.4428910000000 1.0
C      1  0.4791100000000  0.5123470000000  0.4424780000000 1.0
C      1  0.5052520000000  0.5241530000000  0.4413040000000 1.0
C      1  0.5246410000000  0.5024850000000  0.4423210000000 1.0
C      1  0.5101590000000  0.4776380000000  0.4440570000000 1.0
C      1  0.4505420000000  0.4885200000000  0.4803780000000 1.0
C      1  0.4699700000000  0.5423360000000  0.4812990000000 1.0
C      1  0.5304010000000  0.5450220000000  0.4795590000000 1.0
C      1  0.5529510000000  0.4870920000000  0.4809990000000 1.0
C      1  0.4936310000000  0.4485790000000  0.4807890000000 1.0
C      1  0.4987260000000  0.5481140000000  0.5208210000000 1.0
C      1  0.5419960000000  0.5232880000000  0.5214980000000 1.0
C      1  0.5121910000000  0.4682940000000  0.5222020000000 1.0
C      1  0.4665460000000  0.4642820000000  0.5199280000000 1.0
C      1  0.4639980000000  0.5127630000000  0.5224700000000 1.0
C      1  0.5134930000000  0.4720360000000  0.5496680000000 1.0
C      1  0.4655260000000  0.4629110000000  0.5485860000000 1.0
C      1  0.4734180000000  0.5103120000000  0.5497310000000 1.0
C      1  0.4961150000000  0.5544020000000  0.5481040000000 1.0
C      1  0.5387200000000  0.5176210000000  0.5489810000000 1.0
C      1  0.4598630000000  0.5229350000000  0.4618470000000 1.0
C      1  0.5096910000000  0.5468540000000  0.4586730000000 1.0
C      1  0.5477940000000  0.5059000000000  0.4591370000000 1.0
C      1  0.5175670000000  0.4576960000000  0.4642480000000 1.0
C      1  0.4648680000000  0.4700580000000  0.4612410000000 1.0
C      1  0.5029610000000  0.5020850000000  0.4866570000000 1.0
C      1  0.5187220000000  0.4923650000000  0.5075360000000 1.0
END
