TITL C-148572-4667-6 -0.305863638710946 125000 -655.353942884674 0 0 89 (C2) n - 1
REM
REM in /rds/project/t2_vol4/rds-t2-cs072/BORA/CARBON/from-Arr/AIRSS/Generating-Clusters/GAP-ML-2020/Higher-Symm/SD-CG/HFTN-CG
REM
REM
REM
REM
REM
REM ./C.cell (b20cbc046b6831c77cfcea5457e17084)
REM AIRSS Version 0.9.1 bugfix July 2018 build 013d7b7c2542+ Fri, 06 Jul 2018 19:26:36 +0100
REM compiler GCC version 9.3.0
REM options -cpp -mtune=generic -march=x86-64 -g -O0
REM seed -1784046616 580940432 -318984510 491815037 -2077570190 -1302050492 1696041283 1700710503 -982127034 50354936 1786345880 1677018735 1821291400 -2134118285 -1742901814 -96928092 1230022382 -1040320991 -1128207305 -737766492 -183123561 552879000 1527565353 939582948 -199420285 -302444955 1439639264 988465704 1596468058 249797436 1686168962 245148841 -167897358
REM
CELL 1.54180   50.00000   50.00000   50.00000   90.00000   90.00000   90.00000
LATT -1
SFAC C  
C      1  0.4855450000000  0.4662390000000  0.4322300000000 1.0
C      1  0.4855400000000  0.5337400000000  0.5670660000000 1.0
C      1  0.4985820000000  0.4705500000000  0.5761980000000 1.0
C      1  0.4985820000000  0.5294310000000  0.4230980000000 1.0
C      1  0.4381050000000  0.5368400000000  0.5347540000000 1.0
C      1  0.4381090000000  0.4631350000000  0.4645400000000 1.0
C      1  0.5165260000000  0.4970830000000  0.5238810000000 1.0
C      1  0.5165260000000  0.5028990000000  0.4754170000000 1.0
C      1  0.5656620000000  0.5281580000000  0.4522400000000 1.0
C      1  0.5656630000000  0.4718290000000  0.5470590000000 1.0
C      1  0.4199040000000  0.5351780000000  0.5131010000000 1.0
C      1  0.4199070000000  0.4647960000000  0.4861930000000 1.0
C      1  0.5362180000000  0.5728710000000  0.4972610000000 1.0
C      1  0.5362250000000  0.4271130000000  0.5020370000000 1.0
C      1  0.5080910000000  0.5667390000000  0.5415430000000 1.0
C      1  0.5080980000000  0.4332430000000  0.4577540000000 1.0
C      1  0.4968460000000  0.5217740000000  0.4870170000000 1.0
C      1  0.4968480000000  0.4782070000000  0.5122800000000 1.0
C      1  0.5537360000000  0.5432410000000  0.5514900000000 1.0
C      1  0.5537410000000  0.4567450000000  0.4478090000000 1.0
C      1  0.5666990000000  0.4579930000000  0.4735850000000 1.0
C      1  0.5666940000000  0.5419940000000  0.5257140000000 1.0
C      1  0.4258500000000  0.4522620000000  0.5115150000000 1.0
C      1  0.4258460000000  0.5477120000000  0.4877790000000 1.0
C      1  0.4730190000000  0.4830230000000  0.5711780000000 1.0
C      1  0.4730190000000  0.5169560000000  0.4281180000000 1.0
C      1  0.4171360000000  0.5249220000000  0.4722010000000 1.0
C      1  0.4171380000000  0.4750510000000  0.5270940000000 1.0
C      1  0.4427440000000  0.4861720000000  0.4474620000000 1.0
C      1  0.4427410000000  0.5138040000000  0.5518320000000 1.0
C      1  0.5436020000000  0.5364590000000  0.4358580000000 1.0
C      1  0.5436030000000  0.4635260000000  0.5634400000000 1.0
C      1  0.5601490000000  0.4436180000000  0.4981640000000 1.0
C      1  0.5601440000000  0.5563680000000  0.5011350000000 1.0
C      1  0.5320560000000  0.4900930000000  0.4218170000000 1.0
C      1  0.5320530000000  0.5098910000000  0.5774810000000 1.0
C      1  0.4822100000000  0.5551970000000  0.5478130000000 1.0
C      1  0.4822170000000  0.4447830000000  0.4514840000000 1.0
C      1  0.5016280000000  0.5550990000000  0.4345820000000 1.0
C      1  0.5016310000000  0.4448820000000  0.5647150000000 1.0
C      1  0.5273260000000  0.5528790000000  0.5580900000000 1.0
C      1  0.5273330000000  0.4471040000000  0.4412070000000 1.0
C      1  0.4671120000000  0.4884340000000  0.4325690000000 1.0
C      1  0.4671090000000  0.5115440000000  0.5667260000000 1.0
C      1  0.4830760000000  0.4318700000000  0.5481370000000 1.0
C      1  0.4830720000000  0.5681090000000  0.4511590000000 1.0
C      1  0.5131840000000  0.5775610000000  0.5155320000000 1.0
C      1  0.5131910000000  0.4224210000000  0.4837650000000 1.0
C      1  0.5566120000000  0.5173810000000  0.5645760000000 1.0
C      1  0.5566150000000  0.4826050000000  0.4347230000000 1.0
C      1  0.5399640000000  0.5180500000000  0.4889310000000 1.0
C      1  0.5399660000000  0.4819350000000  0.5103670000000 1.0
C      1  0.4527170000000  0.5321650000000  0.4419650000000 1.0
C      1  0.4527190000000  0.4678110000000  0.5573310000000 1.0
C      1  0.4581800000000  0.4432060000000  0.5432900000000 1.0
C      1  0.4581760000000  0.5567710000000  0.4560050000000 1.0
C      1  0.5255330000000  0.4819670000000  0.5767930000000 1.0
C      1  0.5255340000000  0.5180170000000  0.4225040000000 1.0
C      1  0.5162540000000  0.4777450000000  0.4899890000000 1.0
C      1  0.5162520000000  0.5222370000000  0.5093080000000 1.0
C      1  0.5249920000000  0.4265470000000  0.5289150000000 1.0
C      1  0.5249870000000  0.5734360000000  0.4703830000000 1.0
C      1  0.5749980000000  0.5143230000000  0.5231510000000 1.0
C      1  0.5750000000000  0.4856650000000  0.4761480000000 1.0
C      1  0.4079990000000  0.5133840000000  0.4973420000000 1.0
C      1  0.4080000000000  0.4865890000000  0.5019520000000 1.0
C      1  0.4481170000000  0.4376390000000  0.5168840000000 1.0
C      1  0.4481120000000  0.5623370000000  0.4824110000000 1.0
C      1  0.4894140000000  0.5804850000000  0.4996380000000 1.0
C      1  0.4894210000000  0.4194950000000  0.4996580000000 1.0
C      1  0.5712870000000  0.4999940000000  0.5478350000000 1.0
C      1  0.5712880000000  0.4999930000000  0.4514640000000 1.0
C      1  0.4723850000000  0.4882170000000  0.5053500000000 1.0
C      1  0.4723840000000  0.5117610000000  0.4939460000000 1.0
C      1  0.5625630000000  0.4628920000000  0.5197880000000 1.0
C      1  0.5625600000000  0.5370940000000  0.4795100000000 1.0
C      1  0.5277300000000  0.4413890000000  0.5538930000000 1.0
C      1  0.5277270000000  0.5585940000000  0.4454040000000 1.0
C      1  0.5138390000000  0.4674670000000  0.4257520000000 1.0
C      1  0.5138340000000  0.5325150000000  0.5735450000000 1.0
C      1  0.4595240000000  0.5564700000000  0.5308370000000 1.0
C      1  0.4595300000000  0.4435070000000  0.4684580000000 1.0
C      1  0.4333750000000  0.5137680000000  0.4522560000000 1.0
C      1  0.4333750000000  0.4862070000000  0.5470380000000 1.0
C      1  0.4973940000000  0.4199390000000  0.5268310000000 1.0
C      1  0.4973880000000  0.5800420000000  0.4724650000000 1.0
C      1  0.4637230000000  0.5699540000000  0.5056330000000 1.0
C      1  0.4637290000000  0.4300230000000  0.4936630000000 1.0
C      1  0.5616440000000  0.4999930000000  0.4996490000000 1.0
END
