TITL C-149060-9430-11 0.00782263825308456 125000 -191.822254166957 0 0 29 (C2v) n - 1
REM
REM in /rds/project/t2_vol4/rds-t2-cs072/BORA/CARBON/from-Arr/AIRSS/Generating-Clusters/GAP-ML-2020/Higher-Symm/SD-CG/HFTN-CG
REM
REM
REM
REM
REM
REM ./C.cell (b20cbc046b6831c77cfcea5457e17084)
REM AIRSS Version 0.9.1 bugfix July 2018 build 013d7b7c2542+ Fri, 06 Jul 2018 19:26:36 +0100
REM compiler GCC version 9.3.0
REM options -cpp -mtune=generic -march=x86-64 -g -O0
REM seed -625207050 1760391408 902426377 -1852844663 -756879812 -1728267560 807182301 -1808881349 345818856 1501273157 -431437833 1263864929 1034883942 1357650949 -486542885 -223684812 1371563314 871081896 2140631589 -316140298 -596498532 -2028665449 29941266 284633926 -1406466017 509655834 -1497800817 1456880450 1677661100 629688368 1052374634 -1998895813 867563889
REM
CELL 1.54180   50.00000   50.00000   50.00000   90.00000   90.00000   90.00000
LATT -1
SFAC C  
C      1  0.5419330000000  0.5132480000000  0.4988690000000 1.0
C      1  0.4588450000000  0.4840250000000  0.4988490000000 1.0
C      1  0.5419200000000  0.4839860000000  0.4988660000000 1.0
C      1  0.4588580000000  0.5132870000000  0.4988530000000 1.0
C      1  0.4666320000000  0.5132770000000  0.4696880000000 1.0
C      1  0.5341570000000  0.4840030000000  0.4696980000000 1.0
C      1  0.4666190000000  0.4840350000000  0.4696840000000 1.0
C      1  0.5341710000000  0.5132460000000  0.4697010000000 1.0
C      1  0.5295080000000  0.5326600000000  0.5161950000000 1.0
C      1  0.4712630000000  0.4646090000000  0.5161750000000 1.0
C      1  0.5294770000000  0.4645820000000  0.5161860000000 1.0
C      1  0.4712940000000  0.5326870000000  0.5161830000000 1.0
C      1  0.4849150000000  0.4422060000000  0.5035550000000 1.0
C      1  0.5158610000000  0.5550670000000  0.5035750000000 1.0
C      1  0.4849670000000  0.5550810000000  0.5035690000000 1.0
C      1  0.5158090000000  0.4421910000000  0.5035610000000 1.0
C      1  0.5152990000000  0.5568770000000  0.4750010000000 1.0
C      1  0.4854880000000  0.4404020000000  0.4749810000000 1.0
C      1  0.5152450000000  0.4403880000000  0.4749870000000 1.0
C      1  0.4855420000000  0.5568910000000  0.4749950000000 1.0
C      1  0.5165040000000  0.5327190000000  0.4594020000000 1.0
C      1  0.4842900000000  0.4645640000000  0.4593870000000 1.0
C      1  0.5164720000000  0.4645490000000  0.4593930000000 1.0
C      1  0.4843220000000  0.5327340000000  0.4593950000000 1.0
C      1  0.5142550000000  0.5240870000000  0.5395700000000 1.0
C      1  0.4865070000000  0.4731760000000  0.5395580000000 1.0
C      1  0.5142310000000  0.4731630000000  0.5395640000000 1.0
C      1  0.4865310000000  0.5241000000000  0.5395650000000 1.0
C      1  0.5003800000000  0.4986310000000  0.5447100000000 1.0
END
