TITL C-149047-9415-6 0.066067655343728 125000 -257.022453830973 0 0 39 (C1) n - 1
REM
REM in /rds/project/t2_vol4/rds-t2-cs072/BORA/CARBON/from-Arr/AIRSS/Generating-Clusters/GAP-ML-2020/Higher-Symm/SD-CG/HFTN-CG
REM
REM
REM
REM
REM
REM ./C.cell (b20cbc046b6831c77cfcea5457e17084)
REM AIRSS Version 0.9.1 bugfix July 2018 build 013d7b7c2542+ Fri, 06 Jul 2018 19:26:36 +0100
REM compiler GCC version 9.3.0
REM options -cpp -mtune=generic -march=x86-64 -g -O0
REM seed 610540012 -1874189694 -1516920248 1609397715 1365032762 -629285989 453924852 -569183877 -1362098061 815469742 -1682691099 649145677 1414304253 516315109 540525554 -168606853 1885556291 1065884363 2034476867 -1881205849 1870176631 243681009 -912084400 1639443487 1671319991 540259365 1456915289 1551042981 863916337 1548194801 760219101 -794330379 1450198401
REM
CELL 1.54180   50.00000   50.00000   50.00000   90.00000   90.00000   90.00000
LATT -1
SFAC C  
C      1  0.4500080000000  0.5157710000000  0.5050240000000 1.0
C      1  0.5062180000000  0.4528700000000  0.5280660000000 1.0
C      1  0.5039840000000  0.4672010000000  0.4424330000000 1.0
C      1  0.4517190000000  0.4861830000000  0.5049520000000 1.0
C      1  0.4583020000000  0.4700010000000  0.4829970000000 1.0
C      1  0.5018750000000  0.5087320000000  0.5792220000000 1.0
C      1  0.4855990000000  0.4903210000000  0.4389640000000 1.0
C      1  0.5489220000000  0.4738070000000  0.4915890000000 1.0
C      1  0.4651600000000  0.4755800000000  0.4548480000000 1.0
C      1  0.5124760000000  0.5377660000000  0.5203500000000 1.0
C      1  0.5438560000000  0.5144290000000  0.4633000000000 1.0
C      1  0.5317470000000  0.4488150000000  0.5424870000000 1.0
C      1  0.4834820000000  0.4525230000000  0.4560200000000 1.0
C      1  0.5071050000000  0.5333330000000  0.5686540000000 1.0
C      1  0.5275980000000  0.4668510000000  0.4568560000000 1.0
C      1  0.5046280000000  0.4487780000000  0.4996120000000 1.0
C      1  0.4922500000000  0.5533090000000  0.5569870000000 1.0
C      1  0.4832720000000  0.5388470000000  0.4573920000000 1.0
C      1  0.4636920000000  0.4792860000000  0.5298660000000 1.0
C      1  0.4461730000000  0.5330810000000  0.4844620000000 1.0
C      1  0.4952130000000  0.5164710000000  0.4416530000000 1.0
C      1  0.4631740000000  0.5252190000000  0.5293810000000 1.0
C      1  0.5230500000000  0.5105250000000  0.5069410000000 1.0
C      1  0.5221090000000  0.5458950000000  0.5476700000000 1.0
C      1  0.5425610000000  0.4702520000000  0.5336940000000 1.0
C      1  0.4906260000000  0.4940070000000  0.5585220000000 1.0
C      1  0.4836340000000  0.5447140000000  0.5305030000000 1.0
C      1  0.5232070000000  0.5495050000000  0.4922120000000 1.0
C      1  0.4577290000000  0.5453190000000  0.4653750000000 1.0
C      1  0.5282240000000  0.4543340000000  0.4841310000000 1.0
C      1  0.5416590000000  0.5279390000000  0.4886160000000 1.0
C      1  0.4670390000000  0.5033570000000  0.5457920000000 1.0
C      1  0.5098440000000  0.5467410000000  0.4668830000000 1.0
C      1  0.5216220000000  0.5248840000000  0.4495800000000 1.0
C      1  0.4873390000000  0.4683820000000  0.5417670000000 1.0
C      1  0.5458550000000  0.4899640000000  0.5149580000000 1.0
C      1  0.5023100000000  0.4979090000000  0.4885990000000 1.0
C      1  0.5462200000000  0.4867350000000  0.4653350000000 1.0
C      1  0.4805200000000  0.4503640000000  0.4843080000000 1.0
END
