TITL C-150253-3430-3 5.696046678455 125000 -650.797136792293 0 0 95 (C3) n - 1
REM
REM in /rds/project/t2_vol4/rds-t2-cs072/BORA/CARBON/from-Arr/AIRSS/Generating-Clusters/GAP-ML-2020/Higher-Symm/SD-CG/HFTN-CG
REM
REM
REM
REM
REM
REM ./C.cell (b20cbc046b6831c77cfcea5457e17084)
REM AIRSS Version 0.9.1 bugfix July 2018 build 013d7b7c2542+ Fri, 06 Jul 2018 19:26:36 +0100
REM compiler GCC version 9.3.0
REM options -cpp -mtune=generic -march=x86-64 -g -O0
REM seed -2086593059 -1827720431 -1477189200 1296589683 893535520 -1604690529 -344476326 538344368 -1061969636 -1205915200 -323801698 -2000153451 -282824044 -513410694 1042768408 1065722228 887607759 -487505979 973161692 -2132364196 1804312592 1497013736 1754067679 -246800795 839749994 39178543 1106457409 -1759460625 1835842433 2055464389 1718715426 1901595251 -1425299446
REM
CELL 1.54180   50.00000   50.00000   50.00000   90.00000   90.00000   90.00000
LATT -1
SFAC C  
C      1  0.5281680000000  0.4381490000000  0.5470040000000 1.0
C      1  0.5266690000000  0.4386680000000  0.4512290000000 1.0
C      1  0.4444770000000  0.4391140000000  0.5004180000000 1.0
C      1  0.5675440000000  0.5463220000000  0.5075510000000 1.0
C      1  0.4737160000000  0.5474920000000  0.4385180000000 1.0
C      1  0.4608430000000  0.5469910000000  0.5542970000000 1.0
C      1  0.4755930000000  0.5620190000000  0.5325100000000 1.0
C      1  0.5414270000000  0.5615940000000  0.5059030000000 1.0
C      1  0.4854710000000  0.5623060000000  0.4621920000000 1.0
C      1  0.4088150000000  0.5071730000000  0.5353580000000 1.0
C      1  0.5768200000000  0.5055930000000  0.5614600000000 1.0
C      1  0.5154290000000  0.5069580000000  0.4029080000000 1.0
C      1  0.5875530000000  0.4824020000000  0.5220360000000 1.0
C      1  0.4757270000000  0.4839380000000  0.4129690000000 1.0
C      1  0.4371830000000  0.4834690000000  0.5643530000000 1.0
C      1  0.5277770000000  0.4589570000000  0.5666470000000 1.0
C      1  0.5440490000000  0.4594750000000  0.4420660000000 1.0
C      1  0.4280260000000  0.4602170000000  0.4902690000000 1.0
C      1  0.5693780000000  0.4771540000000  0.5617110000000 1.0
C      1  0.5191300000000  0.4783930000000  0.4087910000000 1.0
C      1  0.4118220000000  0.4786810000000  0.5287740000000 1.0
C      1  0.4948490000000  0.5345250000000  0.4732310000000 1.0
C      1  0.4802340000000  0.5344120000000  0.5184440000000 1.0
C      1  0.5266960000000  0.5340660000000  0.5084920000000 1.0
C      1  0.5340940000000  0.5341850000000  0.5584210000000 1.0
C      1  0.5343920000000  0.5347980000000  0.4418640000000 1.0
C      1  0.4333040000000  0.5353590000000  0.4998890000000 1.0
C      1  0.4515280000000  0.5315410000000  0.4536560000000 1.0
C      1  0.4849130000000  0.5306620000000  0.5656960000000 1.0
C      1  0.5652490000000  0.5304220000000  0.4807600000000 1.0
C      1  0.4805110000000  0.4289540000000  0.4606950000000 1.0
C      1  0.4756690000000  0.4286000000000  0.5355050000000 1.0
C      1  0.5428760000000  0.4281980000000  0.5022900000000 1.0
C      1  0.5892810000000  0.5079720000000  0.5360250000000 1.0
C      1  0.4871910000000  0.5095410000000  0.4048710000000 1.0
C      1  0.4246520000000  0.5092640000000  0.5588680000000 1.0
C      1  0.5297250000000  0.4817160000000  0.4343210000000 1.0
C      1  0.4286640000000  0.4822000000000  0.5068860000000 1.0
C      1  0.5420330000000  0.4809560000000  0.5581240000000 1.0
C      1  0.5095940000000  0.5776820000000  0.4742250000000 1.0
C      1  0.4740830000000  0.5778200000000  0.5058410000000 1.0
C      1  0.5192160000000  0.5773530000000  0.5207870000000 1.0
C      1  0.4856800000000  0.4796140000000  0.5841220000000 1.0
C      1  0.5803990000000  0.4794030000000  0.4700990000000 1.0
C      1  0.4342990000000  0.4807890000000  0.4450840000000 1.0
C      1  0.5504280000000  0.4410550000000  0.5278520000000 1.0
C      1  0.4989790000000  0.4419520000000  0.4415730000000 1.0
C      1  0.4499840000000  0.4419090000000  0.5292730000000 1.0
C      1  0.4957490000000  0.4632490000000  0.4190070000000 1.0
C      1  0.4322320000000  0.4631360000000  0.5436790000000 1.0
C      1  0.5719550000000  0.4619750000000  0.5363470000000 1.0
C      1  0.4793060000000  0.5081020000000  0.5834730000000 1.0
C      1  0.5832600000000  0.5077750000000  0.4763800000000 1.0
C      1  0.4385430000000  0.5092100000000  0.4399020000000 1.0
C      1  0.4892800000000  0.5356290000000  0.4189330000000 1.0
C      1  0.4360030000000  0.5353920000000  0.5504290000000 1.0
C      1  0.5765160000000  0.5342890000000  0.5308170000000 1.0
C      1  0.5098700000000  0.5487910000000  0.5635580000000 1.0
C      1  0.5510720000000  0.5489810000000  0.4604960000000 1.0
C      1  0.4412200000000  0.5498410000000  0.4763490000000 1.0
C      1  0.5622090000000  0.5306620000000  0.5579150000000 1.0
C      1  0.5198700000000  0.5317660000000  0.4177180000000 1.0
C      1  0.4196270000000  0.5320620000000  0.5244890000000 1.0
C      1  0.4977030000000  0.4362100000000  0.5532270000000 1.0
C      1  0.5472720000000  0.4362010000000  0.4744680000000 1.0
C      1  0.4542830000000  0.4370180000000  0.4709220000000 1.0
C      1  0.4719460000000  0.5157910000000  0.4744420000000 1.0
C      1  0.4925770000000  0.5152810000000  0.5373830000000 1.0
C      1  0.5367690000000  0.5151630000000  0.4880420000000 1.0
C      1  0.4787010000000  0.4897400000000  0.5287440000000 1.0
C      1  0.5360120000000  0.4893790000000  0.5039840000000 1.0
C      1  0.4859170000000  0.4900060000000  0.4667310000000 1.0
C      1  0.5157740000000  0.4717470000000  0.5007470000000 1.0
C      1  0.4930830000000  0.4720220000000  0.4856030000000 1.0
C      1  0.4913130000000  0.4718930000000  0.5128280000000 1.0
C      1  0.4896190000000  0.4183040000000  0.5122230000000 1.0
C      1  0.5156530000000  0.4181360000000  0.5016930000000 1.0
C      1  0.4935180000000  0.4184180000000  0.4844120000000 1.0
C      1  0.4631320000000  0.5676360000000  0.4811430000000 1.0
C      1  0.5032160000000  0.5669680000000  0.5424600000000 1.0
C      1  0.5362770000000  0.5670290000000  0.4770850000000 1.0
C      1  0.5193150000000  0.5195730000000  0.4626010000000 1.0
C      1  0.4586740000000  0.5198840000000  0.5023430000000 1.0
C      1  0.5234090000000  0.5191550000000  0.5349880000000 1.0
C      1  0.4594700000000  0.4884870000000  0.5811820000000 1.0
C      1  0.5910280000000  0.4878160000000  0.4944010000000 1.0
C      1  0.4501020000000  0.4893990000000  0.4238590000000 1.0
C      1  0.5387780000000  0.4957050000000  0.5316190000000 1.0
C      1  0.5085200000000  0.4963920000000  0.4506170000000 1.0
C      1  0.4535000000000  0.4965120000000  0.5173260000000 1.0
C      1  0.4362300000000  0.4588770000000  0.4631710000000 1.0
C      1  0.5001970000000  0.4577470000000  0.5730700000000 1.0
C      1  0.5633890000000  0.4577870000000  0.4627180000000 1.0
C      1  0.5010260000000  0.5848050000000  0.5003220000000 1.0
C      1  0.5006380000000  0.5395830000000  0.5000830000000 1.0
END
