TITL C-154535-3108-1 96.9792903802933 125000 -597.850620745631 0 0 82 (C1) n - 1
REM
REM in /rds/project/t2_vol4/rds-t2-cs072/BORA/CARBON/from-Arr/AIRSS/Generating-Clusters/GAP-ML-2020/Higher-Symm/SD-CG/HFTN-CG
REM
REM
REM
REM
REM
REM ./C.cell (b20cbc046b6831c77cfcea5457e17084)
REM AIRSS Version 0.9.1 bugfix July 2018 build 013d7b7c2542+ Fri, 06 Jul 2018 19:26:36 +0100
REM compiler GCC version 9.3.0
REM options -cpp -mtune=generic -march=x86-64 -g -O0
REM seed 2097071085 -1056436778 969570970 362131894 1981143598 -1618585584 850077993 -1658592686 -1937374974 302009003 -540110854 1613308027 2126137144 -1410327042 -36352876 -1732155103 -980199582 -1232215360 -464688833 475069492 1763718411 -526538226 298665597 -1558474730 1953903985 -1351320533 -1216337901 -1767360665 929475083 -1011746060 -990643994 -1593199368 -1454116895
REM
CELL 1.54180   50.00000   50.00000   50.00000   90.00000   90.00000   90.00000
LATT -1
SFAC C  
C      1  0.5083770000000  0.4252950000000  0.5379470000000 1.0
C      1  0.5333720000000  0.4367570000000  0.5408380000000 1.0
C      1  0.5501380000000  0.4387380000000  0.5185180000000 1.0
C      1  0.5448430000000  0.4417160000000  0.4894490000000 1.0
C      1  0.5228860000000  0.4438190000000  0.4713700000000 1.0
C      1  0.4955350000000  0.4365200000000  0.4741770000000 1.0
C      1  0.4764780000000  0.4413280000000  0.4524880000000 1.0
C      1  0.4544900000000  0.4394090000000  0.4705790000000 1.0
C      1  0.4729100000000  0.4351830000000  0.4931480000000 1.0
C      1  0.4659220000000  0.4423040000000  0.5194590000000 1.0
C      1  0.4856270000000  0.4408490000000  0.5406060000000 1.0
C      1  0.5333350000000  0.5727800000000  0.5006610000000 1.0
C      1  0.5411390000000  0.5621050000000  0.4760450000000 1.0
C      1  0.5180780000000  0.5602590000000  0.4597070000000 1.0
C      1  0.4949890000000  0.5656310000000  0.4763330000000 1.0
C      1  0.4683420000000  0.5626320000000  0.4657550000000 1.0
C      1  0.4482120000000  0.5650000000000  0.4848640000000 1.0
C      1  0.4500190000000  0.5645290000000  0.5143380000000 1.0
C      1  0.4708640000000  0.5623440000000  0.5332290000000 1.0
C      1  0.4969960000000  0.5719950000000  0.5277710000000 1.0
C      1  0.5200990000000  0.5636930000000  0.5431680000000 1.0
C      1  0.5429730000000  0.5637320000000  0.5258220000000 1.0
C      1  0.5580190000000  0.5235400000000  0.4559660000000 1.0
C      1  0.5374220000000  0.5261230000000  0.4349620000000 1.0
C      1  0.4845180000000  0.5256370000000  0.4024330000000 1.0
C      1  0.4442380000000  0.5245900000000  0.4447990000000 1.0
C      1  0.4249610000000  0.5262620000000  0.4664540000000 1.0
C      1  0.4279970000000  0.5250260000000  0.5320730000000 1.0
C      1  0.4496430000000  0.5221950000000  0.5509660000000 1.0
C      1  0.4860940000000  0.5234580000000  0.5936130000000 1.0
C      1  0.5400530000000  0.5265870000000  0.5671240000000 1.0
C      1  0.5611170000000  0.5240570000000  0.5473400000000 1.0
C      1  0.5965690000000  0.5207260000000  0.5009620000000 1.0
C      1  0.4163310000000  0.4999490000000  0.4732480000000 1.0
C      1  0.4195510000000  0.4990960000000  0.5241650000000 1.0
C      1  0.4522270000000  0.4938440000000  0.5565670000000 1.0
C      1  0.4884450000000  0.4972510000000  0.5892740000000 1.0
C      1  0.5368070000000  0.5003120000000  0.5785040000000 1.0
C      1  0.5689320000000  0.4955300000000  0.5460470000000 1.0
C      1  0.5901680000000  0.4949190000000  0.5012900000000 1.0
C      1  0.5639090000000  0.4955730000000  0.4589950000000 1.0
C      1  0.5331870000000  0.5000220000000  0.4249540000000 1.0
C      1  0.4858740000000  0.4991990000000  0.4083430000000 1.0
C      1  0.4456520000000  0.4959530000000  0.4375300000000 1.0
C      1  0.5619740000000  0.5435000000000  0.4757920000000 1.0
C      1  0.5157180000000  0.5446160000000  0.4368340000000 1.0
C      1  0.4885550000000  0.5393630000000  0.4268850000000 1.0
C      1  0.4655070000000  0.5441000000000  0.4436190000000 1.0
C      1  0.4257940000000  0.5462980000000  0.4856480000000 1.0
C      1  0.4274230000000  0.5464350000000  0.5148360000000 1.0
C      1  0.4692300000000  0.5425190000000  0.5536310000000 1.0
C      1  0.4912560000000  0.5392840000000  0.5720600000000 1.0
C      1  0.5185960000000  0.5457220000000  0.5645190000000 1.0
C      1  0.5630250000000  0.5437810000000  0.5266780000000 1.0
C      1  0.5759390000000  0.5385660000000  0.5009410000000 1.0
C      1  0.5728090000000  0.4559680000000  0.5163760000000 1.0
C      1  0.5689980000000  0.4570440000000  0.4875270000000 1.0
C      1  0.5277600000000  0.4593630000000  0.4473080000000 1.0
C      1  0.5076720000000  0.4632440000000  0.4276610000000 1.0
C      1  0.4804160000000  0.4586940000000  0.4312310000000 1.0
C      1  0.4323180000000  0.4560950000000  0.4713220000000 1.0
C      1  0.4246270000000  0.4617370000000  0.4979130000000 1.0
C      1  0.4412020000000  0.4573740000000  0.5206840000000 1.0
C      1  0.4874110000000  0.4580470000000  0.5640190000000 1.0
C      1  0.5129090000000  0.4615400000000  0.5758340000000 1.0
C      1  0.5369950000000  0.4560350000000  0.5624360000000 1.0
C      1  0.4360270000000  0.4801080000000  0.5375730000000 1.0
C      1  0.4722980000000  0.4814420000000  0.5714200000000 1.0
C      1  0.5144430000000  0.4868250000000  0.5884280000000 1.0
C      1  0.5521900000000  0.4809640000000  0.5638050000000 1.0
C      1  0.5817590000000  0.4813670000000  0.5251480000000 1.0
C      1  0.5779720000000  0.4819620000000  0.4788150000000 1.0
C      1  0.5453030000000  0.4813520000000  0.4432250000000 1.0
C      1  0.5113140000000  0.4874780000000  0.4134650000000 1.0
C      1  0.4665140000000  0.4835610000000  0.4233380000000 1.0
C      1  0.4288650000000  0.4811310000000  0.4559710000000 1.0
C      1  0.4133360000000  0.4884880000000  0.4989460000000 1.0
C      1  0.4859980000000  0.5111730000000  0.4830870000000 1.0
C      1  0.5056120000000  0.5762220000000  0.5012440000000 1.0
C      1  0.5015320000000  0.5327470000000  0.4829710000000 1.0
C      1  0.4950970000000  0.4972730000000  0.5039250000000 1.0
C      1  0.5169930000000  0.5006860000000  0.5167220000000 1.0
END
