TITL C-156513-8875-3 -167.199923023963 125000 -1202.31162620179 0 0 167 (C1) n - 1
REM
REM in /rds/project/t2_vol4/rds-t2-cs072/BORA/CARBON/from-Arr/AIRSS/Generating-Clusters/GAP-ML-2020/Higher-Symm/SD-CG/HFTN-CG/C160-200
REM
REM
REM
REM
REM
REM ./C.cell (6b4489405718ea1b717e0baf1da4c2d9)
REM AIRSS Version 0.9.1 bugfix July 2018 build 013d7b7c2542+ Fri, 06 Jul 2018 19:26:36 +0100
REM compiler GCC version 9.3.0
REM options -cpp -mtune=generic -march=x86-64 -g -O0
REM seed 1048678450 -1692497878 1722425115 1568330121 -624957476 887045212 1876505141 -721875415 2023669480 -1197623708 -622786971 -1105154571 -531028219 693420530 1744669953 -1360615364 1757668194 -762495488 374245721 -467023468 762585666 -1890737157 -151348734 -1531434027 130135723 -1880440769 1164475463 275645827 -2121908805 -1563913434 1724315232 335207609 -249182892
REM
CELL 1.54180   50.00000   50.00000   50.00000   90.00000   90.00000   90.00000
LATT -1
SFAC C  
C      1  0.4304890000000  0.5710160000000  0.5522450000000 1.0
C      1  0.4482130000000  0.4290420000000  0.4305760000000 1.0
C      1  0.5702540000000  0.5708160000000  0.4479220000000 1.0
C      1  0.5525710000000  0.4290370000000  0.5698390000000 1.0
C      1  0.5249800000000  0.4878890000000  0.6039400000000 1.0
C      1  0.3973390000000  0.5118490000000  0.5242310000000 1.0
C      1  0.4758830000000  0.4876910000000  0.3964930000000 1.0
C      1  0.6038610000000  0.5117050000000  0.4758970000000 1.0
C      1  0.5232000000000  0.5288450000000  0.5865220000000 1.0
C      1  0.4163570000000  0.4717820000000  0.5221600000000 1.0
C      1  0.4778680000000  0.5283960000000  0.4139900000000 1.0
C      1  0.5857060000000  0.4710040000000  0.4778210000000 1.0
C      1  0.4519460000000  0.5213340000000  0.4857800000000 1.0
C      1  0.5144410000000  0.4797200000000  0.4530740000000 1.0
C      1  0.5481730000000  0.5208540000000  0.5143300000000 1.0
C      1  0.4866990000000  0.4793770000000  0.5490580000000 1.0
C      1  0.5749340000000  0.4789250000000  0.5827470000000 1.0
C      1  0.4189550000000  0.5209310000000  0.5742240000000 1.0
C      1  0.4259460000000  0.4790040000000  0.4176460000000 1.0
C      1  0.5827920000000  0.5208080000000  0.4258000000000 1.0
C      1  0.5028510000000  0.4551310000000  0.4481630000000 1.0
C      1  0.5513820000000  0.5456970000000  0.5024400000000 1.0
C      1  0.4982090000000  0.4545310000000  0.5523930000000 1.0
C      1  0.4484010000000  0.5458570000000  0.4983370000000 1.0
C      1  0.5029300000000  0.3912250000000  0.5413070000000 1.0
C      1  0.4596260000000  0.6071060000000  0.5032430000000 1.0
C      1  0.4978590000000  0.3912240000000  0.4590980000000 1.0
C      1  0.5408070000000  0.6067730000000  0.4968160000000 1.0
C      1  0.4958220000000  0.5018320000000  0.4619320000000 1.0
C      1  0.5428170000000  0.4992470000000  0.4964980000000 1.0
C      1  0.5044020000000  0.5008240000000  0.5442860000000 1.0
C      1  0.4630870000000  0.4995950000000  0.5030500000000 1.0
C      1  0.5266970000000  0.6148090000000  0.4737470000000 1.0
C      1  0.5262360000000  0.3842150000000  0.5261580000000 1.0
C      1  0.4738510000000  0.6149290000000  0.5263220000000 1.0
C      1  0.4744540000000  0.3840780000000  0.4741560000000 1.0
C      1  0.5455560000000  0.5807680000000  0.4375070000000 1.0
C      1  0.5624890000000  0.4192810000000  0.5449640000000 1.0
C      1  0.4551100000000  0.5810540000000  0.5627580000000 1.0
C      1  0.4384410000000  0.4194540000000  0.4555780000000 1.0
C      1  0.5462900000000  0.4640880000000  0.4089450000000 1.0
C      1  0.5918510000000  0.5357420000000  0.5463090000000 1.0
C      1  0.4545970000000  0.4642100000000  0.5914990000000 1.0
C      1  0.4090150000000  0.5358800000000  0.4539710000000 1.0
C      1  0.5982070000000  0.5594790000000  0.4836410000000 1.0
C      1  0.5169110000000  0.4402270000000  0.5978070000000 1.0
C      1  0.4024870000000  0.5596180000000  0.5165780000000 1.0
C      1  0.4838750000000  0.4401210000000  0.4026200000000 1.0
C      1  0.4790360000000  0.4736670000000  0.6059330000000 1.0
C      1  0.3947170000000  0.5263520000000  0.4784610000000 1.0
C      1  0.5218660000000  0.4733160000000  0.3944840000000 1.0
C      1  0.6060380000000  0.5262510000000  0.5216860000000 1.0
C      1  0.5517490000000  0.3962330000000  0.5329650000000 1.0
C      1  0.4668710000000  0.6044880000000  0.5525730000000 1.0
C      1  0.4489340000000  0.3962260000000  0.4674750000000 1.0
C      1  0.5337780000000  0.6042730000000  0.4475620000000 1.0
C      1  0.4402430000000  0.4778070000000  0.5716680000000 1.0
C      1  0.4286410000000  0.5224570000000  0.4392270000000 1.0
C      1  0.5608210000000  0.4777810000000  0.4285370000000 1.0
C      1  0.5722360000000  0.5221850000000  0.5609560000000 1.0
C      1  0.5321750000000  0.4381020000000  0.4129860000000 1.0
C      1  0.5875550000000  0.5614240000000  0.5318570000000 1.0
C      1  0.4687250000000  0.4382460000000  0.5876340000000 1.0
C      1  0.4130040000000  0.5616450000000  0.4684210000000 1.0
C      1  0.5225390000000  0.5354490000000  0.4314470000000 1.0
C      1  0.5677210000000  0.4646390000000  0.5222570000000 1.0
C      1  0.4783000000000  0.5358480000000  0.5691360000000 1.0
C      1  0.4339290000000  0.4649460000000  0.4782290000000 1.0
C      1  0.5260740000000  0.4201870000000  0.5792990000000 1.0
C      1  0.4209500000000  0.5796920000000  0.5257960000000 1.0
C      1  0.4747590000000  0.4201830000000  0.4211640000000 1.0
C      1  0.5797060000000  0.5794890000000  0.4743910000000 1.0
C      1  0.5039670000000  0.4951540000000  0.3967820000000 1.0
C      1  0.6034920000000  0.5042300000000  0.5039760000000 1.0
C      1  0.4968620000000  0.4956120000000  0.6039340000000 1.0
C      1  0.3978090000000  0.5044350000000  0.4961810000000 1.0
C      1  0.4958130000000  0.5216730000000  0.5919650000000 1.0
C      1  0.4111630000000  0.4789630000000  0.4949450000000 1.0
C      1  0.5052070000000  0.5210560000000  0.4090510000000 1.0
C      1  0.5907900000000  0.4784340000000  0.5051670000000 1.0
C      1  0.5951250000000  0.4900990000000  0.4595110000000 1.0
C      1  0.5414320000000  0.5094910000000  0.5953260000000 1.0
C      1  0.4066840000000  0.4905560000000  0.5405050000000 1.0
C      1  0.4595050000000  0.5093730000000  0.4049700000000 1.0
C      1  0.4904010000000  0.4464310000000  0.6047330000000 1.0
C      1  0.3957720000000  0.5535070000000  0.4900120000000 1.0
C      1  0.5104290000000  0.4462110000000  0.3958650000000 1.0
C      1  0.6048240000000  0.5534250000000  0.5102390000000 1.0
C      1  0.4326590000000  0.4212200000000  0.5026060000000 1.0
C      1  0.4983610000000  0.5792850000000  0.4316520000000 1.0
C      1  0.5684320000000  0.4209760000000  0.4978710000000 1.0
C      1  0.5023890000000  0.5794590000000  0.5686900000000 1.0
C      1  0.4961660000000  0.4091690000000  0.4368030000000 1.0
C      1  0.5641440000000  0.5904580000000  0.4956930000000 1.0
C      1  0.5047030000000  0.4090370000000  0.5636950000000 1.0
C      1  0.4363010000000  0.5907800000000  0.5044200000000 1.0
C      1  0.4741880000000  0.5405380000000  0.4409390000000 1.0
C      1  0.5584170000000  0.4592580000000  0.4737150000000 1.0
C      1  0.5267350000000  0.5405610000000  0.5592520000000 1.0
C      1  0.4434620000000  0.4597890000000  0.5264170000000 1.0
C      1  0.4552730000000  0.4706280000000  0.4536030000000 1.0
C      1  0.5464360000000  0.5296780000000  0.4551690000000 1.0
C      1  0.5455440000000  0.4706480000000  0.5466090000000 1.0
C      1  0.4545320000000  0.5298800000000  0.5453400000000 1.0
C      1  0.4329910000000  0.5050910000000  0.4165690000000 1.0
C      1  0.5839240000000  0.4946680000000  0.4326930000000 1.0
C      1  0.5680700000000  0.5050420000000  0.5838740000000 1.0
C      1  0.4174700000000  0.4948480000000  0.5673030000000 1.0
C      1  0.5319710000000  0.4963110000000  0.5476160000000 1.0
C      1  0.4554470000000  0.5042050000000  0.5314470000000 1.0
C      1  0.4687080000000  0.4963690000000  0.4516700000000 1.0
C      1  0.5465810000000  0.5039950000000  0.4688590000000 1.0
C      1  0.5613560000000  0.5706840000000  0.5196080000000 1.0
C      1  0.4808380000000  0.4284020000000  0.5616720000000 1.0
C      1  0.4391160000000  0.5708260000000  0.4808520000000 1.0
C      1  0.5200800000000  0.4286440000000  0.4389470000000 1.0
C      1  0.5384630000000  0.4154250000000  0.4587780000000 1.0
C      1  0.5404880000000  0.5830000000000  0.5372060000000 1.0
C      1  0.4625110000000  0.4155350000000  0.5416120000000 1.0
C      1  0.4600840000000  0.5829310000000  0.4630500000000 1.0
C      1  0.5009030000000  0.5318440000000  0.4524680000000 1.0
C      1  0.5450140000000  0.4688490000000  0.5004310000000 1.0
C      1  0.4998970000000  0.5309950000000  0.5471690000000 1.0
C      1  0.4569380000000  0.4684780000000  0.4999040000000 1.0
C      1  0.4973090000000  0.6138140000000  0.4667360000000 1.0
C      1  0.5343890000000  0.3847960000000  0.4962940000000 1.0
C      1  0.5032290000000  0.6137510000000  0.5332620000000 1.0
C      1  0.4663730000000  0.3847440000000  0.5041040000000 1.0
C      1  0.5762910000000  0.5408360000000  0.4457210000000 1.0
C      1  0.5550040000000  0.4589930000000  0.5759720000000 1.0
C      1  0.4246560000000  0.5410720000000  0.5543420000000 1.0
C      1  0.4457990000000  0.4589700000000  0.4243570000000 1.0
C      1  0.4418840000000  0.3962550000000  0.4957990000000 1.0
C      1  0.5052550000000  0.6041260000000  0.4411940000000 1.0
C      1  0.5588680000000  0.3961770000000  0.5046790000000 1.0
C      1  0.4953890000000  0.6041820000000  0.5588360000000 1.0
C      1  0.4724570000000  0.6041820000000  0.4771220000000 1.0
C      1  0.5248290000000  0.3931680000000  0.4705870000000 1.0
C      1  0.5280350000000  0.6040480000000  0.5229510000000 1.0
C      1  0.4760000000000  0.3931970000000  0.5297840000000 1.0
C      1  0.4775690000000  0.5648710000000  0.5722610000000 1.0
C      1  0.4297160000000  0.4359940000000  0.4778820000000 1.0
C      1  0.5231820000000  0.5645990000000  0.4281060000000 1.0
C      1  0.5714530000000  0.4356950000000  0.5226390000000 1.0
C      1  0.5225220000000  0.4524840000000  0.5385400000000 1.0
C      1  0.4627840000000  0.5491730000000  0.5229850000000 1.0
C      1  0.4782610000000  0.4521720000000  0.4613810000000 1.0
C      1  0.5378420000000  0.5489340000000  0.4776620000000 1.0
C      1  0.5336750000000  0.4624310000000  0.5965410000000 1.0
C      1  0.4038340000000  0.5374720000000  0.5333680000000 1.0
C      1  0.4670490000000  0.4622430000000  0.4036930000000 1.0
C      1  0.5969580000000  0.5372700000000  0.4669090000000 1.0
C      1  0.5095620000000  0.5490720000000  0.4765510000000 1.0
C      1  0.5221680000000  0.4514710000000  0.5108080000000 1.0
C      1  0.4910990000000  0.5475500000000  0.5226120000000 1.0
C      1  0.4783800000000  0.4496110000000  0.4891250000000 1.0
C      1  0.4564590000000  0.4791710000000  0.5464570000000 1.0
C      1  0.4540410000000  0.5215760000000  0.4549250000000 1.0
C      1  0.5449010000000  0.4789600000000  0.4540410000000 1.0
C      1  0.5466970000000  0.5213090000000  0.5451770000000 1.0
C      1  0.4425940000000  0.4305810000000  0.5279600000000 1.0
C      1  0.4729780000000  0.5695200000000  0.4417270000000 1.0
C      1  0.5586890000000  0.4301480000000  0.4723440000000 1.0
C      1  0.5276680000000  0.5695020000000  0.5585340000000 1.0
C      1  0.5007850000000  0.4396230000000  0.4999260000000 1.0
C      1  0.4979440000000  0.5364120000000  0.4981430000000 1.0
C      1  0.4901180000000  0.5082100000000  0.4923090000000 1.0
END
