TITL C-156516-9122-1 66.9046311048412 125000 -1189.72302588112 0 0 168 (C1) n - 1
REM
REM in /rds/project/t2_vol4/rds-t2-cs072/BORA/CARBON/from-Arr/AIRSS/Generating-Clusters/GAP-ML-2020/Higher-Symm/SD-CG/HFTN-CG/C160-200
REM
REM
REM
REM
REM
REM ./C.cell (6b4489405718ea1b717e0baf1da4c2d9)
REM AIRSS Version 0.9.1 bugfix July 2018 build 013d7b7c2542+ Fri, 06 Jul 2018 19:26:36 +0100
REM compiler GCC version 9.3.0
REM options -cpp -mtune=generic -march=x86-64 -g -O0
REM seed -1713757409 -542569267 -260204139 -1283771263 1033376556 -985662063 -861276998 238402938 -380417523 -75080557 -709075629 1939801350 -82546177 1089657011 -628270490 -2038107119 908082647 797505552 -433435891 -644762013 1175440580 1312754906 994883857 -1797766926 -244990755 -363647381 -1000993049 746364182 -854790876 2065909966 -310277287 -1595489014 -1226775150
REM
CELL 1.54180   50.00000   50.00000   50.00000   90.00000   90.00000   90.00000
LATT -1
SFAC C  
C      1  0.5738240000000  0.5642070000000  0.4651210000000 1.0
C      1  0.5791420000000  0.5560640000000  0.5585210000000 1.0
C      1  0.5753300000000  0.4704390000000  0.5823210000000 1.0
C      1  0.5776860000000  0.4276170000000  0.4972720000000 1.0
C      1  0.5705380000000  0.4877080000000  0.4200670000000 1.0
C      1  0.4134670000000  0.5697150000000  0.4560270000000 1.0
C      1  0.4251940000000  0.5636990000000  0.5432150000000 1.0
C      1  0.4242780000000  0.4709650000000  0.5765440000000 1.0
C      1  0.4225590000000  0.4135520000000  0.4902270000000 1.0
C      1  0.4180640000000  0.4739830000000  0.4199600000000 1.0
C      1  0.5660640000000  0.5869270000000  0.4801350000000 1.0
C      1  0.5700410000000  0.5434110000000  0.5816900000000 1.0
C      1  0.5614440000000  0.4462690000000  0.5768370000000 1.0
C      1  0.5631700000000  0.4221270000000  0.4739380000000 1.0
C      1  0.5607500000000  0.5092890000000  0.4050570000000 1.0
C      1  0.4134530000000  0.5962340000000  0.4643460000000 1.0
C      1  0.4436970000000  0.5533110000000  0.5616920000000 1.0
C      1  0.4403630000000  0.4492170000000  0.5687970000000 1.0
C      1  0.4232670000000  0.4000260000000  0.4655370000000 1.0
C      1  0.4338550000000  0.4951820000000  0.4107720000000 1.0
C      1  0.4677020000000  0.4198250000000  0.4303190000000 1.0
C      1  0.4670780000000  0.5382290000000  0.4112230000000 1.0
C      1  0.4736310000000  0.5993740000000  0.5076090000000 1.0
C      1  0.4782560000000  0.5177010000000  0.6019320000000 1.0
C      1  0.4784010000000  0.4151850000000  0.5417880000000 1.0
C      1  0.5222640000000  0.4360790000000  0.4428020000000 1.0
C      1  0.5253920000000  0.5489480000000  0.4108250000000 1.0
C      1  0.5300670000000  0.5972040000000  0.5205940000000 1.0
C      1  0.5363360000000  0.5042460000000  0.6037140000000 1.0
C      1  0.5334840000000  0.4048720000000  0.5496310000000 1.0
C      1  0.4329600000000  0.5316920000000  0.5764460000000 1.0
C      1  0.4317100000000  0.4376030000000  0.5454520000000 1.0
C      1  0.4204300000000  0.4214930000000  0.4476760000000 1.0
C      1  0.4224880000000  0.5188940000000  0.4204230000000 1.0
C      1  0.4317480000000  0.6019570000000  0.4816510000000 1.0
C      1  0.5820070000000  0.5181770000000  0.5844270000000 1.0
C      1  0.5732400000000  0.4333140000000  0.5544080000000 1.0
C      1  0.5717920000000  0.4403690000000  0.4549240000000 1.0
C      1  0.5722290000000  0.5317190000000  0.4171780000000 1.0
C      1  0.5768390000000  0.5839660000000  0.5058170000000 1.0
C      1  0.5261130000000  0.5305500000000  0.5995180000000 1.0
C      1  0.5202240000000  0.4205600000000  0.5691020000000 1.0
C      1  0.5119200000000  0.4088090000000  0.4514800000000 1.0
C      1  0.5135590000000  0.5265800000000  0.3972950000000 1.0
C      1  0.5204130000000  0.6024600000000  0.4937340000000 1.0
C      1  0.4982770000000  0.5380800000000  0.5945040000000 1.0
C      1  0.4925580000000  0.4267470000000  0.5645750000000 1.0
C      1  0.4838410000000  0.4052050000000  0.4495710000000 1.0
C      1  0.4860430000000  0.5178630000000  0.3998880000000 1.0
C      1  0.4923420000000  0.5985040000000  0.4856360000000 1.0
C      1  0.4754430000000  0.4963970000000  0.4442840000000 1.0
C      1  0.4958150000000  0.5353110000000  0.4777960000000 1.0
C      1  0.4835550000000  0.5379710000000  0.5354040000000 1.0
C      1  0.4759330000000  0.4775720000000  0.5408280000000 1.0
C      1  0.4874970000000  0.4502340000000  0.4860370000000 1.0
C      1  0.5028380000000  0.5027040000000  0.4432690000000 1.0
C      1  0.5151510000000  0.5524770000000  0.4901360000000 1.0
C      1  0.5115950000000  0.5325110000000  0.5402500000000 1.0
C      1  0.5036730000000  0.4791390000000  0.5394090000000 1.0
C      1  0.5170710000000  0.4467140000000  0.4755100000000 1.0
C      1  0.5391370000000  0.5926200000000  0.4753700000000 1.0
C      1  0.5426330000000  0.5459210000000  0.5834560000000 1.0
C      1  0.5338930000000  0.4414680000000  0.5823970000000 1.0
C      1  0.5192560000000  0.4013830000000  0.4794430000000 1.0
C      1  0.5328790000000  0.5066290000000  0.4016060000000 1.0
C      1  0.4865670000000  0.5879420000000  0.4591370000000 1.0
C      1  0.4919020000000  0.5600660000000  0.5768990000000 1.0
C      1  0.4879870000000  0.4510580000000  0.5787490000000 1.0
C      1  0.4750230000000  0.4027100000000  0.4772250000000 1.0
C      1  0.4818520000000  0.4881440000000  0.4021200000000 1.0
C      1  0.5383330000000  0.5336690000000  0.4990770000000 1.0
C      1  0.5271940000000  0.5160590000000  0.5217880000000 1.0
C      1  0.5173710000000  0.4892170000000  0.5165780000000 1.0
C      1  0.5315850000000  0.4726180000000  0.4831820000000 1.0
C      1  0.5120670000000  0.5137370000000  0.4675220000000 1.0
C      1  0.4684220000000  0.5271770000000  0.4843740000000 1.0
C      1  0.4670360000000  0.5221920000000  0.5154670000000 1.0
C      1  0.4637510000000  0.4893280000000  0.5171660000000 1.0
C      1  0.4796470000000  0.4789130000000  0.4902560000000 1.0
C      1  0.4630370000000  0.4958030000000  0.4699700000000 1.0
C      1  0.5553000000000  0.4193780000000  0.5375650000000 1.0
C      1  0.5498020000000  0.4480000000000  0.4394000000000 1.0
C      1  0.5502900000000  0.5477160000000  0.4249820000000 1.0
C      1  0.5556450000000  0.5852480000000  0.5248400000000 1.0
C      1  0.5613610000000  0.4966250000000  0.5857510000000 1.0
C      1  0.4517740000000  0.4219200000000  0.5321420000000 1.0
C      1  0.4427130000000  0.4335440000000  0.4348910000000 1.0
C      1  0.4416500000000  0.5390750000000  0.4243530000000 1.0
C      1  0.4452920000000  0.5943040000000  0.5045750000000 1.0
C      1  0.4509970000000  0.5134200000000  0.5908190000000 1.0
C      1  0.3946500000000  0.4825410000000  0.4335880000000 1.0
C      1  0.3941590000000  0.5498330000000  0.4677780000000 1.0
C      1  0.4020270000000  0.5462280000000  0.5433990000000 1.0
C      1  0.4059720000000  0.4755890000000  0.5549780000000 1.0
C      1  0.4038080000000  0.4355470000000  0.4884350000000 1.0
C      1  0.5945250000000  0.4936830000000  0.4343920000000 1.0
C      1  0.5971560000000  0.5526320000000  0.4763750000000 1.0
C      1  0.6026560000000  0.5425580000000  0.5494690000000 1.0
C      1  0.5986940000000  0.4699580000000  0.5651640000000 1.0
C      1  0.5991270000000  0.4458550000000  0.4946120000000 1.0
C      1  0.4068720000000  0.5253970000000  0.5637300000000 1.0
C      1  0.4118210000000  0.4555740000000  0.5337550000000 1.0
C      1  0.3996930000000  0.4405950000000  0.4603860000000 1.0
C      1  0.3973550000000  0.5118410000000  0.4352140000000 1.0
C      1  0.3984840000000  0.5478010000000  0.4963870000000 1.0
C      1  0.6036520000000  0.5174480000000  0.5651230000000 1.0
C      1  0.5967230000000  0.4483700000000  0.5454750000000 1.0
C      1  0.5953980000000  0.4562270000000  0.4667270000000 1.0
C      1  0.5934470000000  0.5225550000000  0.4359890000000 1.0
C      1  0.5980160000000  0.5627950000000  0.5044210000000 1.0
C      1  0.4717730000000  0.5543280000000  0.5571980000000 1.0
C      1  0.4658340000000  0.4673620000000  0.5688750000000 1.0
C      1  0.4676250000000  0.4290260000000  0.4867740000000 1.0
C      1  0.4601250000000  0.4841280000000  0.4216010000000 1.0
C      1  0.4659680000000  0.5748110000000  0.4431980000000 1.0
C      1  0.5311330000000  0.5536990000000  0.5570030000000 1.0
C      1  0.5205320000000  0.4827820000000  0.5613120000000 1.0
C      1  0.5358040000000  0.4234130000000  0.4873600000000 1.0
C      1  0.5231730000000  0.4885290000000  0.4222820000000 1.0
C      1  0.5285760000000  0.5678810000000  0.4651050000000 1.0
C      1  0.5053970000000  0.4445920000000  0.4186220000000 1.0
C      1  0.5067360000000  0.5662810000000  0.4220780000000 1.0
C      1  0.5095390000000  0.5932020000000  0.5411420000000 1.0
C      1  0.5150500000000  0.4855600000000  0.6070630000000 1.0
C      1  0.5181950000000  0.3873290000000  0.5357320000000 1.0
C      1  0.4847900000000  0.4284810000000  0.4103650000000 1.0
C      1  0.4789600000000  0.5619470000000  0.4211380000000 1.0
C      1  0.4849790000000  0.5999880000000  0.5319810000000 1.0
C      1  0.4910310000000  0.4966480000000  0.6146830000000 1.0
C      1  0.4952400000000  0.3974450000000  0.5238080000000 1.0
C      1  0.5493750000000  0.4911720000000  0.4658970000000 1.0
C      1  0.5423740000000  0.5200480000000  0.4707510000000 1.0
C      1  0.5591920000000  0.5365500000000  0.5197940000000 1.0
C      1  0.5544910000000  0.5087530000000  0.5336530000000 1.0
C      1  0.5446760000000  0.4675210000000  0.5103520000000 1.0
C      1  0.4380120000000  0.4811050000000  0.4665910000000 1.0
C      1  0.4458180000000  0.5441820000000  0.4766860000000 1.0
C      1  0.4281980000000  0.5478310000000  0.5000950000000 1.0
C      1  0.4373220000000  0.5241670000000  0.5160450000000 1.0
C      1  0.4344590000000  0.4961170000000  0.5110540000000 1.0
C      1  0.4415560000000  0.5576450000000  0.4497050000000 1.0
C      1  0.4332140000000  0.5716350000000  0.5173220000000 1.0
C      1  0.4465150000000  0.4865740000000  0.5848660000000 1.0
C      1  0.4471750000000  0.4195310000000  0.5044600000000 1.0
C      1  0.4405840000000  0.4630670000000  0.4368530000000 1.0
C      1  0.5497660000000  0.5488520000000  0.4542890000000 1.0
C      1  0.5562950000000  0.5602890000000  0.5400710000000 1.0
C      1  0.5448510000000  0.4967690000000  0.5596350000000 1.0
C      1  0.5513510000000  0.4337320000000  0.5124310000000 1.0
C      1  0.5484330000000  0.4772980000000  0.4359680000000 1.0
C      1  0.6035520000000  0.5321920000000  0.4595110000000 1.0
C      1  0.6110370000000  0.5516220000000  0.5253820000000 1.0
C      1  0.6118960000000  0.4924540000000  0.5580820000000 1.0
C      1  0.6069840000000  0.4519430000000  0.5202020000000 1.0
C      1  0.6053380000000  0.4777840000000  0.4538070000000 1.0
C      1  0.3860750000000  0.5286190000000  0.4529520000000 1.0
C      1  0.3867970000000  0.5439450000000  0.5208420000000 1.0
C      1  0.3966300000000  0.5010230000000  0.5571140000000 1.0
C      1  0.4076140000000  0.4582100000000  0.5050830000000 1.0
C      1  0.3875110000000  0.4624660000000  0.4509390000000 1.0
C      1  0.5145230000000  0.4639750000000  0.5857170000000 1.0
C      1  0.4962240000000  0.3954440000000  0.4949180000000 1.0
C      1  0.5104070000000  0.5793070000000  0.4466010000000 1.0
C      1  0.5120380000000  0.5746940000000  0.5629150000000 1.0
C      1  0.5044540000000  0.4710250000000  0.4087820000000 1.0
C      1  0.4222910000000  0.4797090000000  0.4906540000000 1.0
C      1  0.5639510000000  0.4861140000000  0.5186280000000 1.0
C      1  0.5075750000000  0.4904110000000  0.4889670000000 1.0
END
