TITL C-150268-3286-7 -103.022326827566 125000 -880.282177978349 0 0 129 (C1) n - 1
REM
REM in /rds/project/t2_vol4/rds-t2-cs072/BORA/CARBON/from-Arr/AIRSS/Generating-Clusters/GAP-ML-2020/Higher-Symm/SD-CG/HFTN-CG
REM
REM
REM
REM
REM
REM ./C.cell (b20cbc046b6831c77cfcea5457e17084)
REM AIRSS Version 0.9.1 bugfix July 2018 build 013d7b7c2542+ Fri, 06 Jul 2018 19:26:36 +0100
REM compiler GCC version 9.3.0
REM options -cpp -mtune=generic -march=x86-64 -g -O0
REM seed 2128651127 1844523444 -580061407 121685221 -590716017 -544770799 993804877 1495855255 -700825773 -1296790432 732790489 -743844136 -581898907 78252217 1596083238 1923963778 -2071211442 -1402348737 351907916 126883626 1840403034 790044999 1263370780 -1393680471 -131054788 270490586 -1839733187 -610117118 826996872 -27215326 -1514709794 -1196814739 -860347338
REM
CELL 1.54180   50.00000   50.00000   50.00000   90.00000   90.00000   90.00000
LATT -1
SFAC C  
C      1  0.4525080000000  0.4584170000000  0.5487320000000 1.0
C      1  0.5661080000000  0.4565300000000  0.5166300000000 1.0
C      1  0.4812680000000  0.4571390000000  0.4345360000000 1.0
C      1  0.4257640000000  0.5133140000000  0.5552900000000 1.0
C      1  0.5864080000000  0.5114620000000  0.5370950000000 1.0
C      1  0.4899000000000  0.5119910000000  0.4072330000000 1.0
C      1  0.4567170000000  0.4754940000000  0.5024050000000 1.0
C      1  0.5240450000000  0.4735180000000  0.5361760000000 1.0
C      1  0.5194160000000  0.4734560000000  0.4613490000000 1.0
C      1  0.5586560000000  0.4992070000000  0.4321530000000 1.0
C      1  0.4124500000000  0.5008960000000  0.4830220000000 1.0
C      1  0.5299570000000  0.5001640000000  0.5841950000000 1.0
C      1  0.4655560000000  0.4199540000000  0.4617490000000 1.0
C      1  0.4834620000000  0.4205270000000  0.5485890000000 1.0
C      1  0.5499340000000  0.4191340000000  0.4899850000000 1.0
C      1  0.4489620000000  0.4274620000000  0.5106160000000 1.0
C      1  0.5343300000000  0.4257670000000  0.5389230000000 1.0
C      1  0.5158580000000  0.4257170000000  0.4509640000000 1.0
C      1  0.4656580000000  0.5098820000000  0.4274330000000 1.0
C      1  0.4551440000000  0.5108090000000  0.5662530000000 1.0
C      1  0.5806590000000  0.5090910000000  0.5058840000000 1.0
C      1  0.5588080000000  0.5478520000000  0.5341450000000 1.0
C      1  0.5024400000000  0.5480730000000  0.4337280000000 1.0
C      1  0.4430080000000  0.5498610000000  0.5319970000000 1.0
C      1  0.4782630000000  0.5555260000000  0.4484890000000 1.0
C      1  0.4669090000000  0.5588190000000  0.5460100000000 1.0
C      1  0.5591230000000  0.5564170000000  0.5066270000000 1.0
C      1  0.4712300000000  0.4709460000000  0.4101980000000 1.0
C      1  0.4367790000000  0.4722140000000  0.5698060000000 1.0
C      1  0.5923590000000  0.4701520000000  0.5197670000000 1.0
C      1  0.5710200000000  0.5507770000000  0.4804150000000 1.0
C      1  0.4492130000000  0.5510120000000  0.4484330000000 1.0
C      1  0.4823740000000  0.5515840000000  0.5705030000000 1.0
C      1  0.5302260000000  0.5573110000000  0.5008430000000 1.0
C      1  0.4881230000000  0.5597540000000  0.4752900000000 1.0
C      1  0.4872780000000  0.5588670000000  0.5244250000000 1.0
C      1  0.4792480000000  0.4755010000000  0.5402490000000 1.0
C      1  0.5457050000000  0.4739680000000  0.4978620000000 1.0
C      1  0.4753950000000  0.4745800000000  0.4615470000000 1.0
C      1  0.5772920000000  0.5228380000000  0.4792720000000 1.0
C      1  0.4440840000000  0.5236790000000  0.4430390000000 1.0
C      1  0.4798290000000  0.5240430000000  0.5768850000000 1.0
C      1  0.5688210000000  0.5284860000000  0.5525050000000 1.0
C      1  0.5122870000000  0.5286880000000  0.4153620000000 1.0
C      1  0.4225050000000  0.5299520000000  0.5317570000000 1.0
C      1  0.3985380000000  0.4725570000000  0.5412120000000 1.0
C      1  0.5866850000000  0.4699930000000  0.5671280000000 1.0
C      1  0.5150010000000  0.4702150000000  0.3914800000000 1.0
C      1  0.5397920000000  0.4131340000000  0.5149970000000 1.0
C      1  0.4921440000000  0.4134320000000  0.4580400000000 1.0
C      1  0.4667640000000  0.4146860000000  0.5274360000000 1.0
C      1  0.4232250000000  0.4542820000000  0.4433060000000 1.0
C      1  0.4891700000000  0.4542960000000  0.5947480000000 1.0
C      1  0.5873490000000  0.4528900000000  0.4619090000000 1.0
C      1  0.4509010000000  0.5502380000000  0.5041440000000 1.0
C      1  0.5307930000000  0.5463340000000  0.5418100000000 1.0
C      1  0.5229760000000  0.5457170000000  0.4541530000000 1.0
C      1  0.4549300000000  0.4880550000000  0.5840110000000 1.0
C      1  0.5958470000000  0.4862130000000  0.4970890000000 1.0
C      1  0.4501170000000  0.4872800000000  0.4184950000000 1.0
C      1  0.5363710000000  0.5869750000000  0.4656400000000 1.0
C      1  0.4445790000000  0.5925220000000  0.4767400000000 1.0
C      1  0.5087350000000  0.5864900000000  0.5467220000000 1.0
C      1  0.5703780000000  0.4986600000000  0.4603040000000 1.0
C      1  0.4307440000000  0.4998930000000  0.4586030000000 1.0
C      1  0.4996930000000  0.4998400000000  0.5804340000000 1.0
C      1  0.4279180000000  0.4816690000000  0.4351270000000 1.0
C      1  0.4803740000000  0.4819340000000  0.5946770000000 1.0
C      1  0.5921510000000  0.4803910000000  0.4697350000000 1.0
C      1  0.5536530000000  0.4703970000000  0.4261140000000 1.0
C      1  0.4092260000000  0.4723700000000  0.4903880000000 1.0
C      1  0.5373060000000  0.4712330000000  0.5832830000000 1.0
C      1  0.4627410000000  0.4341110000000  0.4369400000000 1.0
C      1  0.4634300000000  0.4349910000000  0.5631970000000 1.0
C      1  0.5730110000000  0.4332290000000  0.4996510000000 1.0
C      1  0.5486780000000  0.4528930000000  0.5410370000000 1.0
C      1  0.5110200000000  0.4530210000000  0.4375200000000 1.0
C      1  0.4400940000000  0.4548970000000  0.5215140000000 1.0
C      1  0.5497050000000  0.5020280000000  0.5070090000000 1.0
C      1  0.4818450000000  0.5027140000000  0.4538410000000 1.0
C      1  0.4696620000000  0.5038170000000  0.5387970000000 1.0
C      1  0.4919030000000  0.4851500000000  0.3962470000000 1.0
C      1  0.4145100000000  0.4868170000000  0.5590640000000 1.0
C      1  0.5943950000000  0.4844990000000  0.5445160000000 1.0
C      1  0.5121490000000  0.4532450000000  0.5760000000000 1.0
C      1  0.5595850000000  0.4522470000000  0.4514490000000 1.0
C      1  0.4280420000000  0.4537760000000  0.4726070000000 1.0
C      1  0.4460480000000  0.4287020000000  0.4823600000000 1.0
C      1  0.5111470000000  0.4281070000000  0.5554480000000 1.0
C      1  0.5418720000000  0.4272970000000  0.4626400000000 1.0
C      1  0.5604940000000  0.4619620000000  0.5683310000000 1.0
C      1  0.5289010000000  0.4617300000000  0.4135550000000 1.0
C      1  0.4105550000000  0.4639240000000  0.5181250000000 1.0
C      1  0.5024690000000  0.4751770000000  0.5570850000000 1.0
C      1  0.5483970000000  0.4742370000000  0.4693690000000 1.0
C      1  0.4493490000000  0.4755740000000  0.4732490000000 1.0
C      1  0.4368900000000  0.4359940000000  0.4286320000000 1.0
C      1  0.4692190000000  0.4365840000000  0.5897450000000 1.0
C      1  0.5930420000000  0.4347790000000  0.4813030000000 1.0
C      1  0.4856960000000  0.5277860000000  0.4758360000000 1.0
C      1  0.4880340000000  0.5272100000000  0.5246590000000 1.0
C      1  0.5288400000000  0.5257780000000  0.4986950000000 1.0
C      1  0.5111520000000  0.4993770000000  0.4545050000000 1.0
C      1  0.4548730000000  0.5016180000000  0.5130370000000 1.0
C      1  0.5347640000000  0.4991610000000  0.5324370000000 1.0
C      1  0.5596010000000  0.5669620000000  0.4591760000000 1.0
C      1  0.4350220000000  0.5678620000000  0.4678980000000 1.0
C      1  0.5062760000000  0.5674540000000  0.5705980000000 1.0
C      1  0.5170080000000  0.5218220000000  0.5266350000000 1.0
C      1  0.5154440000000  0.5220140000000  0.4728210000000 1.0
C      1  0.4695180000000  0.5239510000000  0.5002370000000 1.0
C      1  0.5483800000000  0.5478880000000  0.4398160000000 1.0
C      1  0.4261170000000  0.5493090000000  0.4892490000000 1.0
C      1  0.5292080000000  0.5488590000000  0.5707220000000 1.0
C      1  0.5213840000000  0.6052910000000  0.4800270000000 1.0
C      1  0.4671280000000  0.5983130000000  0.4946300000000 1.0
C      1  0.4963750000000  0.6066960000000  0.5312510000000 1.0
C      1  0.5159750000000  0.5665440000000  0.5267740000000 1.0
C      1  0.5180600000000  0.5661690000000  0.4749060000000 1.0
C      1  0.4734330000000  0.5691360000000  0.4991790000000 1.0
C      1  0.5109680000000  0.6154380000000  0.5060750000000 1.0
C      1  0.4937760000000  0.6119170000000  0.4845320000000 1.0
C      1  0.4706480000000  0.6114910000000  0.5213830000000 1.0
C      1  0.4984280000000  0.4666930000000  0.4828940000000 1.0
C      1  0.4857120000000  0.4682760000000  0.5097550000000 1.0
C      1  0.5157980000000  0.4666530000000  0.5073980000000 1.0
C      1  0.4136100000000  0.5262380000000  0.5008340000000 1.0
C      1  0.5454900000000  0.5253440000000  0.5754630000000 1.0
C      1  0.5436860000000  0.5247180000000  0.4232530000000 1.0
END
