TITL C-150250-3245-4 -0.177735945661216 125000 -401.219023484974 0 0 58 (C1) n - 1
REM
REM in /rds/project/t2_vol4/rds-t2-cs072/BORA/CARBON/from-Arr/AIRSS/Generating-Clusters/GAP-ML-2020/Higher-Symm/SD-CG/HFTN-CG
REM
REM
REM
REM
REM
REM ./C.cell (b20cbc046b6831c77cfcea5457e17084)
REM AIRSS Version 0.9.1 bugfix July 2018 build 013d7b7c2542+ Fri, 06 Jul 2018 19:26:36 +0100
REM compiler GCC version 9.3.0
REM options -cpp -mtune=generic -march=x86-64 -g -O0
REM seed 558749999 1953743116 380721581 56962728 1573993978 1127689973 391795993 -1163988804 1636968933 841340623 -2013729691 -697645866 -1212222136 1868130831 1668348569 974828687 600418067 -1094493789 -550537177 -638362674 -1744733550 -709265585 581183253 -1389379507 1152256501 1002034430 -1176782623 -1285686559 -706783898 1948292742 -1500051193 1218299877 1373277160
REM
CELL 1.54180   50.00000   50.00000   50.00000   90.00000   90.00000   90.00000
LATT -1
SFAC C  
C      1  0.4746380000000  0.5067790000000  0.4921120000000 1.0
C      1  0.5334700000000  0.5149360000000  0.4729150000000 1.0
C      1  0.5235860000000  0.5164870000000  0.5032750000000 1.0
C      1  0.4493710000000  0.5122790000000  0.5354540000000 1.0
C      1  0.5338290000000  0.4828870000000  0.4679490000000 1.0
C      1  0.4872090000000  0.4896880000000  0.4735430000000 1.0
C      1  0.4638550000000  0.4905410000000  0.5490780000000 1.0
C      1  0.5123520000000  0.4912670000000  0.5123620000000 1.0
C      1  0.4308100000000  0.5048440000000  0.5159980000000 1.0
C      1  0.4763840000000  0.5163480000000  0.4352410000000 1.0
C      1  0.5757930000000  0.5142370000000  0.4947760000000 1.0
C      1  0.5178800000000  0.5203530000000  0.5655780000000 1.0
C      1  0.5665770000000  0.4856130000000  0.5239450000000 1.0
C      1  0.5063450000000  0.4878600000000  0.4272950000000 1.0
C      1  0.4328150000000  0.4824440000000  0.4813250000000 1.0
C      1  0.4839040000000  0.4974790000000  0.5670090000000 1.0
C      1  0.5055710000000  0.5721540000000  0.5188320000000 1.0
C      1  0.4823620000000  0.5678680000000  0.5019240000000 1.0
C      1  0.5013180000000  0.5674340000000  0.4794150000000 1.0
C      1  0.5248750000000  0.5685440000000  0.4969000000000 1.0
C      1  0.4997950000000  0.4348800000000  0.5163090000000 1.0
C      1  0.5229140000000  0.4348450000000  0.4982880000000 1.0
C      1  0.5043190000000  0.4340130000000  0.4748250000000 1.0
C      1  0.4820800000000  0.4314640000000  0.4937990000000 1.0
C      1  0.4812860000000  0.5448990000000  0.5508080000000 1.0
C      1  0.4566170000000  0.5295970000000  0.4828870000000 1.0
C      1  0.5171540000000  0.5291120000000  0.4526560000000 1.0
C      1  0.5441190000000  0.5325250000000  0.5235190000000 1.0
C      1  0.5181910000000  0.4741470000000  0.5397470000000 1.0
C      1  0.5549270000000  0.4696070000000  0.4831150000000 1.0
C      1  0.4740060000000  0.4692270000000  0.4534590000000 1.0
C      1  0.4499850000000  0.4586310000000  0.5166450000000 1.0
C      1  0.4334230000000  0.5119350000000  0.4871080000000 1.0
C      1  0.5054450000000  0.5152780000000  0.4310350000000 1.0
C      1  0.5676780000000  0.5148730000000  0.5229560000000 1.0
C      1  0.4895510000000  0.5251640000000  0.5688420000000 1.0
C      1  0.5744780000000  0.4857610000000  0.4951200000000 1.0
C      1  0.4764190000000  0.4874840000000  0.4308600000000 1.0
C      1  0.4298790000000  0.4772710000000  0.5093140000000 1.0
C      1  0.5124590000000  0.4908740000000  0.5634090000000 1.0
C      1  0.5442180000000  0.4511670000000  0.5041540000000 1.0
C      1  0.4955470000000  0.4542420000000  0.5357850000000 1.0
C      1  0.4588490000000  0.4459010000000  0.4923520000000 1.0
C      1  0.4995260000000  0.4508700000000  0.4530480000000 1.0
C      1  0.4614670000000  0.5498260000000  0.5058840000000 1.0
C      1  0.5059090000000  0.5572300000000  0.5416300000000 1.0
C      1  0.5473550000000  0.5519750000000  0.5000490000000 1.0
C      1  0.4967290000000  0.5478690000000  0.4606990000000 1.0
C      1  0.4710950000000  0.5349240000000  0.4565870000000 1.0
C      1  0.5581360000000  0.5305170000000  0.4807490000000 1.0
C      1  0.5283860000000  0.5399960000000  0.5476310000000 1.0
C      1  0.4603280000000  0.5388060000000  0.5326580000000 1.0
C      1  0.5195720000000  0.4708830000000  0.4444030000000 1.0
C      1  0.4506300000000  0.4626000000000  0.4699780000000 1.0
C      1  0.4687010000000  0.4650820000000  0.5368400000000 1.0
C      1  0.5458370000000  0.4662950000000  0.5288810000000 1.0
C      1  0.4953090000000  0.5139910000000  0.5102850000000 1.0
C      1  0.5087050000000  0.4770910000000  0.4872630000000 1.0
END
