TITL C-154517-3089-2 -0.0283997186482399 125000 -84.6537880411395 0 0 14 (C1) n - 1
REM
REM in /rds/project/t2_vol4/rds-t2-cs072/BORA/CARBON/from-Arr/AIRSS/Generating-Clusters/GAP-ML-2020/Higher-Symm/SD-CG/HFTN-CG
REM
REM
REM
REM
REM
REM ./C.cell (b20cbc046b6831c77cfcea5457e17084)
REM AIRSS Version 0.9.1 bugfix July 2018 build 013d7b7c2542+ Fri, 06 Jul 2018 19:26:36 +0100
REM compiler GCC version 9.3.0
REM options -cpp -mtune=generic -march=x86-64 -g -O0
REM seed 1868649546 1613002037 847918168 -2112927019 -1119771918 172381582 1446511076 -329272086 -1571746686 978441807 -2018970189 -1386047795 -1850507828 -2019882768 -263462535 1959147323 1146251107 -668913901 1418418100 1903009196 -2104071334 1841378747 -313675315 1826385263 1462101411 1571340450 -1944227356 2118297368 -1077380444 1946798387 468426525 -186803289 422548878
REM
CELL 1.54180   50.00000   50.00000   50.00000   90.00000   90.00000   90.00000
LATT -1
SFAC C  
C      1  0.5128420000000  0.4517200000000  0.4765220000000 1.0
C      1  0.5087190000000  0.4510410000000  0.5266690000000 1.0
C      1  0.4836320000000  0.4503650000000  0.5196620000000 1.0
C      1  0.4679780000000  0.4489300000000  0.4978980000000 1.0
C      1  0.4869720000000  0.4503510000000  0.4789350000000 1.0
C      1  0.5163930000000  0.5651490000000  0.4843470000000 1.0
C      1  0.5167050000000  0.5705640000000  0.5103550000000 1.0
C      1  0.4971310000000  0.5644100000000  0.5269840000000 1.0
C      1  0.4768820000000  0.5491540000000  0.5196960000000 1.0
C      1  0.4967270000000  0.5507810000000  0.4743260000000 1.0
C      1  0.4978600000000  0.5093610000000  0.4995600000000 1.0
C      1  0.5136630000000  0.4905500000000  0.5019350000000 1.0
C      1  0.4844160000000  0.5329150000000  0.4954710000000 1.0
C      1  0.5198060000000  0.4639470000000  0.5024840000000 1.0
END
