TITL C-15922-760-3 -0.0908604795258991 125000 -829.912728594018 0 0 120 (C2) n - 1
REM
REM in /rds/project/t2_vol4/rds-t2-cs072/BORA/CARBON/from-Arr/AIRSS/Generating-Clusters/GAP-ML-2020/Higher-Symm/SD-CG/HFTN-CG
REM
REM
REM
REM
REM
REM ./C.cell (b20cbc046b6831c77cfcea5457e17084)
REM AIRSS Version 0.9.1 bugfix July 2018 build 013d7b7c2542+ Fri, 06 Jul 2018 19:26:36 +0100
REM compiler GCC version 9.3.0
REM options -cpp -mtune=generic -march=x86-64 -g -O0
REM seed 1862519346 -1545954610 -1206192856 1128685088 -2110584090 -1279580182 -966963889 -398341202 -1859953828 1187574373 1744172912 833766672 717629736 -1096737363 1847031696 941265143 1314583510 933036706 -1393683172 -1782555795 1395574366 -1453956914 279966735 -2001739341 -477507291 1509512037 2083363156 1620345960 1130688156 -751245224 -1363097952 -1344140333 -1119978735
REM
CELL 1.54180   50.00000   50.00000   50.00000   90.00000   90.00000   90.00000
LATT -1
SFAC C  
C      1  0.4612220000000  0.4344150000000  0.4395850000000 1.0
C      1  0.4577640000000  0.5803170000000  0.4717810000000 1.0
C      1  0.4655040000000  0.4830860000000  0.5938130000000 1.0
C      1  0.5417840000000  0.4350410000000  0.4443930000000 1.0
C      1  0.5339590000000  0.5899870000000  0.4678470000000 1.0
C      1  0.5398550000000  0.4803570000000  0.5865140000000 1.0
C      1  0.4601490000000  0.4348970000000  0.5602700000000 1.0
C      1  0.4582150000000  0.5806360000000  0.5284550000000 1.0
C      1  0.4660380000000  0.4828510000000  0.4059940000000 1.0
C      1  0.5345010000000  0.4272140000000  0.5615530000000 1.0
C      1  0.5387770000000  0.5851140000000  0.5265880000000 1.0
C      1  0.5422320000000  0.4842810000000  0.4163320000000 1.0
C      1  0.5145460000000  0.4482670000000  0.5568240000000 1.0
C      1  0.5169640000000  0.4771210000000  0.4289590000000 1.0
C      1  0.5151540000000  0.5740780000000  0.5144920000000 1.0
C      1  0.4838930000000  0.4505840000000  0.5567650000000 1.0
C      1  0.4861770000000  0.4764800000000  0.4264900000000 1.0
C      1  0.4834660000000  0.5730880000000  0.5157120000000 1.0
C      1  0.5165330000000  0.4498490000000  0.4445590000000 1.0
C      1  0.5161110000000  0.4755490000000  0.5711770000000 1.0
C      1  0.5138210000000  0.5754220000000  0.4836130000000 1.0
C      1  0.4848450000000  0.4504100000000  0.4430930000000 1.0
C      1  0.4854580000000  0.4766550000000  0.5732140000000 1.0
C      1  0.4830340000000  0.5729620000000  0.4842940000000 1.0
C      1  0.6046720000000  0.5228550000000  0.5096970000000 1.0
C      1  0.6229930000000  0.4798020000000  0.5113150000000 1.0
C      1  0.6055230000000  0.5030520000000  0.4748090000000 1.0
C      1  0.3946550000000  0.5204500000000  0.5153940000000 1.0
C      1  0.3953870000000  0.4805260000000  0.5150430000000 1.0
C      1  0.3770100000000  0.4999330000000  0.4770210000000 1.0
C      1  0.6229890000000  0.5199360000000  0.4885630000000 1.0
C      1  0.6053450000000  0.4764460000000  0.4899820000000 1.0
C      1  0.6046140000000  0.4967120000000  0.5243820000000 1.0
C      1  0.3944750000000  0.5202880000000  0.4847660000000 1.0
C      1  0.3953280000000  0.4801720000000  0.4850600000000 1.0
C      1  0.3770080000000  0.5002970000000  0.5231540000000 1.0
C      1  0.5142200000000  0.4518270000000  0.4758870000000 1.0
C      1  0.5166000000000  0.5468760000000  0.4707560000000 1.0
C      1  0.5147040000000  0.5011570000000  0.5527020000000 1.0
C      1  0.4839330000000  0.4532330000000  0.4744810000000 1.0
C      1  0.4864410000000  0.5443230000000  0.4706530000000 1.0
C      1  0.4843490000000  0.5022510000000  0.5553710000000 1.0
C      1  0.5156530000000  0.4509220000000  0.5257350000000 1.0
C      1  0.5160670000000  0.5454840000000  0.5277410000000 1.0
C      1  0.5135560000000  0.5032540000000  0.4469410000000 1.0
C      1  0.4852990000000  0.4537800000000  0.5253490000000 1.0
C      1  0.4857800000000  0.5449690000000  0.5296630000000 1.0
C      1  0.4833980000000  0.5018880000000  0.4447830000000 1.0
C      1  0.4167980000000  0.4748010000000  0.5329510000000 1.0
C      1  0.4316050000000  0.5001120000000  0.4573790000000 1.0
C      1  0.4167490000000  0.5259840000000  0.5332580000000 1.0
C      1  0.5680990000000  0.4628910000000  0.5209610000000 1.0
C      1  0.5835660000000  0.5158110000000  0.4612690000000 1.0
C      1  0.5833000000000  0.5414890000000  0.5059000000000 1.0
C      1  0.4166990000000  0.4741440000000  0.4670230000000 1.0
C      1  0.4319020000000  0.5004000000000  0.5426210000000 1.0
C      1  0.4164320000000  0.5256340000000  0.4669460000000 1.0
C      1  0.5832520000000  0.4582080000000  0.4941230000000 1.0
C      1  0.5832040000000  0.4840650000000  0.5382950000000 1.0
C      1  0.5683930000000  0.5368570000000  0.4785900000000 1.0
C      1  0.5654400000000  0.4517490000000  0.4448280000000 1.0
C      1  0.5596340000000  0.5876270000000  0.4816680000000 1.0
C      1  0.5622100000000  0.4648940000000  0.5778300000000 1.0
C      1  0.4387730000000  0.4497490000000  0.4307560000000 1.0
C      1  0.4342660000000  0.5717570000000  0.4862630000000 1.0
C      1  0.4395830000000  0.4724790000000  0.5851920000000 1.0
C      1  0.5604210000000  0.4399840000000  0.5664280000000 1.0
C      1  0.5612250000000  0.5850940000000  0.5088940000000 1.0
C      1  0.5657310000000  0.4760190000000  0.4309860000000 1.0
C      1  0.4377940000000  0.4501490000000  0.5693200000000 1.0
C      1  0.4345590000000  0.5719040000000  0.5142030000000 1.0
C      1  0.4403630000000  0.4720610000000  0.4149500000000 1.0
C      1  0.4259070000000  0.4495850000000  0.5419110000000 1.0
C      1  0.4340700000000  0.4979260000000  0.4260860000000 1.0
C      1  0.4270040000000  0.5524240000000  0.5356680000000 1.0
C      1  0.5655950000000  0.4368470000000  0.5382180000000 1.0
C      1  0.5733420000000  0.5043530000000  0.4373820000000 1.0
C      1  0.5738310000000  0.5619020000000  0.5231450000000 1.0
C      1  0.4261680000000  0.4490020000000  0.4579670000000 1.0
C      1  0.4344080000000  0.4984780000000  0.5738040000000 1.0
C      1  0.4266550000000  0.5520510000000  0.4649240000000 1.0
C      1  0.5729970000000  0.4429000000000  0.4724310000000 1.0
C      1  0.5740960000000  0.4889140000000  0.5646130000000 1.0
C      1  0.5659270000000  0.5650500000000  0.4648360000000 1.0
C      1  0.4718570000000  0.5471960000000  0.4434410000000 1.0
C      1  0.4743380000000  0.5246780000000  0.5722660000000 1.0
C      1  0.4665960000000  0.4315390000000  0.4860000000000 1.0
C      1  0.5268270000000  0.5500920000000  0.4428460000000 1.0
C      1  0.5330610000000  0.5217810000000  0.5660170000000 1.0
C      1  0.5275500000000  0.4268760000000  0.4872100000000 1.0
C      1  0.4724510000000  0.5476380000000  0.5569330000000 1.0
C      1  0.4731700000000  0.5244500000000  0.4280430000000 1.0
C      1  0.4669410000000  0.4319370000000  0.5141480000000 1.0
C      1  0.5334060000000  0.5463560000000  0.5522870000000 1.0
C      1  0.5281400000000  0.5253840000000  0.4308460000000 1.0
C      1  0.5256650000000  0.4250780000000  0.5147610000000 1.0
C      1  0.4708890000000  0.4775090000000  0.4864380000000 1.0
C      1  0.4724880000000  0.5230440000000  0.4864580000000 1.0
C      1  0.4645220000000  0.5003730000000  0.5300710000000 1.0
C      1  0.5282070000000  0.4762960000000  0.4864270000000 1.0
C      1  0.5360390000000  0.5258930000000  0.4848450000000 1.0
C      1  0.5277080000000  0.4992390000000  0.5258180000000 1.0
C      1  0.4722930000000  0.4780210000000  0.5135690000000 1.0
C      1  0.4717930000000  0.5236060000000  0.5137430000000 1.0
C      1  0.4639600000000  0.5001770000000  0.4700000000000 1.0
C      1  0.5354790000000  0.4737720000000  0.5147110000000 1.0
C      1  0.5291110000000  0.5229910000000  0.5126950000000 1.0
C      1  0.5275110000000  0.5002060000000  0.4732710000000 1.0
C      1  0.4561510000000  0.5109520000000  0.5885730000000 1.0
C      1  0.4469740000000  0.4296920000000  0.4662140000000 1.0
C      1  0.4493720000000  0.5625630000000  0.4493120000000 1.0
C      1  0.5531850000000  0.5056960000000  0.5769450000000 1.0
C      1  0.5501450000000  0.4239810000000  0.4710290000000 1.0
C      1  0.5443790000000  0.5715200000000  0.4464500000000 1.0
C      1  0.4556170000000  0.5106140000000  0.4112880000000 1.0
C      1  0.4468180000000  0.4305150000000  0.5335420000000 1.0
C      1  0.4498550000000  0.5630990000000  0.5513510000000 1.0
C      1  0.5506240000000  0.5126170000000  0.4204730000000 1.0
C      1  0.5438530000000  0.4178190000000  0.5348000000000 1.0
C      1  0.5530260000000  0.5644150000000  0.5439930000000 1.0
END
