TITL C-15943-638-9 -138.66856895014 125000 -710.852341580942 0 0 105 (C1) n - 1
REM
REM in /rds/project/t2_vol4/rds-t2-cs072/BORA/CARBON/from-Arr/AIRSS/Generating-Clusters/GAP-ML-2020/Higher-Symm/SD-CG/HFTN-CG
REM
REM
REM
REM
REM
REM ./C.cell (b20cbc046b6831c77cfcea5457e17084)
REM AIRSS Version 0.9.1 bugfix July 2018 build 013d7b7c2542+ Fri, 06 Jul 2018 19:26:36 +0100
REM compiler GCC version 9.3.0
REM options -cpp -mtune=generic -march=x86-64 -g -O0
REM seed -2106195521 2104828582 1978031645 -1660922510 1653370879 675268003 254418416 -570102721 1143676377 -1413585481 1660114549 616110844 -2125955300 -736466328 -1530679189 1632431477 968851456 -1225530485 -597698284 440946194 -351743724 1199347017 352336721 1735465661 571261891 1859574226 -470535174 -1716210121 1720351585 -60368164 -895282810 -2032113439 -1213796823
REM
CELL 1.54180   50.00000   50.00000   50.00000   90.00000   90.00000   90.00000
LATT -1
SFAC C  
C      1  0.5668040000000  0.4446290000000  0.5151560000000 1.0
C      1  0.5681390000000  0.5116530000000  0.4419510000000 1.0
C      1  0.5663970000000  0.5426700000000  0.5383520000000 1.0
C      1  0.4325690000000  0.5538210000000  0.5173930000000 1.0
C      1  0.4326480000000  0.4896130000000  0.4455430000000 1.0
C      1  0.4326400000000  0.4545840000000  0.5353370000000 1.0
C      1  0.5700240000000  0.4691140000000  0.4995060000000 1.0
C      1  0.5704960000000  0.5123850000000  0.4711070000000 1.0
C      1  0.5693270000000  0.5175210000000  0.5240250000000 1.0
C      1  0.4322660000000  0.5293330000000  0.5018630000000 1.0
C      1  0.4322880000000  0.4883030000000  0.4748350000000 1.0
C      1  0.4330060000000  0.4800490000000  0.5211450000000 1.0
C      1  0.4599330000000  0.4977630000000  0.4839730000000 1.0
C      1  0.4598980000000  0.5191470000000  0.5068830000000 1.0
C      1  0.4612570000000  0.4815590000000  0.5101450000000 1.0
C      1  0.5436980000000  0.5023970000000  0.4800810000000 1.0
C      1  0.5444550000000  0.4830480000000  0.5055990000000 1.0
C      1  0.5434980000000  0.5151630000000  0.5088780000000 1.0
C      1  0.5302290000000  0.4909120000000  0.5767220000000 1.0
C      1  0.5299740000000  0.4356940000000  0.4518220000000 1.0
C      1  0.5396790000000  0.5741870000000  0.4675910000000 1.0
C      1  0.4589930000000  0.5071430000000  0.5782710000000 1.0
C      1  0.4687900000000  0.5632790000000  0.4531390000000 1.0
C      1  0.4591320000000  0.4248400000000  0.4667770000000 1.0
C      1  0.4956120000000  0.5380060000000  0.5829220000000 1.0
C      1  0.4957290000000  0.4068970000000  0.4913080000000 1.0
C      1  0.4971010000000  0.5674120000000  0.4467040000000 1.0
C      1  0.5018010000000  0.4867140000000  0.5825090000000 1.0
C      1  0.5016920000000  0.5910360000000  0.4916220000000 1.0
C      1  0.5017090000000  0.4318680000000  0.4460190000000 1.0
C      1  0.5240710000000  0.4082280000000  0.4950060000000 1.0
C      1  0.5184560000000  0.5539280000000  0.4301860000000 1.0
C      1  0.5236950000000  0.5419450000000  0.5792350000000 1.0
C      1  0.4737230000000  0.5903760000000  0.4972840000000 1.0
C      1  0.4803420000000  0.4463530000000  0.4302370000000 1.0
C      1  0.4808040000000  0.4647550000000  0.5779140000000 1.0
C      1  0.5071690000000  0.5781520000000  0.5177700000000 1.0
C      1  0.5093220000000  0.4453640000000  0.5543600000000 1.0
C      1  0.5085620000000  0.4795750000000  0.4238150000000 1.0
C      1  0.4910810000000  0.4120070000000  0.5202650000000 1.0
C      1  0.4897640000000  0.5606810000000  0.5650800000000 1.0
C      1  0.4907300000000  0.5207740000000  0.4236620000000 1.0
C      1  0.5040160000000  0.4695780000000  0.5332370000000 1.0
C      1  0.5024960000000  0.4853110000000  0.4564810000000 1.0
C      1  0.5028950000000  0.5451530000000  0.5079720000000 1.0
C      1  0.5006420000000  0.5267840000000  0.5308100000000 1.0
C      1  0.4995130000000  0.5149430000000  0.4572970000000 1.0
C      1  0.5017460000000  0.4574360000000  0.5062760000000 1.0
C      1  0.5521070000000  0.4901080000000  0.4319000000000 1.0
C      1  0.5535020000000  0.5628550000000  0.5230310000000 1.0
C      1  0.5538790000000  0.4479830000000  0.5406490000000 1.0
C      1  0.4482380000000  0.5106790000000  0.4344520000000 1.0
C      1  0.4479890000000  0.4345720000000  0.5220140000000 1.0
C      1  0.4453950000000  0.5496100000000  0.5427160000000 1.0
C      1  0.5204910000000  0.4131020000000  0.5238530000000 1.0
C      1  0.5164440000000  0.5275280000000  0.4164180000000 1.0
C      1  0.5187470000000  0.5645730000000  0.5607560000000 1.0
C      1  0.4786010000000  0.5827280000000  0.5255110000000 1.0
C      1  0.4826770000000  0.4728100000000  0.4168500000000 1.0
C      1  0.4832720000000  0.4399370000000  0.5613010000000 1.0
C      1  0.4552980000000  0.4404770000000  0.4432730000000 1.0
C      1  0.4579030000000  0.5786000000000  0.4764310000000 1.0
C      1  0.4555770000000  0.4788130000000  0.5771320000000 1.0
C      1  0.5436220000000  0.5600970000000  0.4431320000000 1.0
C      1  0.5405030000000  0.4204260000000  0.4749470000000 1.0
C      1  0.5403210000000  0.5186810000000  0.5786020000000 1.0
C      1  0.4503480000000  0.4401950000000  0.4907300000000 1.0
C      1  0.4530730000000  0.5362470000000  0.4541510000000 1.0
C      1  0.4490280000000  0.5197480000000  0.5531120000000 1.0
C      1  0.5512130000000  0.5584300000000  0.4904770000000 1.0
C      1  0.5476490000000  0.4626700000000  0.4517790000000 1.0
C      1  0.5492720000000  0.4781000000000  0.5539260000000 1.0
C      1  0.5646820000000  0.5407960000000  0.4457660000000 1.0
C      1  0.5626180000000  0.5244790000000  0.5614440000000 1.0
C      1  0.5629160000000  0.4329790000000  0.4880210000000 1.0
C      1  0.4354750000000  0.4605520000000  0.4479600000000 1.0
C      1  0.4352730000000  0.4719510000000  0.5583660000000 1.0
C      1  0.4365290000000  0.5656020000000  0.4904900000000 1.0
C      1  0.4758840000000  0.4601990000000  0.4936080000000 1.0
C      1  0.4748820000000  0.5228800000000  0.4705900000000 1.0
C      1  0.4747350000000  0.5138490000000  0.5333130000000 1.0
C      1  0.5282160000000  0.5384280000000  0.4938010000000 1.0
C      1  0.5280180000000  0.4776540000000  0.4682630000000 1.0
C      1  0.5292530000000  0.4844740000000  0.5335050000000 1.0
C      1  0.4709990000000  0.5005840000000  0.4199770000000 1.0
C      1  0.4686020000000  0.5665000000000  0.5466190000000 1.0
C      1  0.4719590000000  0.4263780000000  0.5361890000000 1.0
C      1  0.5284630000000  0.4996670000000  0.4188000000000 1.0
C      1  0.5309930000000  0.4309960000000  0.5431470000000 1.0
C      1  0.5296970000000  0.5736080000000  0.5356950000000 1.0
C      1  0.5247120000000  0.4637510000000  0.4928830000000 1.0
C      1  0.5244340000000  0.5240760000000  0.4692010000000 1.0
C      1  0.5242090000000  0.5126580000000  0.5320730000000 1.0
C      1  0.4782640000000  0.5393630000000  0.4941920000000 1.0
C      1  0.4779670000000  0.4758220000000  0.4694080000000 1.0
C      1  0.4788350000000  0.4854790000000  0.5338960000000 1.0
C      1  0.4331330000000  0.5421210000000  0.4757630000000 1.0
C      1  0.4314440000000  0.4967460000000  0.5447720000000 1.0
C      1  0.4317180000000  0.4593270000000  0.4761990000000 1.0
C      1  0.5676830000000  0.4563010000000  0.4733510000000 1.0
C      1  0.5682500000000  0.5006820000000  0.5481550000000 1.0
C      1  0.5702200000000  0.5413030000000  0.4736150000000 1.0
C      1  0.5120900000000  0.5819860000000  0.4673520000000 1.0
C      1  0.4861980000000  0.4162000000000  0.4664070000000 1.0
C      1  0.4860080000000  0.5115600000000  0.5859690000000 1.0
END
