TITL C-156514-8916-1 -731.083590831605 125000 -1130.3538979749 0 0 164 (C1) n - 1
REM
REM in /rds/project/t2_vol4/rds-t2-cs072/BORA/CARBON/from-Arr/AIRSS/Generating-Clusters/GAP-ML-2020/Higher-Symm/SD-CG/HFTN-CG/C160-200
REM
REM
REM
REM
REM
REM ./C.cell (6b4489405718ea1b717e0baf1da4c2d9)
REM AIRSS Version 0.9.1 bugfix July 2018 build 013d7b7c2542+ Fri, 06 Jul 2018 19:26:36 +0100
REM compiler GCC version 9.3.0
REM options -cpp -mtune=generic -march=x86-64 -g -O0
REM seed 1417370256 1081766982 -103003866 -1504869039 1983136049 1340801509 -1865524694 -1967411996 1841329061 375630088 1580034462 807867167 -97963949 -1825620494 315311174 2062998400 -1658422079 1662431492 -181234656 -379895884 -2060932163 -626900788 -710832008 -2066824535 182713358 446607650 1298710217 733497893 340022468 -981284832 1869508973 -1248178686 -3421678
REM
CELL 1.54180   50.00000   50.00000   50.00000   90.00000   90.00000   90.00000
LATT -1
SFAC C  
C      1  0.5597080000000  0.5353480000000  0.5414800000000 1.0
C      1  0.5612020000000  0.5208030000000  0.4493030000000 1.0
C      1  0.5574360000000  0.4503440000000  0.5020940000000 1.0
C      1  0.4634640000000  0.4981160000000  0.5969240000000 1.0
C      1  0.4611060000000  0.5845050000000  0.4532410000000 1.0
C      1  0.4624560000000  0.4175980000000  0.4506090000000 1.0
C      1  0.5210200000000  0.4553520000000  0.4242850000000 1.0
C      1  0.5232530000000  0.4585000000000  0.5767050000000 1.0
C      1  0.5206690000000  0.5895090000000  0.4977690000000 1.0
C      1  0.4569620000000  0.4682650000000  0.4062580000000 1.0
C      1  0.4588450000000  0.4338150000000  0.5767910000000 1.0
C      1  0.4566400000000  0.5967450000000  0.5192520000000 1.0
C      1  0.4625430000000  0.5968520000000  0.5471530000000 1.0
C      1  0.4628530000000  0.4925590000000  0.3923810000000 1.0
C      1  0.4657220000000  0.4104220000000  0.5615980000000 1.0
C      1  0.4738060000000  0.4818210000000  0.4735540000000 1.0
C      1  0.4732920000000  0.4842740000000  0.5353950000000 1.0
C      1  0.4747570000000  0.5321530000000  0.4948140000000 1.0
C      1  0.4969190000000  0.3863900000000  0.4822150000000 1.0
C      1  0.4971400000000  0.5419050000000  0.6079100000000 1.0
C      1  0.4961860000000  0.5732550000000  0.4101100000000 1.0
C      1  0.5892910000000  0.5267000000000  0.4541060000000 1.0
C      1  0.5807660000000  0.4330940000000  0.5058130000000 1.0
C      1  0.5877350000000  0.5357910000000  0.5472800000000 1.0
C      1  0.5213480000000  0.5365480000000  0.4734310000000 1.0
C      1  0.5188020000000  0.4623400000000  0.4816810000000 1.0
C      1  0.5204780000000  0.5051840000000  0.5416490000000 1.0
C      1  0.4450210000000  0.4904690000000  0.5278130000000 1.0
C      1  0.4443450000000  0.5265200000000  0.4943730000000 1.0
C      1  0.4442800000000  0.4812500000000  0.4800990000000 1.0
C      1  0.5929670000000  0.4655070000000  0.5419740000000 1.0
C      1  0.5936890000000  0.5624880000000  0.5069090000000 1.0
C      1  0.5912990000000  0.4773150000000  0.4509000000000 1.0
C      1  0.4715700000000  0.4928810000000  0.4455070000000 1.0
C      1  0.4719880000000  0.4548970000000  0.5364540000000 1.0
C      1  0.4722060000000  0.5501770000000  0.5196550000000 1.0
C      1  0.4930690000000  0.4021030000000  0.5592090000000 1.0
C      1  0.4894960000000  0.6009380000000  0.5561330000000 1.0
C      1  0.4897670000000  0.4986890000000  0.3843020000000 1.0
C      1  0.4174940000000  0.4347520000000  0.4863590000000 1.0
C      1  0.4172470000000  0.5195070000000  0.5640530000000 1.0
C      1  0.4166160000000  0.5446840000000  0.4512850000000 1.0
C      1  0.5243650000000  0.4831120000000  0.4349820000000 1.0
C      1  0.5253860000000  0.4538690000000  0.5469990000000 1.0
C      1  0.5241320000000  0.5657360000000  0.5160690000000 1.0
C      1  0.5700960000000  0.4546410000000  0.5577210000000 1.0
C      1  0.5682520000000  0.5782170000000  0.5115050000000 1.0
C      1  0.5689680000000  0.4722150000000  0.4309360000000 1.0
C      1  0.5002750000000  0.4503410000000  0.5288520000000 1.0
C      1  0.5000540000000  0.5499890000000  0.5284390000000 1.0
C      1  0.4997770000000  0.5012860000000  0.4417110000000 1.0
C      1  0.4599150000000  0.5179940000000  0.4049510000000 1.0
C      1  0.4618690000000  0.4081490000000  0.5332990000000 1.0
C      1  0.4601480000000  0.5729330000000  0.5626860000000 1.0
C      1  0.4003510000000  0.4582260000000  0.5268200000000 1.0
C      1  0.4000240000000  0.5417120000000  0.5228020000000 1.0
C      1  0.3995980000000  0.4977350000000  0.4522420000000 1.0
C      1  0.5490330000000  0.5725890000000  0.5316190000000 1.0
C      1  0.5502730000000  0.4924450000000  0.4224450000000 1.0
C      1  0.5509020000000  0.4375990000000  0.5453220000000 1.0
C      1  0.5069240000000  0.4355220000000  0.5886160000000 1.0
C      1  0.5031290000000  0.6100760000000  0.5121840000000 1.0
C      1  0.5038680000000  0.4564590000000  0.3987790000000 1.0
C      1  0.5377060000000  0.4370350000000  0.4835500000000 1.0
C      1  0.5408420000000  0.5206210000000  0.5613260000000 1.0
C      1  0.5414400000000  0.5453510000000  0.4504350000000 1.0
C      1  0.3961600000000  0.4520050000000  0.4793300000000 1.0
C      1  0.3959600000000  0.5044600000000  0.5528780000000 1.0
C      1  0.3953780000000  0.5419560000000  0.4698760000000 1.0
C      1  0.5109170000000  0.5225700000000  0.5182050000000 1.0
C      1  0.5110330000000  0.5081020000000  0.4702880000000 1.0
C      1  0.5090920000000  0.4734450000000  0.5087620000000 1.0
C      1  0.4811650000000  0.5747000000000  0.4325280000000 1.0
C      1  0.4825720000000  0.4059730000000  0.4697990000000 1.0
C      1  0.4829790000000  0.5213150000000  0.5976590000000 1.0
C      1  0.5300530000000  0.4849120000000  0.4661840000000 1.0
C      1  0.5303290000000  0.4802220000000  0.5296410000000 1.0
C      1  0.5310410000000  0.5382650000000  0.5013770000000 1.0
C      1  0.4587370000000  0.5415930000000  0.4443800000000 1.0
C      1  0.4595430000000  0.4308640000000  0.4925110000000 1.0
C      1  0.4591620000000  0.5273140000000  0.5643960000000 1.0
C      1  0.6029850000000  0.5655590000000  0.4813020000000 1.0
C      1  0.5980230000000  0.4572110000000  0.4701770000000 1.0
C      1  0.6004520000000  0.4937880000000  0.5411980000000 1.0
C      1  0.5889220000000  0.5548230000000  0.4604580000000 1.0
C      1  0.5832910000000  0.4336030000000  0.4770090000000 1.0
C      1  0.5873460000000  0.5109210000000  0.5597340000000 1.0
C      1  0.5302290000000  0.4167350000000  0.5049740000000 1.0
C      1  0.5285120000000  0.5484760000000  0.5702900000000 1.0
C      1  0.5288750000000  0.5379140000000  0.4225520000000 1.0
C      1  0.5050690000000  0.4765340000000  0.3793740000000 1.0
C      1  0.5089010000000  0.4089090000000  0.5803490000000 1.0
C      1  0.5044350000000  0.6165440000000  0.5393720000000 1.0
C      1  0.5593120000000  0.4265030000000  0.4634900000000 1.0
C      1  0.5635330000000  0.5077570000000  0.5767170000000 1.0
C      1  0.5627240000000  0.5665360000000  0.4531180000000 1.0
C      1  0.4776130000000  0.4306670000000  0.4303150000000 1.0
C      1  0.4798550000000  0.4747830000000  0.5955850000000 1.0
C      1  0.4768110000000  0.5955780000000  0.4743530000000 1.0
C      1  0.4253840000000  0.5162870000000  0.4478680000000 1.0
C      1  0.4262020000000  0.4454170000000  0.5129060000000 1.0
C      1  0.4259120000000  0.5362730000000  0.5407510000000 1.0
C      1  0.6022080000000  0.5025370000000  0.4634950000000 1.0
C      1  0.5993070000000  0.4526640000000  0.5173020000000 1.0
C      1  0.6023420000000  0.5384580000000  0.5234270000000 1.0
C      1  0.4769900000000  0.4478020000000  0.4067540000000 1.0
C      1  0.4797560000000  0.4456470000000  0.5928730000000 1.0
C      1  0.4761490000000  0.6072090000000  0.5011430000000 1.0
C      1  0.5592870000000  0.4883030000000  0.5956320000000 1.0
C      1  0.5568930000000  0.5914340000000  0.4633240000000 1.0
C      1  0.5560170000000  0.4217780000000  0.4368970000000 1.0
C      1  0.4994360000000  0.4437370000000  0.4418780000000 1.0
C      1  0.5020700000000  0.4794530000000  0.5791080000000 1.0
C      1  0.4997870000000  0.5800910000000  0.4783620000000 1.0
C      1  0.5095020000000  0.5609830000000  0.5926180000000 1.0
C      1  0.5094650000000  0.5506630000000  0.4011580000000 1.0
C      1  0.5103410000000  0.3905180000000  0.5059020000000 1.0
C      1  0.4338100000000  0.4787470000000  0.5568920000000 1.0
C      1  0.4340810000000  0.5565040000000  0.4903530000000 1.0
C      1  0.4342100000000  0.4625500000000  0.4557430000000 1.0
C      1  0.5510790000000  0.5597500000000  0.5558350000000 1.0
C      1  0.5518360000000  0.5198950000000  0.4212300000000 1.0
C      1  0.5551480000000  0.4237770000000  0.5207090000000 1.0
C      1  0.4866660000000  0.5239040000000  0.5678540000000 1.0
C      1  0.4859840000000  0.5476030000000  0.4448620000000 1.0
C      1  0.4867140000000  0.4302180000000  0.4868840000000 1.0
C      1  0.4892710000000  0.5251450000000  0.4004900000000 1.0
C      1  0.4915930000000  0.4024710000000  0.5282810000000 1.0
C      1  0.4895710000000  0.5734030000000  0.5705780000000 1.0
C      1  0.5014530000000  0.5484230000000  0.5574270000000 1.0
C      1  0.5012440000000  0.5269650000000  0.4284670000000 1.0
C      1  0.5026960000000  0.4265580000000  0.5125460000000 1.0
C      1  0.6087930000000  0.4678850000000  0.4944880000000 1.0
C      1  0.6091600000000  0.5102070000000  0.5175390000000 1.0
C      1  0.6126490000000  0.4960500000000  0.4914730000000 1.0
C      1  0.4043260000000  0.4693430000000  0.4576280000000 1.0
C      1  0.4043660000000  0.4769250000000  0.5491740000000 1.0
C      1  0.4042460000000  0.5515730000000  0.4956240000000 1.0
C      1  0.4344450000000  0.5076940000000  0.4758100000000 1.0
C      1  0.4365400000000  0.4735580000000  0.5063590000000 1.0
C      1  0.4362960000000  0.5164200000000  0.5200650000000 1.0
C      1  0.5510670000000  0.5907600000000  0.4899580000000 1.0
C      1  0.5514900000000  0.4476180000000  0.4286100000000 1.0
C      1  0.5535930000000  0.4663350000000  0.5799870000000 1.0
C      1  0.5557070000000  0.5273260000000  0.5101020000000 1.0
C      1  0.5550410000000  0.4974130000000  0.4713900000000 1.0
C      1  0.5544980000000  0.4781630000000  0.5146340000000 1.0
C      1  0.4947910000000  0.5503820000000  0.4735580000000 1.0
C      1  0.4930750000000  0.4548300000000  0.4698990000000 1.0
C      1  0.4951490000000  0.4975880000000  0.5557140000000 1.0
C      1  0.4405320000000  0.5603360000000  0.4590770000000 1.0
C      1  0.4412710000000  0.4338150000000  0.4686600000000 1.0
C      1  0.4411190000000  0.5050910000000  0.5743350000000 1.0
C      1  0.4513630000000  0.5700160000000  0.5103020000000 1.0
C      1  0.4509700000000  0.4736390000000  0.4337310000000 1.0
C      1  0.4508640000000  0.4544950000000  0.5590970000000 1.0
C      1  0.4525600000000  0.5490240000000  0.5463690000000 1.0
C      1  0.4521800000000  0.5157420000000  0.4337650000000 1.0
C      1  0.4529680000000  0.4334790000000  0.5204480000000 1.0
C      1  0.3828990000000  0.5176360000000  0.4614110000000 1.0
C      1  0.3840900000000  0.4566520000000  0.5047300000000 1.0
C      1  0.3837380000000  0.5237170000000  0.5357260000000 1.0
C      1  0.5583180000000  0.5010420000000  0.4994160000000 1.0
C      1  0.4933340000000  0.5042930000000  0.4949180000000 1.0
END
