TITL C-156510-8886-1 5.8498241741375 125000 -1312.14741661857 0 0 190 (C1) n - 1
REM
REM in /rds/project/t2_vol4/rds-t2-cs072/BORA/CARBON/from-Arr/AIRSS/Generating-Clusters/GAP-ML-2020/Higher-Symm/SD-CG/HFTN-CG/C160-200
REM
REM
REM
REM
REM
REM ./C.cell (6b4489405718ea1b717e0baf1da4c2d9)
REM AIRSS Version 0.9.1 bugfix July 2018 build 013d7b7c2542+ Fri, 06 Jul 2018 19:26:36 +0100
REM compiler GCC version 9.3.0
REM options -cpp -mtune=generic -march=x86-64 -g -O0
REM seed 2138033283 160388363 1556131330 -2131074716 -1823962626 -589653834 1256852149 1579978599 -1018309024 2035885581 -2007112647 698320021 -1976270240 74235490 308363823 -573096799 1094265993 -1110963958 513767732 -949314745 465632885 -1336456137 -819220381 778971917 742400465 1663150041 213773244 -726029829 2111883310 490364501 2005603181 1830078657 -931466045
REM
CELL 1.54180   50.00000   50.00000   50.00000   90.00000   90.00000   90.00000
LATT -1
SFAC C  
C      1  0.5828690000000  0.4877110000000  0.4337820000000 1.0
C      1  0.4168650000000  0.4879310000000  0.5667870000000 1.0
C      1  0.4170160000000  0.4883740000000  0.4335820000000 1.0
C      1  0.5835920000000  0.4887150000000  0.5665110000000 1.0
C      1  0.5334220000000  0.4002230000000  0.5357140000000 1.0
C      1  0.4657050000000  0.4012380000000  0.4616250000000 1.0
C      1  0.4695480000000  0.3953300000000  0.5204220000000 1.0
C      1  0.5321630000000  0.3999030000000  0.4667090000000 1.0
C      1  0.4839760000000  0.4241190000000  0.4167080000000 1.0
C      1  0.5170080000000  0.4252830000000  0.5831330000000 1.0
C      1  0.5155630000000  0.4236890000000  0.4180190000000 1.0
C      1  0.4863840000000  0.4273770000000  0.5832790000000 1.0
C      1  0.5584870000000  0.5710490000000  0.5515320000000 1.0
C      1  0.4415600000000  0.5708210000000  0.4483960000000 1.0
C      1  0.4414870000000  0.5706790000000  0.5517490000000 1.0
C      1  0.5583880000000  0.5704990000000  0.4481550000000 1.0
C      1  0.5874860000000  0.5178880000000  0.4378250000000 1.0
C      1  0.4125130000000  0.5180890000000  0.5624150000000 1.0
C      1  0.4126330000000  0.5185600000000  0.4378510000000 1.0
C      1  0.5879390000000  0.5188400000000  0.5621810000000 1.0
C      1  0.4727300000000  0.5090080000000  0.5931480000000 1.0
C      1  0.5274760000000  0.5084600000000  0.4074920000000 1.0
C      1  0.5280430000000  0.5093130000000  0.5929740000000 1.0
C      1  0.4724240000000  0.5088040000000  0.4072680000000 1.0
C      1  0.4846050000000  0.5462260000000  0.4859600000000 1.0
C      1  0.5152520000000  0.5462800000000  0.5142760000000 1.0
C      1  0.5152190000000  0.5462740000000  0.4859300000000 1.0
C      1  0.4846440000000  0.5461530000000  0.5143230000000 1.0
C      1  0.5310870000000  0.4198140000000  0.5581180000000 1.0
C      1  0.4680940000000  0.4197210000000  0.4402020000000 1.0
C      1  0.4730360000000  0.4235030000000  0.5589870000000 1.0
C      1  0.5297870000000  0.4192350000000  0.4434920000000 1.0
C      1  0.4866140000000  0.5782420000000  0.3993820000000 1.0
C      1  0.5138120000000  0.5785410000000  0.6007640000000 1.0
C      1  0.5140750000000  0.5776360000000  0.3987050000000 1.0
C      1  0.4863130000000  0.5784580000000  0.6007900000000 1.0
C      1  0.5540230000000  0.4435030000000  0.5250990000000 1.0
C      1  0.4457350000000  0.4436290000000  0.4748790000000 1.0
C      1  0.4459470000000  0.4422470000000  0.5246190000000 1.0
C      1  0.5536560000000  0.4432700000000  0.4759260000000 1.0
C      1  0.5146810000000  0.5634580000000  0.4613350000000 1.0
C      1  0.4851930000000  0.5635610000000  0.5387420000000 1.0
C      1  0.4851850000000  0.5634890000000  0.4614100000000 1.0
C      1  0.5146970000000  0.5636800000000  0.5386960000000 1.0
C      1  0.4451200000000  0.4892960000000  0.5519380000000 1.0
C      1  0.5544610000000  0.4893010000000  0.4485460000000 1.0
C      1  0.5548080000000  0.4897530000000  0.5520070000000 1.0
C      1  0.4452580000000  0.4899950000000  0.4484390000000 1.0
C      1  0.5736050000000  0.5139690000000  0.4852900000000 1.0
C      1  0.4262800000000  0.5137240000000  0.5150260000000 1.0
C      1  0.4262000000000  0.5140730000000  0.4854020000000 1.0
C      1  0.5736520000000  0.5141330000000  0.5149230000000 1.0
C      1  0.4305950000000  0.5304820000000  0.5809140000000 1.0
C      1  0.5695600000000  0.5301020000000  0.4191540000000 1.0
C      1  0.5699380000000  0.5311260000000  0.5808160000000 1.0
C      1  0.4305130000000  0.5307900000000  0.4191450000000 1.0
C      1  0.4449340000000  0.5092290000000  0.5954980000000 1.0
C      1  0.5551840000000  0.5086970000000  0.4046810000000 1.0
C      1  0.5557900000000  0.5098080000000  0.5955350000000 1.0
C      1  0.4447150000000  0.5094340000000  0.4045140000000 1.0
C      1  0.4842090000000  0.5333650000000  0.4157930000000 1.0
C      1  0.5160610000000  0.5338130000000  0.5844610000000 1.0
C      1  0.5158320000000  0.5331570000000  0.4158670000000 1.0
C      1  0.4843350000000  0.5336950000000  0.5845890000000 1.0
C      1  0.4034150000000  0.4548420000000  0.5305080000000 1.0
C      1  0.5965970000000  0.4553570000000  0.4701440000000 1.0
C      1  0.5970160000000  0.4558700000000  0.5302460000000 1.0
C      1  0.4025640000000  0.4561440000000  0.4698360000000 1.0
C      1  0.4843450000000  0.4834470000000  0.4179060000000 1.0
C      1  0.5161310000000  0.4839740000000  0.5825970000000 1.0
C      1  0.5154630000000  0.4832490000000  0.4181460000000 1.0
C      1  0.4850550000000  0.4839340000000  0.5826970000000 1.0
C      1  0.5898230000000  0.5314470000000  0.5348390000000 1.0
C      1  0.4103160000000  0.5313230000000  0.4650810000000 1.0
C      1  0.4102640000000  0.5308420000000  0.5351770000000 1.0
C      1  0.5896240000000  0.5308900000000  0.4649650000000 1.0
C      1  0.5333940000000  0.5876820000000  0.5400720000000 1.0
C      1  0.4665600000000  0.5874980000000  0.4598170000000 1.0
C      1  0.4664810000000  0.5875360000000  0.5401710000000 1.0
C      1  0.5334190000000  0.5873890000000  0.4596410000000 1.0
C      1  0.4868000000000  0.4633460000000  0.6053280000000 1.0
C      1  0.5142750000000  0.4626070000000  0.3956710000000 1.0
C      1  0.5151570000000  0.4636480000000  0.6053420000000 1.0
C      1  0.4859950000000  0.4629500000000  0.3951960000000 1.0
C      1  0.4860960000000  0.6056950000000  0.5580240000000 1.0
C      1  0.5138070000000  0.6053830000000  0.4416320000000 1.0
C      1  0.5137210000000  0.6057600000000  0.5579690000000 1.0
C      1  0.4861820000000  0.6055480000000  0.4418330000000 1.0
C      1  0.5686210000000  0.4841460000000  0.5920910000000 1.0
C      1  0.4320260000000  0.4837110000000  0.4079450000000 1.0
C      1  0.4320930000000  0.4836320000000  0.5923420000000 1.0
C      1  0.5677460000000  0.4829070000000  0.4082900000000 1.0
C      1  0.5154140000000  0.4713340000000  0.5304930000000 1.0
C      1  0.4843410000000  0.4711560000000  0.4704600000000 1.0
C      1  0.4845180000000  0.4711300000000  0.5301860000000 1.0
C      1  0.5152340000000  0.4713180000000  0.4707720000000 1.0
C      1  0.5700840000000  0.5539090000000  0.4672610000000 1.0
C      1  0.4297910000000  0.5538860000000  0.5327900000000 1.0
C      1  0.4299050000000  0.5541790000000  0.4674800000000 1.0
C      1  0.5701610000000  0.5543410000000  0.5324840000000 1.0
C      1  0.5566560000000  0.5570700000000  0.5772470000000 1.0
C      1  0.4436450000000  0.5567340000000  0.4227050000000 1.0
C      1  0.4435410000000  0.5566360000000  0.5774390000000 1.0
C      1  0.5565740000000  0.5562190000000  0.4225770000000 1.0
C      1  0.5309980000000  0.4713160000000  0.4441740000000 1.0
C      1  0.4688120000000  0.4720900000000  0.5567450000000 1.0
C      1  0.4685880000000  0.4717900000000  0.4437860000000 1.0
C      1  0.5314490000000  0.4716940000000  0.5568460000000 1.0
C      1  0.5289380000000  0.4950080000000  0.4852300000000 1.0
C      1  0.4709070000000  0.4947810000000  0.5153620000000 1.0
C      1  0.4707900000000  0.4949050000000  0.4851180000000 1.0
C      1  0.5290180000000  0.4950360000000  0.5155400000000 1.0
C      1  0.4436010000000  0.3964640000000  0.4780930000000 1.0
C      1  0.5526790000000  0.3969460000000  0.5156130000000 1.0
C      1  0.5522840000000  0.3968660000000  0.4860200000000 1.0
C      1  0.4464520000000  0.3944430000000  0.5073250000000 1.0
C      1  0.5319390000000  0.4423590000000  0.4012250000000 1.0
C      1  0.4682780000000  0.4440180000000  0.6004030000000 1.0
C      1  0.4678370000000  0.4431640000000  0.3999880000000 1.0
C      1  0.5333890000000  0.4438010000000  0.6000380000000 1.0
C      1  0.4015760000000  0.4313550000000  0.5140600000000 1.0
C      1  0.5985530000000  0.4317210000000  0.4860580000000 1.0
C      1  0.5988010000000  0.4320030000000  0.5146210000000 1.0
C      1  0.4005600000000  0.4322030000000  0.4854840000000 1.0
C      1  0.5480760000000  0.4420180000000  0.4471110000000 1.0
C      1  0.4511260000000  0.4412650000000  0.5537840000000 1.0
C      1  0.4514420000000  0.4434500000000  0.4457600000000 1.0
C      1  0.5490500000000  0.4426620000000  0.5539590000000 1.0
C      1  0.4855770000000  0.6280510000000  0.5147870000000 1.0
C      1  0.5143390000000  0.6279900000000  0.4848850000000 1.0
C      1  0.5143350000000  0.6280450000000  0.5147370000000 1.0
C      1  0.4855810000000  0.6279620000000  0.4849510000000 1.0
C      1  0.5316830000000  0.6044180000000  0.5148260000000 1.0
C      1  0.4682240000000  0.6043370000000  0.4849690000000 1.0
C      1  0.4682050000000  0.6043890000000  0.5149620000000 1.0
C      1  0.5317060000000  0.6043500000000  0.4848100000000 1.0
C      1  0.4283040000000  0.4208780000000  0.4824880000000 1.0
C      1  0.5706890000000  0.4203810000000  0.5160270000000 1.0
C      1  0.5704060000000  0.4201960000000  0.4849840000000 1.0
C      1  0.4297190000000  0.4193280000000  0.5137130000000 1.0
C      1  0.5250040000000  0.4453520000000  0.4857230000000 1.0
C      1  0.4742940000000  0.4449480000000  0.5155300000000 1.0
C      1  0.4739730000000  0.4447870000000  0.4852520000000 1.0
C      1  0.5251950000000  0.4452800000000  0.5159670000000 1.0
C      1  0.4281370000000  0.4465940000000  0.4288400000000 1.0
C      1  0.5721520000000  0.4465340000000  0.5710400000000 1.0
C      1  0.5711810000000  0.4454880000000  0.4298110000000 1.0
C      1  0.4288240000000  0.4455210000000  0.5711900000000 1.0
C      1  0.4283710000000  0.4651150000000  0.5152460000000 1.0
C      1  0.5713360000000  0.4656120000000  0.4851990000000 1.0
C      1  0.5714620000000  0.4657540000000  0.5153400000000 1.0
C      1  0.4282540000000  0.4657570000000  0.4849950000000 1.0
C      1  0.4410920000000  0.4902460000000  0.5239280000000 1.0
C      1  0.5586720000000  0.4906040000000  0.4765180000000 1.0
C      1  0.5587920000000  0.4907820000000  0.5239890000000 1.0
C      1  0.4410090000000  0.4907750000000  0.4764660000000 1.0
C      1  0.4720910000000  0.5233330000000  0.5274560000000 1.0
C      1  0.5277410000000  0.5234120000000  0.4729230000000 1.0
C      1  0.5278210000000  0.5235500000000  0.5274810000000 1.0
C      1  0.4720910000000  0.5233630000000  0.4728870000000 1.0
C      1  0.5532530000000  0.5370220000000  0.4846860000000 1.0
C      1  0.4466350000000  0.5368480000000  0.5155250000000 1.0
C      1  0.4466340000000  0.5370730000000  0.4848090000000 1.0
C      1  0.5532740000000  0.5371710000000  0.5153850000000 1.0
C      1  0.5311570000000  0.5584030000000  0.5922430000000 1.0
C      1  0.4691940000000  0.5579760000000  0.4078650000000 1.0
C      1  0.4690760000000  0.5581680000000  0.5923590000000 1.0
C      1  0.5310930000000  0.5575750000000  0.4076360000000 1.0
C      1  0.5928580000000  0.4621450000000  0.5574490000000 1.0
C      1  0.4073750000000  0.4618880000000  0.4425860000000 1.0
C      1  0.4078080000000  0.4612020000000  0.5577560000000 1.0
C      1  0.5920980000000  0.4611900000000  0.4429360000000 1.0
C      1  0.5138710000000  0.4202830000000  0.5305070000000 1.0
C      1  0.4849090000000  0.4199070000000  0.4724910000000 1.0
C      1  0.4843800000000  0.4180290000000  0.5317740000000 1.0
C      1  0.5132160000000  0.4205630000000  0.4719130000000 1.0
C      1  0.6105350000000  0.5308870000000  0.4868940000000 1.0
C      1  0.3894490000000  0.5305720000000  0.5131440000000 1.0
C      1  0.3896140000000  0.5308200000000  0.4871550000000 1.0
C      1  0.6106710000000  0.5312070000000  0.5128200000000 1.0
C      1  0.5149910000000  0.5345550000000  0.4472620000000 1.0
C      1  0.4849530000000  0.5347760000000  0.5530390000000 1.0
C      1  0.4848500000000  0.5345630000000  0.4472620000000 1.0
C      1  0.5150830000000  0.5348800000000  0.5530300000000 1.0
C      1  0.4407360000000  0.4565720000000  0.4057250000000 1.0
C      1  0.5600020000000  0.4568540000000  0.5941940000000 1.0
C      1  0.5588570000000  0.4555890000000  0.4066930000000 1.0
C      1  0.4414740000000  0.4565080000000  0.5939810000000 1.0
C      1  0.4997550000000  0.6000040000000  0.4171400000000 1.0
C      1  0.4999650000000  0.6003570000000  0.5826510000000 1.0
END
