TITL C-154530-3221-6 -150.645611704982 125000 -349.998641437891 0 0 52 (C5v) n - 1
REM
REM in /rds/project/t2_vol4/rds-t2-cs072/BORA/CARBON/from-Arr/AIRSS/Generating-Clusters/GAP-ML-2020/Higher-Symm/SD-CG/HFTN-CG
REM
REM
REM
REM
REM
REM ./C.cell (b20cbc046b6831c77cfcea5457e17084)
REM AIRSS Version 0.9.1 bugfix July 2018 build 013d7b7c2542+ Fri, 06 Jul 2018 19:26:36 +0100
REM compiler GCC version 9.3.0
REM options -cpp -mtune=generic -march=x86-64 -g -O0
REM seed 671406558 1544637674 -364866270 1788026560 327182502 1694223441 393439178 -1361980244 -1198403049 -999201162 -1371178348 -2067580617 -1342774198 -762709534 -1877303872 -196738286 1033218800 1750499540 1301095363 1953321975 732559514 -1522069538 -1202192927 -2069896452 -1621164426 -2032272068 -1378651531 -1885307263 94929242 1566838512 -906975563 1423117654 731176005
REM
CELL 1.54180   50.00000   50.00000   50.00000   90.00000   90.00000   90.00000
LATT -1
SFAC C  
C      1  0.5380780000000  0.5228380000000  0.5446240000000 1.0
C      1  0.5380720000000  0.5505030000000  0.4924690000000 1.0
C      1  0.5380720000000  0.5094490000000  0.4500410000000 1.0
C      1  0.5380780000000  0.4564120000000  0.4759750000000 1.0
C      1  0.5380820000000  0.4646860000000  0.5344300000000 1.0
C      1  0.4951850000000  0.4464780000000  0.5319890000000 1.0
C      1  0.4951820000000  0.5148840000000  0.5611860000000 1.0
C      1  0.4951740000000  0.5637910000000  0.5051510000000 1.0
C      1  0.4951720000000  0.5256110000000  0.4413220000000 1.0
C      1  0.4951780000000  0.4531080000000  0.4579090000000 1.0
C      1  0.5222310000000  0.4764650000000  0.5551590000000 1.0
C      1  0.5222250000000  0.5461900000000  0.5398280000000 1.0
C      1  0.5222190000000  0.5531550000000  0.4687780000000 1.0
C      1  0.5222210000000  0.4877350000000  0.4401980000000 1.0
C      1  0.5222290000000  0.4403370000000  0.4935840000000 1.0
C      1  0.4506580000000  0.4577010000000  0.5056120000000 1.0
C      1  0.4506590000000  0.4932600000000  0.5423610000000 1.0
C      1  0.4506530000000  0.5392000000000  0.5198990000000 1.0
C      1  0.4506500000000  0.5320320000000  0.4692660000000 1.0
C      1  0.4506530000000  0.4816630000000  0.4604360000000 1.0
C      1  0.4795450000000  0.5463250000000  0.5236750000000 1.0
C      1  0.4795410000000  0.5378290000000  0.4636570000000 1.0
C      1  0.4795450000000  0.4781240000000  0.4531910000000 1.0
C      1  0.4795510000000  0.4497190000000  0.5067400000000 1.0
C      1  0.4795520000000  0.4918700000000  0.5503010000000 1.0
C      1  0.4431570000000  0.5197110000000  0.5382520000000 1.0
C      1  0.4431520000000  0.5434650000000  0.4934720000000 1.0
C      1  0.4431510000000  0.5082160000000  0.4570440000000 1.0
C      1  0.4431560000000  0.4626780000000  0.4793100000000 1.0
C      1  0.4431600000000  0.4697830000000  0.5295000000000 1.0
C      1  0.4951850000000  0.4665270000000  0.5527090000000 1.0
C      1  0.4951790000000  0.5407860000000  0.5485210000000 1.0
C      1  0.4951720000000  0.5597500000000  0.4766030000000 1.0
C      1  0.4951730000000  0.4972120000000  0.4363430000000 1.0
C      1  0.4951810000000  0.4395970000000  0.4833800000000 1.0
C      1  0.5222180000000  0.5332150000000  0.4481700000000 1.0
C      1  0.5222240000000  0.4619740000000  0.4527930000000 1.0
C      1  0.5222310000000  0.4443560000000  0.5219760000000 1.0
C      1  0.5222300000000  0.5047090000000  0.5601100000000 1.0
C      1  0.5222220000000  0.5596270000000  0.5144960000000 1.0
C      1  0.4937000000000  0.4898420000000  0.4771540000000 1.0
C      1  0.4937030000000  0.4761330000000  0.5030000000000 1.0
C      1  0.4937040000000  0.4964770000000  0.5240250000000 1.0
C      1  0.4937010000000  0.5227600000000  0.5111730000000 1.0
C      1  0.4936990000000  0.5186590000000  0.4822060000000 1.0
C      1  0.5524000000000  0.5052010000000  0.4742780000000 1.0
C      1  0.5524030000000  0.4781510000000  0.4875050000000 1.0
C      1  0.5524050000000  0.4823720000000  0.5173170000000 1.0
C      1  0.5524030000000  0.5120300000000  0.5225170000000 1.0
C      1  0.5524000000000  0.5261390000000  0.4959170000000 1.0
C      1  0.5351790000000  0.5007780000000  0.4995080000000 1.0
C      1  0.4766330000000  0.5007730000000  0.4995130000000 1.0
END
