TITL C-15921-844-8 0.0216137157115545 125000 -382.227330078703 0 0 55 (C1) n - 1
REM
REM in /rds/project/t2_vol4/rds-t2-cs072/BORA/CARBON/from-Arr/AIRSS/Generating-Clusters/GAP-ML-2020/Higher-Symm/SD-CG/HFTN-CG
REM
REM
REM
REM
REM
REM ./C.cell (b20cbc046b6831c77cfcea5457e17084)
REM AIRSS Version 0.9.1 bugfix July 2018 build 013d7b7c2542+ Fri, 06 Jul 2018 19:26:36 +0100
REM compiler GCC version 9.3.0
REM options -cpp -mtune=generic -march=x86-64 -g -O0
REM seed 402518609 764430309 490165177 -1193324617 796488387 -287796874 -2141376035 -1010795993 1158650713 -1908245927 -504813186 448784925 -1847370287 -49530851 -1094406235 2047987884 -1040700210 -1303506179 -121056945 -1359695468 -1990779214 1496614656 2138189326 -1830623086 -2035955677 -1434930485 736868629 -483920001 -2024745233 1044952733 -1091672522 -1876053356 -986446091
REM
CELL 1.54180   50.00000   50.00000   50.00000   90.00000   90.00000   90.00000
LATT -1
SFAC C  
C      1  0.4822960000000  0.5006080000000  0.5209510000000 1.0
C      1  0.5246970000000  0.5028270000000  0.4965710000000 1.0
C      1  0.5628980000000  0.5233360000000  0.5271090000000 1.0
C      1  0.4407680000000  0.4715860000000  0.4710780000000 1.0
C      1  0.5702310000000  0.4874070000000  0.4838240000000 1.0
C      1  0.4352210000000  0.5105020000000  0.5194680000000 1.0
C      1  0.4540160000000  0.4889990000000  0.5223920000000 1.0
C      1  0.5699630000000  0.5157480000000  0.4797600000000 1.0
C      1  0.4961900000000  0.4423470000000  0.5253720000000 1.0
C      1  0.4996260000000  0.5544050000000  0.4714410000000 1.0
C      1  0.4494680000000  0.4361730000000  0.5053420000000 1.0
C      1  0.5407120000000  0.5511940000000  0.4987440000000 1.0
C      1  0.4975380000000  0.5537360000000  0.5220860000000 1.0
C      1  0.5077490000000  0.4489080000000  0.4740950000000 1.0
C      1  0.4619720000000  0.5506950000000  0.5026840000000 1.0
C      1  0.5386290000000  0.4419840000000  0.4984820000000 1.0
C      1  0.5525090000000  0.4747620000000  0.4641110000000 1.0
C      1  0.4491580000000  0.5245880000000  0.5413390000000 1.0
C      1  0.4371790000000  0.4487870000000  0.4869440000000 1.0
C      1  0.5637300000000  0.5336690000000  0.5011490000000 1.0
C      1  0.4442120000000  0.5132490000000  0.4486340000000 1.0
C      1  0.5478330000000  0.4873560000000  0.5497560000000 1.0
C      1  0.5106540000000  0.4374520000000  0.5012520000000 1.0
C      1  0.4874360000000  0.5611760000000  0.4959860000000 1.0
C      1  0.4736430000000  0.5338420000000  0.5262290000000 1.0
C      1  0.5372580000000  0.4525490000000  0.4713490000000 1.0
C      1  0.4302270000000  0.4994540000000  0.4707580000000 1.0
C      1  0.5683290000000  0.4964390000000  0.5315570000000 1.0
C      1  0.4438770000000  0.5423330000000  0.4839870000000 1.0
C      1  0.5531420000000  0.4554620000000  0.5177490000000 1.0
C      1  0.5096140000000  0.4614150000000  0.5427290000000 1.0
C      1  0.4835390000000  0.5390830000000  0.4533280000000 1.0
C      1  0.5269740000000  0.5061600000000  0.5528110000000 1.0
C      1  0.4662450000000  0.4976000000000  0.4408030000000 1.0
C      1  0.4669650000000  0.4751680000000  0.4585280000000 1.0
C      1  0.5377620000000  0.5302560000000  0.5402430000000 1.0
C      1  0.5379370000000  0.4621680000000  0.5413800000000 1.0
C      1  0.4546920000000  0.5384280000000  0.4573410000000 1.0
C      1  0.4905880000000  0.4710580000000  0.4740710000000 1.0
C      1  0.5248810000000  0.5494970000000  0.5233890000000 1.0
C      1  0.4564220000000  0.4525330000000  0.5511170000000 1.0
C      1  0.5436640000000  0.5444160000000  0.4517030000000 1.0
C      1  0.4992720000000  0.4912880000000  0.5488730000000 1.0
C      1  0.4916950000000  0.5130990000000  0.4403120000000 1.0
C      1  0.5406690000000  0.4960740000000  0.4478900000000 1.0
C      1  0.4551770000000  0.5043880000000  0.5616690000000 1.0
C      1  0.4503810000000  0.4784700000000  0.5496440000000 1.0
C      1  0.5546060000000  0.5202550000000  0.4563450000000 1.0
C      1  0.5283200000000  0.5533620000000  0.4728680000000 1.0
C      1  0.4672150000000  0.4400770000000  0.5274540000000 1.0
C      1  0.5146740000000  0.4986430000000  0.4405980000000 1.0
C      1  0.4789500000000  0.4968530000000  0.5701620000000 1.0
C      1  0.5703820000000  0.4777030000000  0.5103680000000 1.0
C      1  0.4297490000000  0.5181050000000  0.4929700000000 1.0
C      1  0.4998410000000  0.4939340000000  0.4967700000000 1.0
END
