TITL C-150249-3116-12 792.033726751687 125000 -1233.57276108411 0 0 175 (C7) n - 1
REM
REM in /rds/project/t2_vol4/rds-t2-cs072/BORA/CARBON/from-Arr/AIRSS/Generating-Clusters/GAP-ML-2020/Higher-Symm/SD-CG/HFTN-CG
REM
REM
REM
REM
REM
REM ./C.cell (b20cbc046b6831c77cfcea5457e17084)
REM AIRSS Version 0.9.1 bugfix July 2018 build 013d7b7c2542+ Fri, 06 Jul 2018 19:26:36 +0100
REM compiler GCC version 9.3.0
REM options -cpp -mtune=generic -march=x86-64 -g -O0
REM seed -1917495541 103385119 -621562802 -1017715165 1424571846 1956417029 -952587337 -935005088 926466913 -861020672 -2093077961 -338546168 621836322 -1920550321 -757370302 -1054203334 2030547330 1866987345 1021057764 61105112 1216930860 -454109749 1197706042 -2010477375 394101852 607449072 1499721094 451993041 -1911192058 558565563 -1711350572 -1724055193 361864705
REM
CELL 1.54180   50.00000   50.00000   50.00000   90.00000   90.00000   90.00000
LATT -1
SFAC C  
C      1  0.5499510000000  0.5935360000000  0.4945200000000 1.0
C      1  0.6042730000000  0.5192660000000  0.4945190000000 1.0
C      1  0.5800760000000  0.4304880000000  0.4945170000000 1.0
C      1  0.4955800000000  0.3940540000000  0.4945160000000 1.0
C      1  0.4144120000000  0.4374000000000  0.4945170000000 1.0
C      1  0.3976940000000  0.5278850000000  0.4945180000000 1.0
C      1  0.4580140000000  0.5973720000000  0.4945200000000 1.0
C      1  0.5761410000000  0.4591180000000  0.5619310000000 1.0
C      1  0.5155110000000  0.4149810000000  0.5619300000000 1.0
C      1  0.4432010000000  0.4348640000000  0.5619300000000 1.0
C      1  0.4136610000000  0.5037950000000  0.5619310000000 1.0
C      1  0.4491360000000  0.5698670000000  0.5619330000000 1.0
C      1  0.5229120000000  0.5833280000000  0.5619330000000 1.0
C      1  0.5794350000000  0.5340400000000  0.5619330000000 1.0
C      1  0.5458570000000  0.4373860000000  0.5884190000000 1.0
C      1  0.4796390000000  0.4251080000000  0.5884180000000 1.0
C      1  0.4287530000000  0.4692230000000  0.5884190000000 1.0
C      1  0.4315170000000  0.5365130000000  0.5884200000000 1.0
C      1  0.4858500000000  0.5763070000000  0.5884210000000 1.0
C      1  0.5508380000000  0.5586380000000  0.5884210000000 1.0
C      1  0.5775430000000  0.4968130000000  0.5884200000000 1.0
C      1  0.6037400000000  0.5248820000000  0.4665210000000 1.0
C      1  0.5841340000000  0.4344070000000  0.4665190000000 1.0
C      1  0.5011740000000  0.3933250000000  0.4665180000000 1.0
C      1  0.4173290000000  0.4325720000000  0.4665180000000 1.0
C      1  0.3957380000000  0.5225940000000  0.4665200000000 1.0
C      1  0.4526580000000  0.5956030000000  0.4665210000000 1.0
C      1  0.5452280000000  0.5966210000000  0.4665220000000 1.0
C      1  0.5342900000000  0.5031710000000  0.5220990000000 1.0
C      1  0.5238590000000  0.4751670000000  0.5220980000000 1.0
C      1  0.4954610000000  0.4658630000000  0.5220980000000 1.0
C      1  0.4704810000000  0.4822650000000  0.5220980000000 1.0
C      1  0.4677300000000  0.5120210000000  0.5220990000000 1.0
C      1  0.4892780000000  0.5327250000000  0.5221000000000 1.0
C      1  0.5189000000000  0.5287860000000  0.5221000000000 1.0
C      1  0.5576680000000  0.4362450000000  0.5618510000000 1.0
C      1  0.4861110000000  0.4151620000000  0.5618500000000 1.0
C      1  0.4250120000000  0.4579620000000  0.5618510000000 1.0
C      1  0.4203800000000  0.5324170000000  0.5618520000000 1.0
C      1  0.4757040000000  0.5824600000000  0.5618530000000 1.0
C      1  0.5493220000000  0.5704080000000  0.5618530000000 1.0
C      1  0.5858000000000  0.5053360000000  0.5618520000000 1.0
C      1  0.5314070000000  0.5020580000000  0.5541940000000 1.0
C      1  0.5211920000000  0.4767270000000  0.5541940000000 1.0
C      1  0.4950190000000  0.4689200000000  0.5541930000000 1.0
C      1  0.4725960000000  0.4845160000000  0.5541930000000 1.0
C      1  0.4708090000000  0.5117710000000  0.5541940000000 1.0
C      1  0.4910030000000  0.5301610000000  0.5541950000000 1.0
C      1  0.5179720000000  0.5258380000000  0.5541950000000 1.0
C      1  0.4960940000000  0.6012740000000  0.4699780000000 1.0
C      1  0.5767430000000  0.5661980000000  0.4699780000000 1.0
C      1  0.5996030000000  0.4812740000000  0.4699760000000 1.0
C      1  0.5474610000000  0.4104520000000  0.4699740000000 1.0
C      1  0.4595790000000  0.4070620000000  0.4699740000000 1.0
C      1  0.4021360000000  0.4736570000000  0.4699750000000 1.0
C      1  0.4183860000000  0.5600890000000  0.4699770000000 1.0
C      1  0.5401700000000  0.4573650000000  0.5042020000000 1.0
C      1  0.4917120000000  0.4420110000000  0.5042010000000 1.0
C      1  0.4494950000000  0.4703240000000  0.5042020000000 1.0
C      1  0.4453090000000  0.5209830000000  0.5042030000000 1.0
C      1  0.4823070000000  0.5558420000000  0.5042040000000 1.0
C      1  0.5326270000000  0.5486500000000  0.5042040000000 1.0
C      1  0.5583790000000  0.5048240000000  0.5042030000000 1.0
C      1  0.4654760000000  0.5024410000000  0.4343700000000 1.0
C      1  0.4803830000000  0.5285150000000  0.4343710000000 1.0
C      1  0.5100620000000  0.5331170000000  0.4343710000000 1.0
C      1  0.5321640000000  0.5127820000000  0.4343700000000 1.0
C      1  0.5300470000000  0.4828230000000  0.4343700000000 1.0
C      1  0.5053040000000  0.4658000000000  0.4343690000000 1.0
C      1  0.4765670000000  0.4745300000000  0.4343690000000 1.0
C      1  0.5761230000000  0.5291010000000  0.5007570000000 1.0
C      1  0.5702140000000  0.4586290000000  0.5007560000000 1.0
C      1  0.5114330000000  0.4193100000000  0.5007550000000 1.0
C      1  0.4440420000000  0.4407520000000  0.5007550000000 1.0
C      1  0.4187890000000  0.5068090000000  0.5007560000000 1.0
C      1  0.4546890000000  0.5677390000000  0.5007580000000 1.0
C      1  0.5247090000000  0.5776600000000  0.5007580000000 1.0
C      1  0.4640090000000  0.4237360000000  0.5148010000000 1.0
C      1  0.4179350000000  0.4805890000000  0.5148020000000 1.0
C      1  0.4336570000000  0.5520580000000  0.5148030000000 1.0
C      1  0.4993370000000  0.5843270000000  0.5148040000000 1.0
C      1  0.5655160000000  0.5530950000000  0.5148040000000 1.0
C      1  0.5823600000000  0.4818820000000  0.5148030000000 1.0
C      1  0.5371850000000  0.4243120000000  0.5148010000000 1.0
C      1  0.4673230000000  0.5417630000000  0.4032910000000 1.0
C      1  0.5122770000000  0.5515880000000  0.4032910000000 1.0
C      1  0.5479860000000  0.5225670000000  0.4032910000000 1.0
C      1  0.5475610000000  0.4765550000000  0.4032900000000 1.0
C      1  0.5113220000000  0.4481980000000  0.4032890000000 1.0
C      1  0.4665580000000  0.4588510000000  0.4032890000000 1.0
C      1  0.4469760000000  0.5004920000000  0.4032900000000 1.0
C      1  0.4992120000000  0.5871720000000  0.5444590000000 1.0
C      1  0.5676630000000  0.5549660000000  0.5444580000000 1.0
C      1  0.5851620000000  0.4813700000000  0.5444570000000 1.0
C      1  0.5385330000000  0.4218010000000  0.5444550000000 1.0
C      1  0.4628870000000  0.4211170000000  0.5444550000000 1.0
C      1  0.4151880000000  0.4798330000000  0.5444560000000 1.0
C      1  0.4313540000000  0.5537340000000  0.5444580000000 1.0
C      1  0.4402120000000  0.4717790000000  0.4092310000000 1.0
C      1  0.4406570000000  0.5291490000000  0.4092320000000 1.0
C      1  0.4857890000000  0.5645720000000  0.4092330000000 1.0
C      1  0.5416230000000  0.5513710000000  0.4092330000000 1.0
C      1  0.5661140000000  0.4994890000000  0.4092320000000 1.0
C      1  0.5408200000000  0.4479920000000  0.4092310000000 1.0
C      1  0.4847890000000  0.4356600000000  0.4092300000000 1.0
C      1  0.4723800000000  0.5517810000000  0.4537700000000 1.0
C      1  0.5232630000000  0.5538800000000  0.4537700000000 1.0
C      1  0.5566280000000  0.5154060000000  0.4537690000000 1.0
C      1  0.5473520000000  0.4653330000000  0.4537680000000 1.0
C      1  0.5024190000000  0.4413650000000  0.4537680000000 1.0
C      1  0.4556640000000  0.4615510000000  0.4537680000000 1.0
C      1  0.4422960000000  0.5106910000000  0.4537690000000 1.0
C      1  0.5073390000000  0.5313640000000  0.3836910000000 1.0
C      1  0.5290960000000  0.5138180000000  0.3836910000000 1.0
C      1  0.5289430000000  0.4858690000000  0.3836900000000 1.0
C      1  0.5069960000000  0.4685620000000  0.3836900000000 1.0
C      1  0.4797810000000  0.4749300000000  0.3836900000000 1.0
C      1  0.4677920000000  0.5001780000000  0.3836900000000 1.0
C      1  0.4800570000000  0.5252940000000  0.3836910000000 1.0
C      1  0.4665790000000  0.5071270000000  0.6123100000000 1.0
C      1  0.4847350000000  0.5305720000000  0.6123110000000 1.0
C      1  0.5143860000000  0.5309940000000  0.6123110000000 1.0
C      1  0.5332030000000  0.5080760000000  0.6123110000000 1.0
C      1  0.5270170000000  0.4790740000000  0.6123100000000 1.0
C      1  0.5004860000000  0.4658290000000  0.6123100000000 1.0
C      1  0.4735880000000  0.4783130000000  0.6123100000000 1.0
C      1  0.4615530000000  0.5133040000000  0.4783580000000 1.0
C      1  0.4864290000000  0.5383540000000  0.4783590000000 1.0
C      1  0.5215250000000  0.5345240000000  0.4783590000000 1.0
C      1  0.5404120000000  0.5046970000000  0.4783580000000 1.0
C      1  0.5288680000000  0.4713330000000  0.4783570000000 1.0
C      1  0.4955860000000  0.4595570000000  0.4783570000000 1.0
C      1  0.4656280000000  0.4782350000000  0.4783570000000 1.0
C      1  0.5603510000000  0.5143440000000  0.6026790000000 1.0
C      1  0.5488440000000  0.4617580000000  0.6026780000000 1.0
C      1  0.5005570000000  0.4379680000000  0.6026780000000 1.0
C      1  0.4518500000000  0.4608870000000  0.6026780000000 1.0
C      1  0.4394000000000  0.5132580000000  0.6026790000000 1.0
C      1  0.4725830000000  0.5556440000000  0.6026800000000 1.0
C      1  0.5264110000000  0.5561270000000  0.6026800000000 1.0
C      1  0.5217440000000  0.4248940000000  0.5886310000000 1.0
C      1  0.4548380000000  0.4361710000000  0.5886310000000 1.0
C      1  0.4219390000000  0.4955110000000  0.5886320000000 1.0
C      1  0.4478210000000  0.5582310000000  0.5886330000000 1.0
C      1  0.5129950000000  0.5771000000000  0.5886340000000 1.0
C      1  0.5683830000000  0.5379100000000  0.5886330000000 1.0
C      1  0.5722760000000  0.4701720000000  0.5886320000000 1.0
C      1  0.4793290000000  0.4007450000000  0.4499300000000 1.0
C      1  0.4095110000000  0.4542770000000  0.4499310000000 1.0
C      1  0.4078320000000  0.5422400000000  0.4499320000000 1.0
C      1  0.4755580000000  0.5983970000000  0.4499340000000 1.0
C      1  0.5616900000000  0.5804590000000  0.4499340000000 1.0
C      1  0.6013680000000  0.5019350000000  0.4499330000000 1.0
C      1  0.5647140000000  0.4219550000000  0.4499310000000 1.0
C      1  0.5763630000000  0.5369660000000  0.4693030000000 1.0
C      1  0.5765120000000  0.4633450000000  0.4693020000000 1.0
C      1  0.5190460000000  0.4173260000000  0.4693000000000 1.0
C      1  0.4472380000000  0.4335630000000  0.4693000000000 1.0
C      1  0.4151610000000  0.4998290000000  0.4693020000000 1.0
C      1  0.4469690000000  0.5662240000000  0.4693030000000 1.0
C      1  0.5187120000000  0.5827510000000  0.4693040000000 1.0
C      1  0.4101540000000  0.5528540000000  0.4963990000000 1.0
C      1  0.4853050000000  0.6031990000000  0.4964010000000 1.0
C      1  0.5715220000000  0.5758320000000  0.4964010000000 1.0
C      1  0.6038810000000  0.4913630000000  0.4963990000000 1.0
C      1  0.5580160000000  0.4133970000000  0.4963970000000 1.0
C      1  0.4684630000000  0.4006450000000  0.4963970000000 1.0
C      1  0.4026590000000  0.4627100000000  0.4963970000000 1.0
C      1  0.4790440000000  0.5750970000000  0.4343090000000 1.0
C      1  0.5456460000000  0.5632070000000  0.4343100000000 1.0
C      1  0.5778770000000  0.5037220000000  0.4343090000000 1.0
C      1  0.5514650000000  0.4414350000000  0.4343070000000 1.0
C      1  0.4862990000000  0.4232500000000  0.4343070000000 1.0
C      1  0.4314510000000  0.4628590000000  0.4343070000000 1.0
C      1  0.4282220000000  0.5304380000000  0.4343080000000 1.0
END
