TITL C-15919-2000-2 -40.7387844758272 125000 -375.995969254722 0 0 55 (C1) n - 1
REM
REM in /rds/project/t2_vol4/rds-t2-cs072/BORA/CARBON/from-Arr/AIRSS/Generating-Clusters/GAP-ML-2020/Higher-Symm/SD-CG/HFTN-CG
REM
REM
REM
REM
REM
REM ./C.cell (b20cbc046b6831c77cfcea5457e17084)
REM AIRSS Version 0.9.1 bugfix July 2018 build 013d7b7c2542+ Fri, 06 Jul 2018 19:26:36 +0100
REM compiler GCC version 9.3.0
REM options -cpp -mtune=generic -march=x86-64 -g -O0
REM seed 1338244913 522507838 -1153704000 248051361 1529431637 2009073550 -436455357 798096138 76612881 -1298497223 1754075192 17093076 -606270865 558924953 -1050313565 866740877 794957364 -1353394560 -1259155151 -1912119484 1056802540 32893411 -1284962879 1425850075 129255957 526525431 1271052889 2080919035 -709603537 -1394762829 371829986 770839044 1315511200
REM
CELL 1.54180   50.00000   50.00000   50.00000   90.00000   90.00000   90.00000
LATT -1
SFAC C  
C      1  0.5154810000000  0.4989620000000  0.5652770000000 1.0
C      1  0.4915170000000  0.4817750000000  0.4440770000000 1.0
C      1  0.4866870000000  0.5091430000000  0.5650580000000 1.0
C      1  0.5013190000000  0.5099000000000  0.4444590000000 1.0
C      1  0.4926950000000  0.4757380000000  0.5363500000000 1.0
C      1  0.4559500000000  0.5107140000000  0.4556040000000 1.0
C      1  0.5088910000000  0.5264280000000  0.5299410000000 1.0
C      1  0.5369790000000  0.4820260000000  0.4573190000000 1.0
C      1  0.4667630000000  0.5447720000000  0.5332870000000 1.0
C      1  0.5484040000000  0.5263340000000  0.4643580000000 1.0
C      1  0.5338950000000  0.4568640000000  0.5407580000000 1.0
C      1  0.4489970000000  0.4669760000000  0.4702990000000 1.0
C      1  0.5148290000000  0.4727400000000  0.5552420000000 1.0
C      1  0.4639090000000  0.4835810000000  0.4519100000000 1.0
C      1  0.4864890000000  0.5307320000000  0.5479680000000 1.0
C      1  0.5310280000000  0.5084920000000  0.4490540000000 1.0
C      1  0.4414850000000  0.5117230000000  0.4814840000000 1.0
C      1  0.5076230000000  0.5502000000000  0.5099220000000 1.0
C      1  0.5510160000000  0.4847250000000  0.4837600000000 1.0
C      1  0.4925660000000  0.4512110000000  0.5182430000000 1.0
C      1  0.5192000000000  0.4400050000000  0.5213480000000 1.0
C      1  0.4351920000000  0.4839380000000  0.4889050000000 1.0
C      1  0.4798910000000  0.5601660000000  0.5126460000000 1.0
C      1  0.5623490000000  0.5116190000000  0.4841120000000 1.0
C      1  0.5327270000000  0.4898810000000  0.5081970000000 1.0
C      1  0.4925640000000  0.4608870000000  0.4891120000000 1.0
C      1  0.4618200000000  0.5002920000000  0.5005150000000 1.0
C      1  0.5056430000000  0.5418650000000  0.4800740000000 1.0
C      1  0.4366980000000  0.5611760000000  0.4881560000000 1.0
C      1  0.5588010000000  0.5482470000000  0.5145320000000 1.0
C      1  0.5607000000000  0.4350650000000  0.4935730000000 1.0
C      1  0.4434560000000  0.4527210000000  0.5237570000000 1.0
C      1  0.4439680000000  0.5290610000000  0.5251660000000 1.0
C      1  0.5334670000000  0.5480900000000  0.4748880000000 1.0
C      1  0.5546290000000  0.4722020000000  0.5275170000000 1.0
C      1  0.4663470000000  0.4493330000000  0.4832050000000 1.0
C      1  0.4506120000000  0.5007500000000  0.5284660000000 1.0
C      1  0.4814620000000  0.5510890000000  0.4663030000000 1.0
C      1  0.5508490000000  0.5018550000000  0.5288470000000 1.0
C      1  0.5138550000000  0.4480890000000  0.4752650000000 1.0
C      1  0.5625290000000  0.4614580000000  0.5004050000000 1.0
C      1  0.4647670000000  0.4411540000000  0.5114230000000 1.0
C      1  0.4352060000000  0.5355490000000  0.4975710000000 1.0
C      1  0.5368590000000  0.5582690000000  0.5022240000000 1.0
C      1  0.4715870000000  0.4928330000000  0.5484460000000 1.0
C      1  0.4774080000000  0.5277070000000  0.4494500000000 1.0
C      1  0.5302940000000  0.5135970000000  0.5468510000000 1.0
C      1  0.5140280000000  0.4660070000000  0.4533680000000 1.0
C      1  0.4334930000000  0.4774930000000  0.5179800000000 1.0
C      1  0.4640870000000  0.5613840000000  0.4867680000000 1.0
C      1  0.5640340000000  0.5213010000000  0.5116650000000 1.0
C      1  0.5330220000000  0.4376250000000  0.4944250000000 1.0
C      1  0.5050830000000  0.4978040000000  0.5152640000000 1.0
C      1  0.5030940000000  0.5127790000000  0.4743580000000 1.0
C      1  0.4894230000000  0.4929330000000  0.4918450000000 1.0
END
