TITL C-15945-696-8 -163.113763513429 125000 -877.451275920481 0 0 125 (C1) n - 1
REM
REM in /rds/project/t2_vol4/rds-t2-cs072/BORA/CARBON/from-Arr/AIRSS/Generating-Clusters/GAP-ML-2020/Higher-Symm/SD-CG/HFTN-CG
REM
REM
REM
REM
REM
REM ./C.cell (b20cbc046b6831c77cfcea5457e17084)
REM AIRSS Version 0.9.1 bugfix July 2018 build 013d7b7c2542+ Fri, 06 Jul 2018 19:26:36 +0100
REM compiler GCC version 9.3.0
REM options -cpp -mtune=generic -march=x86-64 -g -O0
REM seed 1235005225 -1418872306 1516462217 1050336810 667355976 -649757612 -370134774 -1235440698 -1483899058 -2083141496 873650289 1438036951 -185626906 -718477195 1061279125 416641672 288563168 -1339889580 -1239453915 -1680664647 1309978501 -644831277 1057320472 -2103163829 -369172983 1069588542 -450038406 -1599035228 -168596567 782352229 -1259954079 -1799038023 -628987483
REM
CELL 1.54180   50.00000   50.00000   50.00000   90.00000   90.00000   90.00000
LATT -1
SFAC C  
C      1  0.5007900000000  0.4289500000000  0.4611630000000 1.0
C      1  0.4254510000000  0.4630190000000  0.4961060000000 1.0
C      1  0.4617540000000  0.5014880000000  0.4241970000000 1.0
C      1  0.5013050000000  0.5722310000000  0.4623480000000 1.0
C      1  0.5014670000000  0.5728230000000  0.5341750000000 1.0
C      1  0.5033380000000  0.4205740000000  0.5389610000000 1.0
C      1  0.5839950000000  0.5441930000000  0.4974580000000 1.0
C      1  0.4247310000000  0.5406650000000  0.4977520000000 1.0
C      1  0.5735880000000  0.4634970000000  0.4979080000000 1.0
C      1  0.5446040000000  0.5013970000000  0.4187780000000 1.0
C      1  0.4630370000000  0.5083060000000  0.5839110000000 1.0
C      1  0.5396360000000  0.5015980000000  0.5708200000000 1.0
C      1  0.4246090000000  0.5017790000000  0.4582610000000 1.0
C      1  0.4634190000000  0.4198420000000  0.4941040000000 1.0
C      1  0.5011440000000  0.4652960000000  0.4265110000000 1.0
C      1  0.5836250000000  0.5011860000000  0.4547060000000 1.0
C      1  0.5746480000000  0.5012880000000  0.5354520000000 1.0
C      1  0.4243890000000  0.5016770000000  0.5355840000000 1.0
C      1  0.5450160000000  0.5807630000000  0.4974910000000 1.0
C      1  0.5396640000000  0.4272450000000  0.4976600000000 1.0
C      1  0.4617850000000  0.5750320000000  0.4983450000000 1.0
C      1  0.5013080000000  0.5371970000000  0.4273110000000 1.0
C      1  0.5088350000000  0.4624730000000  0.5839080000000 1.0
C      1  0.5017650000000  0.5388760000000  0.5706090000000 1.0
C      1  0.5067770000000  0.4842940000000  0.6019330000000 1.0
C      1  0.4805670000000  0.5962190000000  0.4979890000000 1.0
C      1  0.5990020000000  0.5009390000000  0.4774050000000 1.0
C      1  0.5049360000000  0.5249180000000  0.5954530000000 1.0
C      1  0.5014590000000  0.5211030000000  0.4039720000000 1.0
C      1  0.5013980000000  0.4820300000000  0.4034870000000 1.0
C      1  0.5232220000000  0.4039550000000  0.4973110000000 1.0
C      1  0.4827610000000  0.3996410000000  0.4972670000000 1.0
C      1  0.5226380000000  0.5972230000000  0.4976330000000 1.0
C      1  0.4028070000000  0.5018030000000  0.4766560000000 1.0
C      1  0.5965600000000  0.5012120000000  0.5177890000000 1.0
C      1  0.4022320000000  0.5019010000000  0.5173420000000 1.0
C      1  0.4848120000000  0.5060900000000  0.6020230000000 1.0
C      1  0.5959700000000  0.4807650000000  0.4976360000000 1.0
C      1  0.5014650000000  0.5956090000000  0.4783730000000 1.0
C      1  0.5255720000000  0.5046250000000  0.5956420000000 1.0
C      1  0.5224020000000  0.5015750000000  0.4021260000000 1.0
C      1  0.4804970000000  0.5016160000000  0.4031020000000 1.0
C      1  0.4026720000000  0.5224680000000  0.4969590000000 1.0
C      1  0.4026060000000  0.4810810000000  0.4969430000000 1.0
C      1  0.5993010000000  0.5213970000000  0.4975810000000 1.0
C      1  0.5030200000000  0.4048310000000  0.4770660000000 1.0
C      1  0.5017400000000  0.5956860000000  0.5173420000000 1.0
C      1  0.5036590000000  0.4004870000000  0.5181370000000 1.0
C      1  0.5300280000000  0.5684680000000  0.5436270000000 1.0
C      1  0.5721850000000  0.5504850000000  0.5240410000000 1.0
C      1  0.5502400000000  0.5292510000000  0.5636600000000 1.0
C      1  0.4713230000000  0.4237750000000  0.5477650000000 1.0
C      1  0.5289210000000  0.4354070000000  0.4504380000000 1.0
C      1  0.4731850000000  0.5686930000000  0.4504840000000 1.0
C      1  0.4310720000000  0.4519570000000  0.5237960000000 1.0
C      1  0.5700480000000  0.4536710000000  0.4695170000000 1.0
C      1  0.4315970000000  0.5507870000000  0.4691710000000 1.0
C      1  0.4461190000000  0.4660360000000  0.5628050000000 1.0
C      1  0.5507950000000  0.4750320000000  0.4297940000000 1.0
C      1  0.4520970000000  0.5298630000000  0.4297970000000 1.0
C      1  0.5708520000000  0.5298210000000  0.5448570000000 1.0
C      1  0.5514590000000  0.5696920000000  0.5237760000000 1.0
C      1  0.5296000000000  0.5490900000000  0.5634100000000 1.0
C      1  0.4274900000000  0.4715330000000  0.5434250000000 1.0
C      1  0.4315940000000  0.5303660000000  0.4487000000000 1.0
C      1  0.5716540000000  0.4745610000000  0.4487760000000 1.0
C      1  0.4538810000000  0.4333130000000  0.5269420000000 1.0
C      1  0.4521120000000  0.5695610000000  0.4698760000000 1.0
C      1  0.5499270000000  0.4342550000000  0.4696110000000 1.0
C      1  0.4658450000000  0.4454150000000  0.5630050000000 1.0
C      1  0.4731800000000  0.5491880000000  0.4307850000000 1.0
C      1  0.5293030000000  0.4552840000000  0.4312800000000 1.0
C      1  0.4959910000000  0.5428000000000  0.5215790000000 1.0
C      1  0.5383670000000  0.5189350000000  0.5008110000000 1.0
C      1  0.5206870000000  0.4979760000000  0.5432900000000 1.0
C      1  0.5036720000000  0.4455440000000  0.5221220000000 1.0
C      1  0.4983120000000  0.4583940000000  0.4770630000000 1.0
C      1  0.4960030000000  0.5442700000000  0.4770040000000 1.0
C      1  0.4504140000000  0.4827110000000  0.4942570000000 1.0
C      1  0.5421430000000  0.4760800000000  0.5002960000000 1.0
C      1  0.4518880000000  0.5260710000000  0.4960090000000 1.0
C      1  0.4663470000000  0.4880610000000  0.5637860000000 1.0
C      1  0.5120650000000  0.4997360000000  0.4678840000000 1.0
C      1  0.4737090000000  0.5018390000000  0.4526350000000 1.0
C      1  0.5426710000000  0.4986970000000  0.5223690000000 1.0
C      1  0.5128580000000  0.5325300000000  0.5001210000000 1.0
C      1  0.4972540000000  0.5206090000000  0.5430300000000 1.0
C      1  0.4499990000000  0.5043950000000  0.5174770000000 1.0
C      1  0.4517570000000  0.5042980000000  0.4730220000000 1.0
C      1  0.5379460000000  0.4981670000000  0.4802020000000 1.0
C      1  0.4750260000000  0.4420590000000  0.5092650000000 1.0
C      1  0.4737980000000  0.5465180000000  0.4983760000000 1.0
C      1  0.5213310000000  0.4532760000000  0.4986560000000 1.0
C      1  0.4880810000000  0.4659890000000  0.5642890000000 1.0
C      1  0.4959390000000  0.5230330000000  0.4556710000000 1.0
C      1  0.4960970000000  0.4787990000000  0.4555860000000 1.0
C      1  0.5334390000000  0.4524680000000  0.5704670000000 1.0
C      1  0.4522870000000  0.5692910000000  0.5268180000000 1.0
C      1  0.5722770000000  0.5282120000000  0.4495770000000 1.0
C      1  0.4736920000000  0.5517320000000  0.5676260000000 1.0
C      1  0.5295910000000  0.5469430000000  0.4327670000000 1.0
C      1  0.4732090000000  0.4531050000000  0.4297700000000 1.0
C      1  0.5504820000000  0.4331160000000  0.5270780000000 1.0
C      1  0.4526440000000  0.4303050000000  0.4681700000000 1.0
C      1  0.5513370000000  0.5684830000000  0.4714380000000 1.0
C      1  0.4324350000000  0.4722690000000  0.4488320000000 1.0
C      1  0.5713380000000  0.4734300000000  0.5470270000000 1.0
C      1  0.4333670000000  0.5297790000000  0.5484120000000 1.0
C      1  0.4527860000000  0.5325950000000  0.5705480000000 1.0
C      1  0.5701610000000  0.4526910000000  0.5263970000000 1.0
C      1  0.5296270000000  0.5665450000000  0.4523500000000 1.0
C      1  0.5524470000000  0.4735460000000  0.5675960000000 1.0
C      1  0.5510480000000  0.5275020000000  0.4308300000000 1.0
C      1  0.4521820000000  0.4729350000000  0.4296460000000 1.0
C      1  0.4326580000000  0.5497270000000  0.5276450000000 1.0
C      1  0.4331400000000  0.4513710000000  0.4687550000000 1.0
C      1  0.5724410000000  0.5494660000000  0.4706300000000 1.0
C      1  0.4731690000000  0.4325000000000  0.4485690000000 1.0
C      1  0.4734720000000  0.5700140000000  0.5466240000000 1.0
C      1  0.5313360000000  0.4323580000000  0.5487260000000 1.0
C      1  0.5035060000000  0.4717390000000  0.5373920000000 1.0
C      1  0.4732890000000  0.5025030000000  0.5357110000000 1.0
C      1  0.5017620000000  0.5053170000000  0.4958520000000 1.0
C      1  0.4756750000000  0.4678160000000  0.4964300000000 1.0
C      1  0.4888800000000  0.4863070000000  0.5160280000000 1.0
END
