TITL C-150250-3245-5 77.7290701782736 125000 -636.040297759944 0 0 93 (C1) n - 1
REM
REM in /rds/project/t2_vol4/rds-t2-cs072/BORA/CARBON/from-Arr/AIRSS/Generating-Clusters/GAP-ML-2020/Higher-Symm/SD-CG/HFTN-CG
REM
REM
REM
REM
REM
REM ./C.cell (b20cbc046b6831c77cfcea5457e17084)
REM AIRSS Version 0.9.1 bugfix July 2018 build 013d7b7c2542+ Fri, 06 Jul 2018 19:26:36 +0100
REM compiler GCC version 9.3.0
REM options -cpp -mtune=generic -march=x86-64 -g -O0
REM seed 208163971 -2086070951 -1380231699 267965666 1483995106 1253631407 2035358534 327539581 -1120507047 -382164009 -1986043214 -353560556 -431930388 119672663 1502249432 -1241360198 -439052910 1529046434 -574290432 349351644 -882375309 -884029333 939256159 1263287577 536941134 -1360925995 -2122123104 -1353171053 1036092850 1622985656 -615582747 -1831087943 -1399117130
REM
CELL 1.54180   50.00000   50.00000   50.00000   90.00000   90.00000   90.00000
LATT -1
SFAC C  
C      1  0.4584700000000  0.4745010000000  0.5306480000000 1.0
C      1  0.4593630000000  0.4892880000000  0.4598600000000 1.0
C      1  0.4640570000000  0.5368660000000  0.5049040000000 1.0
C      1  0.5781780000000  0.4969350000000  0.4750460000000 1.0
C      1  0.5781270000000  0.5235470000000  0.5113100000000 1.0
C      1  0.5766110000000  0.4784720000000  0.5165690000000 1.0
C      1  0.4951000000000  0.4813150000000  0.5774750000000 1.0
C      1  0.5005230000000  0.4400320000000  0.4442260000000 1.0
C      1  0.4973090000000  0.5771790000000  0.4766250000000 1.0
C      1  0.5196470000000  0.5353500000000  0.5552530000000 1.0
C      1  0.5215190000000  0.4226070000000  0.4963590000000 1.0
C      1  0.5225290000000  0.5306550000000  0.4433730000000 1.0
C      1  0.5388230000000  0.4322060000000  0.4744980000000 1.0
C      1  0.5367930000000  0.5527080000000  0.4544660000000 1.0
C      1  0.5339710000000  0.5139190000000  0.5678720000000 1.0
C      1  0.4853940000000  0.4259790000000  0.4637740000000 1.0
C      1  0.4791440000000  0.5677780000000  0.4564830000000 1.0
C      1  0.4760470000000  0.5035810000000  0.5791050000000 1.0
C      1  0.5113620000000  0.5329420000000  0.4889350000000 1.0
C      1  0.5082890000000  0.4961450000000  0.5339500000000 1.0
C      1  0.5098070000000  0.4768230000000  0.4783000000000 1.0
C      1  0.4993380000000  0.5236750000000  0.4614040000000 1.0
C      1  0.4964470000000  0.5239800000000  0.5392180000000 1.0
C      1  0.4943250000000  0.4659050000000  0.4987130000000 1.0
C      1  0.4138300000000  0.4722500000000  0.5068170000000 1.0
C      1  0.4134380000000  0.5109300000000  0.4725760000000 1.0
C      1  0.4054540000000  0.5202690000000  0.5237280000000 1.0
C      1  0.4946230000000  0.4175780000000  0.4890650000000 1.0
C      1  0.4781560000000  0.5398540000000  0.4455370000000 1.0
C      1  0.4722860000000  0.5278300000000  0.5600540000000 1.0
C      1  0.5134430000000  0.4361000000000  0.5477700000000 1.0
C      1  0.5179700000000  0.4854820000000  0.4185790000000 1.0
C      1  0.5174250000000  0.5787410000000  0.5281860000000 1.0
C      1  0.4771180000000  0.5764360000000  0.5495300000000 1.0
C      1  0.4733890000000  0.4232850000000  0.5347520000000 1.0
C      1  0.4762840000000  0.5036590000000  0.4116690000000 1.0
C      1  0.4577150000000  0.5637970000000  0.4951830000000 1.0
C      1  0.4548560000000  0.4691920000000  0.5605560000000 1.0
C      1  0.4598100000000  0.4615530000000  0.4481300000000 1.0
C      1  0.4731280000000  0.5572470000000  0.5650110000000 1.0
C      1  0.4728350000000  0.4221830000000  0.5080900000000 1.0
C      1  0.4780220000000  0.5276740000000  0.4185880000000 1.0
C      1  0.5692110000000  0.4460970000000  0.4903370000000 1.0
C      1  0.5720090000000  0.5346080000000  0.4577140000000 1.0
C      1  0.5689980000000  0.5193660000000  0.5523080000000 1.0
C      1  0.5229100000000  0.5622340000000  0.4810470000000 1.0
C      1  0.5198330000000  0.4859540000000  0.5617350000000 1.0
C      1  0.5247970000000  0.4524380000000  0.4552680000000 1.0
C      1  0.5360430000000  0.5162050000000  0.4931840000000 1.0
C      1  0.5347130000000  0.5002580000000  0.5177860000000 1.0
C      1  0.5352700000000  0.4866950000000  0.4912150000000 1.0
C      1  0.4877540000000  0.4776520000000  0.5218890000000 1.0
C      1  0.4904250000000  0.4961220000000  0.4638690000000 1.0
C      1  0.4911290000000  0.5331430000000  0.5116680000000 1.0
C      1  0.4177530000000  0.5257510000000  0.4974350000000 1.0
C      1  0.4141690000000  0.4916060000000  0.5272630000000 1.0
C      1  0.4167470000000  0.4837840000000  0.4808370000000 1.0
C      1  0.5314080000000  0.4575490000000  0.5543080000000 1.0
C      1  0.5367160000000  0.4705520000000  0.4343070000000 1.0
C      1  0.5358520000000  0.5725120000000  0.5072860000000 1.0
C      1  0.5736620000000  0.5414640000000  0.5325560000000 1.0
C      1  0.5722240000000  0.4508490000000  0.5197960000000 1.0
C      1  0.5752340000000  0.5064220000000  0.4485790000000 1.0
C      1  0.4469440000000  0.4872830000000  0.4862240000000 1.0
C      1  0.4464960000000  0.5143210000000  0.5033060000000 1.0
C      1  0.4437250000000  0.4999150000000  0.5294680000000 1.0
C      1  0.4427910000000  0.5166530000000  0.5547300000000 1.0
C      1  0.4531580000000  0.4385090000000  0.4937200000000 1.0
C      1  0.4486140000000  0.5381000000000  0.4529870000000 1.0
C      1  0.4820990000000  0.4574290000000  0.4306460000000 1.0
C      1  0.4805800000000  0.5810190000000  0.4999330000000 1.0
C      1  0.4786720000000  0.4577890000000  0.5713890000000 1.0
C      1  0.5667580000000  0.4254530000000  0.4732600000000 1.0
C      1  0.5628890000000  0.5571650000000  0.4459620000000 1.0
C      1  0.5595100000000  0.5187560000000  0.5776520000000 1.0
C      1  0.4903260000000  0.5851280000000  0.5262320000000 1.0
C      1  0.4867800000000  0.4344610000000  0.5563060000000 1.0
C      1  0.4909890000000  0.4795660000000  0.4149560000000 1.0
C      1  0.5664330000000  0.5227950000000  0.4859690000000 1.0
C      1  0.5645060000000  0.5010650000000  0.5279060000000 1.0
C      1  0.5650260000000  0.4764380000000  0.4884290000000 1.0
C      1  0.5279130000000  0.4286080000000  0.5237610000000 1.0
C      1  0.5317270000000  0.5105720000000  0.4259430000000 1.0
C      1  0.5308260000000  0.5597700000000  0.5461820000000 1.0
C      1  0.5483740000000  0.4469070000000  0.5334160000000 1.0
C      1  0.5536980000000  0.4943170000000  0.4356310000000 1.0
C      1  0.5529340000000  0.5591860000000  0.5271750000000 1.0
C      1  0.4606310000000  0.4396190000000  0.4664380000000 1.0
C      1  0.4524460000000  0.5628330000000  0.4675250000000 1.0
C      1  0.4500740000000  0.4939450000000  0.5734360000000 1.0
C      1  0.4370480000000  0.5137180000000  0.4550070000000 1.0
C      1  0.4176130000000  0.5293370000000  0.5470290000000 1.0
C      1  0.4426090000000  0.4616360000000  0.5068120000000 1.0
END
