TITL C-156527-8951-3 -10.5736068756966 125000 -1356.64008061211 0 0 194 (C1) n - 1
REM
REM in /rds/project/t2_vol4/rds-t2-cs072/BORA/CARBON/from-Arr/AIRSS/Generating-Clusters/GAP-ML-2020/Higher-Symm/SD-CG/HFTN-CG/C160-200
REM
REM
REM
REM
REM
REM ./C.cell (6b4489405718ea1b717e0baf1da4c2d9)
REM AIRSS Version 0.9.1 bugfix July 2018 build 013d7b7c2542+ Fri, 06 Jul 2018 19:26:36 +0100
REM compiler GCC version 9.3.0
REM options -cpp -mtune=generic -march=x86-64 -g -O0
REM seed -1173533233 -2009314484 1908424887 -977062474 -1056063702 1705477701 -1621321468 1683296140 525402799 469522625 -1884079401 1820943387 -1316628139 -1933603237 -1498764183 1274918901 798413379 -1679490836 1301523312 1981276081 1261178485 -1901832457 -44284664 416315714 2087532255 1993272591 1939103940 1697545176 -1714209792 -1525543499 994119932 2070158134 17530760
REM
CELL 1.54180   50.00000   50.00000   50.00000   90.00000   90.00000   90.00000
LATT -1
SFAC C  
C      1  0.3906190000000  0.4700620000000  0.5245270000000 1.0
C      1  0.3946650000000  0.4607660000000  0.4994240000000 1.0
C      1  0.4583510000000  0.5563490000000  0.5994420000000 1.0
C      1  0.5532620000000  0.4991520000000  0.4416270000000 1.0
C      1  0.4418080000000  0.5768350000000  0.4541690000000 1.0
C      1  0.5271880000000  0.3924390000000  0.4889180000000 1.0
C      1  0.5874900000000  0.4330800000000  0.4537290000000 1.0
C      1  0.4832360000000  0.5459350000000  0.4980430000000 1.0
C      1  0.4678220000000  0.5451180000000  0.5478510000000 1.0
C      1  0.4741400000000  0.5005170000000  0.4020530000000 1.0
C      1  0.4715420000000  0.5195840000000  0.4618710000000 1.0
C      1  0.3905370000000  0.4961050000000  0.5340410000000 1.0
C      1  0.5952380000000  0.5439730000000  0.5230900000000 1.0
C      1  0.5591520000000  0.4040850000000  0.4545640000000 1.0
C      1  0.6001180000000  0.5353600000000  0.4707530000000 1.0
C      1  0.5442990000000  0.4636180000000  0.4772220000000 1.0
C      1  0.5018350000000  0.4759570000000  0.5128350000000 1.0
C      1  0.4744650000000  0.4577000000000  0.3865880000000 1.0
C      1  0.5559850000000  0.5845370000000  0.5623890000000 1.0
C      1  0.4396450000000  0.6007740000000  0.4957930000000 1.0
C      1  0.4274910000000  0.4291770000000  0.4461300000000 1.0
C      1  0.4967020000000  0.4573760000000  0.4212080000000 1.0
C      1  0.5438850000000  0.4099860000000  0.5423950000000 1.0
C      1  0.5774580000000  0.4745530000000  0.5471720000000 1.0
C      1  0.5279080000000  0.4633980000000  0.5511270000000 1.0
C      1  0.5491890000000  0.6051210000000  0.4891160000000 1.0
C      1  0.5719360000000  0.5094760000000  0.4060780000000 1.0
C      1  0.4682010000000  0.6051910000000  0.5417430000000 1.0
C      1  0.5973450000000  0.5158770000000  0.5330040000000 1.0
C      1  0.6103700000000  0.4908910000000  0.4886610000000 1.0
C      1  0.5455730000000  0.4676510000000  0.5913480000000 1.0
C      1  0.4717050000000  0.5355150000000  0.6149950000000 1.0
C      1  0.4793860000000  0.4438960000000  0.5545370000000 1.0
C      1  0.5891290000000  0.5486570000000  0.4936560000000 1.0
C      1  0.4988150000000  0.3878630000000  0.4858600000000 1.0
C      1  0.4724940000000  0.3904770000000  0.5447490000000 1.0
C      1  0.4325600000000  0.5636610000000  0.5543760000000 1.0
C      1  0.3892140000000  0.5175110000000  0.5144830000000 1.0
C      1  0.4188380000000  0.4136990000000  0.4908300000000 1.0
C      1  0.5445920000000  0.5344880000000  0.6046470000000 1.0
C      1  0.4510840000000  0.5431170000000  0.4151240000000 1.0
C      1  0.5091880000000  0.6116230000000  0.5125100000000 1.0
C      1  0.4420980000000  0.4443870000000  0.5840130000000 1.0
C      1  0.5594350000000  0.5315390000000  0.4453040000000 1.0
C      1  0.4742300000000  0.4829970000000  0.4263810000000 1.0
C      1  0.5421980000000  0.5076510000000  0.6128530000000 1.0
C      1  0.4661670000000  0.4702700000000  0.5536970000000 1.0
C      1  0.4204910000000  0.4794010000000  0.4285840000000 1.0
C      1  0.5113000000000  0.4096960000000  0.4478800000000 1.0
C      1  0.5519650000000  0.4578570000000  0.5046000000000 1.0
C      1  0.5338190000000  0.3977890000000  0.4616860000000 1.0
C      1  0.4526370000000  0.5626760000000  0.5287050000000 1.0
C      1  0.5259000000000  0.4567500000000  0.5219760000000 1.0
C      1  0.5079450000000  0.4411700000000  0.5588870000000 1.0
C      1  0.5238430000000  0.4967720000000  0.4343110000000 1.0
C      1  0.4802120000000  0.4879660000000  0.5346080000000 1.0
C      1  0.3883740000000  0.5095170000000  0.4869850000000 1.0
C      1  0.4212100000000  0.4831430000000  0.5672270000000 1.0
C      1  0.5004420000000  0.5385240000000  0.4073080000000 1.0
C      1  0.4966640000000  0.5202810000000  0.6053370000000 1.0
C      1  0.4814160000000  0.5793020000000  0.4306900000000 1.0
C      1  0.5480820000000  0.5095700000000  0.4840170000000 1.0
C      1  0.5713300000000  0.5595040000000  0.5685620000000 1.0
C      1  0.6096700000000  0.4631080000000  0.4830600000000 1.0
C      1  0.4843720000000  0.5935200000000  0.4557320000000 1.0
C      1  0.5043020000000  0.5335520000000  0.5154090000000 1.0
C      1  0.4942290000000  0.4551530000000  0.4892250000000 1.0
C      1  0.5203810000000  0.5203560000000  0.3905610000000 1.0
C      1  0.4895240000000  0.5395110000000  0.4703320000000 1.0
C      1  0.5338420000000  0.5852950000000  0.4496970000000 1.0
C      1  0.4287460000000  0.4073880000000  0.5179900000000 1.0
C      1  0.5874340000000  0.5385520000000  0.4445750000000 1.0
C      1  0.4813110000000  0.5070850000000  0.5808110000000 1.0
C      1  0.4553300000000  0.5678350000000  0.4299320000000 1.0
C      1  0.4550500000000  0.4769790000000  0.4653180000000 1.0
C      1  0.4680420000000  0.4806330000000  0.5846040000000 1.0
C      1  0.5296200000000  0.5484480000000  0.5248520000000 1.0
C      1  0.5526840000000  0.5968390000000  0.5178460000000 1.0
C      1  0.4478320000000  0.4703710000000  0.4351500000000 1.0
C      1  0.6119340000000  0.5095730000000  0.4671160000000 1.0
C      1  0.5960340000000  0.4763200000000  0.4344750000000 1.0
C      1  0.5426500000000  0.5418370000000  0.4237830000000 1.0
C      1  0.4156730000000  0.5842650000000  0.4920430000000 1.0
C      1  0.4556490000000  0.5290570000000  0.5022830000000 1.0
C      1  0.4043000000000  0.5476590000000  0.4589280000000 1.0
C      1  0.4536620000000  0.4547480000000  0.5073300000000 1.0
C      1  0.4066620000000  0.4452250000000  0.4566730000000 1.0
C      1  0.5194400000000  0.5448610000000  0.5552630000000 1.0
C      1  0.4946300000000  0.5330540000000  0.5440450000000 1.0
C      1  0.4483180000000  0.5308260000000  0.6010630000000 1.0
C      1  0.5951400000000  0.4964060000000  0.5123630000000 1.0
C      1  0.5773650000000  0.5100960000000  0.5822940000000 1.0
C      1  0.5607580000000  0.5593440000000  0.4862450000000 1.0
C      1  0.5857180000000  0.5628430000000  0.5423990000000 1.0
C      1  0.6068090000000  0.5015920000000  0.4393370000000 1.0
C      1  0.5043540000000  0.5869530000000  0.5715090000000 1.0
C      1  0.5675520000000  0.4817660000000  0.5181360000000 1.0
C      1  0.4020620000000  0.4372310000000  0.4844410000000 1.0
C      1  0.4127010000000  0.5060920000000  0.4223770000000 1.0
C      1  0.5365950000000  0.5176620000000  0.5559340000000 1.0
C      1  0.4454280000000  0.5182850000000  0.4760160000000 1.0
C      1  0.5621110000000  0.4280870000000  0.5540830000000 1.0
C      1  0.4353100000000  0.4905500000000  0.4839800000000 1.0
C      1  0.5880760000000  0.5013860000000  0.5569680000000 1.0
C      1  0.5300790000000  0.5691850000000  0.4268930000000 1.0
C      1  0.4580520000000  0.5671750000000  0.5719680000000 1.0
C      1  0.4299300000000  0.5283700000000  0.4266570000000 1.0
C      1  0.5407530000000  0.4091920000000  0.5101790000000 1.0
C      1  0.5113230000000  0.5997880000000  0.4621320000000 1.0
C      1  0.4757090000000  0.5902820000000  0.5651180000000 1.0
C      1  0.4109880000000  0.5617710000000  0.5090010000000 1.0
C      1  0.5286770000000  0.5968990000000  0.5585940000000 1.0
C      1  0.4654770000000  0.4545770000000  0.4799130000000 1.0
C      1  0.4715560000000  0.4396330000000  0.5843500000000 1.0
C      1  0.5296630000000  0.6077480000000  0.5323470000000 1.0
C      1  0.5763550000000  0.4158060000000  0.4740300000000 1.0
C      1  0.5180500000000  0.5072160000000  0.4775920000000 1.0
C      1  0.5870600000000  0.4291390000000  0.5410140000000 1.0
C      1  0.5152230000000  0.4394380000000  0.4409600000000 1.0
C      1  0.4918350000000  0.4296340000000  0.5059770000000 1.0
C      1  0.5566960000000  0.4877550000000  0.4684060000000 1.0
C      1  0.4644420000000  0.4330440000000  0.4587260000000 1.0
C      1  0.3911920000000  0.5033590000000  0.4412220000000 1.0
C      1  0.5175750000000  0.5429370000000  0.6008130000000 1.0
C      1  0.5445310000000  0.5673310000000  0.5097730000000 1.0
C      1  0.4338990000000  0.4093260000000  0.4667540000000 1.0
C      1  0.4733470000000  0.5294190000000  0.4037090000000 1.0
C      1  0.4060230000000  0.5053470000000  0.5573240000000 1.0
C      1  0.5150390000000  0.4711650000000  0.6020550000000 1.0
C      1  0.4367340000000  0.5494830000000  0.5099040000000 1.0
C      1  0.3889830000000  0.5234380000000  0.4619400000000 1.0
C      1  0.6050830000000  0.4480740000000  0.5069610000000 1.0
C      1  0.4635920000000  0.4058340000000  0.4693530000000 1.0
C      1  0.5647990000000  0.4254580000000  0.4363670000000 1.0
C      1  0.4010460000000  0.4744990000000  0.4509920000000 1.0
C      1  0.5550300000000  0.4569840000000  0.5637890000000 1.0
C      1  0.5146030000000  0.5614380000000  0.5795050000000 1.0
C      1  0.5600640000000  0.4915040000000  0.5980500000000 1.0
C      1  0.5171050000000  0.5262750000000  0.4326150000000 1.0
C      1  0.4605460000000  0.5877540000000  0.4746120000000 1.0
C      1  0.5033780000000  0.5668310000000  0.4168770000000 1.0
C      1  0.5193120000000  0.4763400000000  0.4107550000000 1.0
C      1  0.4520580000000  0.4410110000000  0.4329970000000 1.0
C      1  0.5900000000000  0.4239280000000  0.5128270000000 1.0
C      1  0.4033450000000  0.4838830000000  0.4806180000000 1.0
C      1  0.4530440000000  0.6113980000000  0.5183400000000 1.0
C      1  0.5474430000000  0.5249820000000  0.4001680000000 1.0
C      1  0.4766100000000  0.4040950000000  0.4970330000000 1.0
C      1  0.5156800000000  0.4146820000000  0.5495380000000 1.0
C      1  0.4354920000000  0.4674870000000  0.5462580000000 1.0
C      1  0.5677210000000  0.5377870000000  0.5872810000000 1.0
C      1  0.4794580000000  0.4934370000000  0.4538180000000 1.0
C      1  0.5466280000000  0.5037580000000  0.5127200000000 1.0
C      1  0.5938970000000  0.5211980000000  0.4231780000000 1.0
C      1  0.4951610000000  0.3942900000000  0.5554060000000 1.0
C      1  0.5549070000000  0.5848980000000  0.4698640000000 1.0
C      1  0.4570510000000  0.5055090000000  0.5241100000000 1.0
C      1  0.4195700000000  0.5340070000000  0.5500450000000 1.0
C      1  0.5719420000000  0.5881320000000  0.5379410000000 1.0
C      1  0.5158300000000  0.4587700000000  0.4671740000000 1.0
C      1  0.4725040000000  0.4424600000000  0.4083600000000 1.0
C      1  0.4828130000000  0.4832890000000  0.3810180000000 1.0
C      1  0.5428740000000  0.4399060000000  0.4261100000000 1.0
C      1  0.4882930000000  0.4613030000000  0.5960110000000 1.0
C      1  0.4289630000000  0.4392360000000  0.5577430000000 1.0
C      1  0.5643620000000  0.4242280000000  0.4995940000000 1.0
C      1  0.5217800000000  0.4939260000000  0.5560100000000 1.0
C      1  0.5218050000000  0.6113940000000  0.4865140000000 1.0
C      1  0.4952060000000  0.5046840000000  0.5541160000000 1.0
C      1  0.5142360000000  0.5037600000000  0.5066450000000 1.0
C      1  0.5987570000000  0.4545820000000  0.5358110000000 1.0
C      1  0.4151960000000  0.5732570000000  0.4651370000000 1.0
C      1  0.5692830000000  0.4827040000000  0.4194540000000 1.0
C      1  0.5154530000000  0.4978320000000  0.6133130000000 1.0
C      1  0.4693860000000  0.4353450000000  0.5255910000000 1.0
C      1  0.5085870000000  0.4873290000000  0.4585930000000 1.0
C      1  0.5469600000000  0.5371040000000  0.4708730000000 1.0
C      1  0.5470120000000  0.4636050000000  0.4122530000000 1.0
C      1  0.4206490000000  0.4198930000000  0.5413330000000 1.0
C      1  0.5161330000000  0.5335480000000  0.4625330000000 1.0
C      1  0.6017480000000  0.4567350000000  0.4551030000000 1.0
C      1  0.4040410000000  0.5400050000000  0.5256040000000 1.0
C      1  0.4384190000000  0.4717620000000  0.5887260000000 1.0
C      1  0.4545990000000  0.5158110000000  0.5771210000000 1.0
C      1  0.4896610000000  0.3948770000000  0.4595890000000 1.0
C      1  0.4420320000000  0.4811460000000  0.5137890000000 1.0
C      1  0.5473430000000  0.5250430000000  0.5305130000000 1.0
C      1  0.4730780000000  0.5739730000000  0.5031000000000 1.0
C      1  0.4483590000000  0.5225920000000  0.5500460000000 1.0
C      1  0.4589050000000  0.4045200000000  0.5223410000000 1.0
C      1  0.4826750000000  0.6005160000000  0.5162760000000 1.0
C      1  0.4279140000000  0.5319430000000  0.4552510000000 1.0
C      1  0.5086850000000  0.4932440000000  0.3889710000000 1.0
C      1  0.5171930000000  0.4274940000000  0.5195450000000 1.0
END
