TITL C-154543-3082-5 279.008328482273 125000 -139.547629531429 0 0 22 (C1) n - 1
REM
REM in /rds/project/t2_vol4/rds-t2-cs072/BORA/CARBON/from-Arr/AIRSS/Generating-Clusters/GAP-ML-2020/Higher-Symm/SD-CG/HFTN-CG
REM
REM
REM
REM
REM
REM ./C.cell (b20cbc046b6831c77cfcea5457e17084)
REM AIRSS Version 0.9.1 bugfix July 2018 build 013d7b7c2542+ Fri, 06 Jul 2018 19:26:36 +0100
REM compiler GCC version 9.3.0
REM options -cpp -mtune=generic -march=x86-64 -g -O0
REM seed 1175215322 -1036845812 -191010728 1735774293 -35181260 2029618100 -1762845014 -1855668333 -1516478810 1526312497 23754065 -280914340 375194205 -279514369 366235634 -1237842698 -310450895 -875029178 1273797936 -232042158 -1844888946 -382966172 700986582 1484700743 -1334842074 2111677322 1335476863 192221427 26881288 -1137528196 -1505231113 -1151921991 1077884307
REM
CELL 1.54180   50.00000   50.00000   50.00000   90.00000   90.00000   90.00000
LATT -1
SFAC C  
C      1  0.4775410000000  0.4856920000000  0.5383680000000 1.0
C      1  0.4908810000000  0.4841890000000  0.4765940000000 1.0
C      1  0.4797970000000  0.5394000000000  0.5058110000000 1.0
C      1  0.4946960000000  0.5255340000000  0.5251810000000 1.0
C      1  0.4985890000000  0.4802380000000  0.5210160000000 1.0
C      1  0.5046630000000  0.5072200000000  0.4841720000000 1.0
C      1  0.5407930000000  0.4735760000000  0.4967740000000 1.0
C      1  0.5681890000000  0.4996480000000  0.4656790000000 1.0
C      1  0.5648140000000  0.5149540000000  0.5138350000000 1.0
C      1  0.5694360000000  0.5140590000000  0.4880770000000 1.0
C      1  0.5416600000000  0.4977570000000  0.5144190000000 1.0
C      1  0.5503270000000  0.4804040000000  0.4734420000000 1.0
C      1  0.4522860000000  0.5279540000000  0.5037910000000 1.0
C      1  0.4520280000000  0.4834750000000  0.5235220000000 1.0
C      1  0.4623750000000  0.4894600000000  0.4761000000000 1.0
C      1  0.4744960000000  0.5137720000000  0.5410070000000 1.0
C      1  0.4876460000000  0.4673700000000  0.4992730000000 1.0
C      1  0.4858330000000  0.5279140000000  0.4807430000000 1.0
C      1  0.4589890000000  0.5166710000000  0.4781150000000 1.0
C      1  0.4488390000000  0.5120610000000  0.5257670000000 1.0
C      1  0.4587960000000  0.4728540000000  0.4989810000000 1.0
C      1  0.5143210000000  0.5045840000000  0.5131680000000 1.0
END
