TITL C-152277-5826-2 -0.0997819090258825 125000 -584.405794104955 0 0 86 (C1) n - 1
REM
REM in /rds/project/t2_vol4/rds-t2-cs072/BORA/CARBON/from-Arr/AIRSS/Generating-Clusters/GAP-ML-2020/Higher-Symm/SD-CG/HFTN-CG
REM
REM
REM
REM
REM
REM ./C.cell (b20cbc046b6831c77cfcea5457e17084)
REM AIRSS Version 0.9.1 bugfix July 2018 build 013d7b7c2542+ Fri, 06 Jul 2018 19:26:36 +0100
REM compiler GCC version 9.3.0
REM options -cpp -mtune=generic -march=x86-64 -g -O0
REM seed 773056270 2144594933 1157701280 554660251 -824245422 -2132701915 -225233935 1884485199 991286680 160471213 -690041857 -530653414 999424948 -1769209648 -343482050 -944805982 -1985445754 -647866694 1260859935 -1589453392 -1871722276 72232030 1469826567 -738922657 1386408700 -500260667 1403468570 1358196149 1620350963 -2010210579 15421336 1656317671 754466435
REM
CELL 1.54180   50.00000   50.00000   50.00000   90.00000   90.00000   90.00000
LATT -1
SFAC C  
C      1  0.5649500000000  0.4638520000000  0.5407430000000 1.0
C      1  0.4364020000000  0.4601010000000  0.5398010000000 1.0
C      1  0.4979190000000  0.5731700000000  0.5417950000000 1.0
C      1  0.4846830000000  0.4910650000000  0.5899610000000 1.0
C      1  0.5007270000000  0.5142240000000  0.5904700000000 1.0
C      1  0.5127280000000  0.4886820000000  0.5900980000000 1.0
C      1  0.4567750000000  0.4232720000000  0.5089680000000 1.0
C      1  0.4519170000000  0.5753010000000  0.5159040000000 1.0
C      1  0.5879000000000  0.5017360000000  0.5122590000000 1.0
C      1  0.5601380000000  0.4518270000000  0.4924090000000 1.0
C      1  0.4290590000000  0.4728770000000  0.4910360000000 1.0
C      1  0.5134920000000  0.5747990000000  0.4916620000000 1.0
C      1  0.4856550000000  0.4614770000000  0.5107860000000 1.0
C      1  0.4735390000000  0.5316770000000  0.5131060000000 1.0
C      1  0.5399770000000  0.5065190000000  0.5120870000000 1.0
C      1  0.5279150000000  0.4746720000000  0.5709390000000 1.0
C      1  0.4647170000000  0.4855260000000  0.5708890000000 1.0
C      1  0.5066770000000  0.5348590000000  0.5722330000000 1.0
C      1  0.5182000000000  0.5207590000000  0.4957470000000 1.0
C      1  0.5089230000000  0.4734610000000  0.4946480000000 1.0
C      1  0.4721480000000  0.5061640000000  0.4959410000000 1.0
C      1  0.5192040000000  0.5018790000000  0.4188710000000 1.0
C      1  0.4922420000000  0.4952870000000  0.4210750000000 1.0
C      1  0.4756670000000  0.5179920000000  0.4175420000000 1.0
C      1  0.5600230000000  0.5452580000000  0.5008000000000 1.0
C      1  0.5084180000000  0.4245800000000  0.4990140000000 1.0
C      1  0.4298300000000  0.5298690000000  0.5019780000000 1.0
C      1  0.4553240000000  0.4611280000000  0.5625590000000 1.0
C      1  0.4905570000000  0.5554700000000  0.5644420000000 1.0
C      1  0.5539750000000  0.4791600000000  0.5635790000000 1.0
C      1  0.5247370000000  0.5284070000000  0.4095840000000 1.0
C      1  0.5469350000000  0.4508560000000  0.4030730000000 1.0
C      1  0.4482430000000  0.5120940000000  0.4122630000000 1.0
C      1  0.4112950000000  0.4900930000000  0.4790690000000 1.0
C      1  0.5370990000000  0.5829450000000  0.4805940000000 1.0
C      1  0.5522390000000  0.4286340000000  0.4800680000000 1.0
C      1  0.4338730000000  0.5142480000000  0.5248770000000 1.0
C      1  0.5452810000000  0.5491210000000  0.5244440000000 1.0
C      1  0.5198780000000  0.4348520000000  0.5227980000000 1.0
C      1  0.4539400000000  0.4849250000000  0.4504730000000 1.0
C      1  0.5069240000000  0.5469820000000  0.4493620000000 1.0
C      1  0.5399120000000  0.4679130000000  0.4507850000000 1.0
C      1  0.4359030000000  0.4960830000000  0.4281640000000 1.0
C      1  0.5228640000000  0.5504660000000  0.4221650000000 1.0
C      1  0.5449400000000  0.4492770000000  0.4281580000000 1.0
C      1  0.4789440000000  0.4340330000000  0.4950100000000 1.0
C      1  0.4527540000000  0.5520690000000  0.4995370000000 1.0
C      1  0.5678850000000  0.5154690000000  0.4978850000000 1.0
C      1  0.4944620000000  0.5648230000000  0.4713250000000 1.0
C      1  0.5605070000000  0.4729830000000  0.4726380000000 1.0
C      1  0.4474790000000  0.4635170000000  0.4701490000000 1.0
C      1  0.4690590000000  0.4451960000000  0.4695220000000 1.0
C      1  0.4671610000000  0.5573780000000  0.4743290000000 1.0
C      1  0.5651790000000  0.5008010000000  0.4730010000000 1.0
C      1  0.5793220000000  0.4876390000000  0.5326450000000 1.0
C      1  0.4495630000000  0.4359910000000  0.5307620000000 1.0
C      1  0.4697940000000  0.5743570000000  0.5352100000000 1.0
C      1  0.5030270000000  0.5361030000000  0.5187480000000 1.0
C      1  0.5295690000000  0.4786830000000  0.5176020000000 1.0
C      1  0.4668770000000  0.4844880000000  0.5176820000000 1.0
C      1  0.4533430000000  0.5105850000000  0.4693170000000 1.0
C      1  0.5296220000000  0.5344860000000  0.4675830000000 1.0
C      1  0.5157940000000  0.4561730000000  0.4666200000000 1.0
C      1  0.4978300000000  0.4500070000000  0.5362090000000 1.0
C      1  0.4582450000000  0.5253620000000  0.5385230000000 1.0
C      1  0.5431690000000  0.5222880000000  0.5378070000000 1.0
C      1  0.5630390000000  0.5042770000000  0.5516440000000 1.0
C      1  0.4723360000000  0.4410550000000  0.5497340000000 1.0
C      1  0.4638050000000  0.5511410000000  0.5534060000000 1.0
C      1  0.4799990000000  0.4761560000000  0.4377600000000 1.0
C      1  0.4814210000000  0.5358340000000  0.4381040000000 1.0
C      1  0.5371760000000  0.4946970000000  0.4385360000000 1.0
C      1  0.5132620000000  0.4740940000000  0.5448100000000 1.0
C      1  0.4714960000000  0.4996300000000  0.5454540000000 1.0
C      1  0.5146820000000  0.5233430000000  0.5458470000000 1.0
C      1  0.5161150000000  0.5625600000000  0.5201950000000 1.0
C      1  0.5462640000000  0.4540870000000  0.5195270000000 1.0
C      1  0.4373820000000  0.4820470000000  0.5194200000000 1.0
C      1  0.4617870000000  0.5360690000000  0.4572840000000 1.0
C      1  0.5471570000000  0.5137260000000  0.4555940000000 1.0
C      1  0.4899130000000  0.4547580000000  0.4524920000000 1.0
C      1  0.5247580000000  0.4297270000000  0.4771330000000 1.0
C      1  0.4255150000000  0.5134840000000  0.4796000000000 1.0
C      1  0.5466980000000  0.5570900000000  0.4787090000000 1.0
C      1  0.4994670000000  0.5003580000000  0.4869310000000 1.0
C      1  0.4998670000000  0.4990740000000  0.5463830000000 1.0
END
