TITL C-15938-686-1 32.9291675656922 125000 -501.967138955721 0 0 73 (C1) n - 1
REM
REM in /rds/project/t2_vol4/rds-t2-cs072/BORA/CARBON/from-Arr/AIRSS/Generating-Clusters/GAP-ML-2020/Higher-Symm/SD-CG/HFTN-CG
REM
REM
REM
REM
REM
REM ./C.cell (b20cbc046b6831c77cfcea5457e17084)
REM AIRSS Version 0.9.1 bugfix July 2018 build 013d7b7c2542+ Fri, 06 Jul 2018 19:26:36 +0100
REM compiler GCC version 9.3.0
REM options -cpp -mtune=generic -march=x86-64 -g -O0
REM seed -2136810107 1784878018 -267740841 -2100087916 1056460967 544619456 -1333538056 -1495380932 275357974 -2123474492 1910332468 2095380190 597034547 -1802695847 -40004957 623309562 -135255761 -1782943894 1927090198 -1883734441 869701301 -607115260 -1029040201 -1631370153 -791388031 -1681104195 1644826306 -1922549914 -1263273511 -156026535 -2080013260 836353005 -536781995
REM
CELL 1.54180   50.00000   50.00000   50.00000   90.00000   90.00000   90.00000
LATT -1
SFAC C  
C      1  0.5644630000000  0.4814210000000  0.4613620000000 1.0
C      1  0.5674230000000  0.4742820000000  0.5350490000000 1.0
C      1  0.5656620000000  0.5399280000000  0.5032340000000 1.0
C      1  0.4330100000000  0.5346960000000  0.4997640000000 1.0
C      1  0.4361990000000  0.4813940000000  0.4695200000000 1.0
C      1  0.4350750000000  0.4834880000000  0.5299290000000 1.0
C      1  0.4742150000000  0.5319790000000  0.4350560000000 1.0
C      1  0.4743980000000  0.4273180000000  0.5041350000000 1.0
C      1  0.4755660000000  0.5397730000000  0.5598470000000 1.0
C      1  0.4607700000000  0.4822010000000  0.5639000000000 1.0
C      1  0.4601980000000  0.5631890000000  0.4820410000000 1.0
C      1  0.4625360000000  0.4529020000000  0.4525730000000 1.0
C      1  0.4539780000000  0.5167330000000  0.4991010000000 1.0
C      1  0.4572720000000  0.4924050000000  0.4844160000000 1.0
C      1  0.4557490000000  0.4919450000000  0.5136170000000 1.0
C      1  0.4507510000000  0.4429960000000  0.5029160000000 1.0
C      1  0.4506070000000  0.5312060000000  0.5474280000000 1.0
C      1  0.4498790000000  0.5248890000000  0.4484980000000 1.0
C      1  0.4784260000000  0.5726210000000  0.4642350000000 1.0
C      1  0.4817890000000  0.4335840000000  0.4546560000000 1.0
C      1  0.4811280000000  0.4929060000000  0.5788530000000 1.0
C      1  0.5201990000000  0.4332240000000  0.5061410000000 1.0
C      1  0.5223540000000  0.5363970000000  0.5557480000000 1.0
C      1  0.5205780000000  0.5315660000000  0.4392520000000 1.0
C      1  0.5138780000000  0.5164990000000  0.5742010000000 1.0
C      1  0.5111970000000  0.5573350000000  0.4464960000000 1.0
C      1  0.5140170000000  0.4267670000000  0.4790200000000 1.0
C      1  0.5094710000000  0.4868450000000  0.5736060000000 1.0
C      1  0.5067270000000  0.5720810000000  0.4719060000000 1.0
C      1  0.5101360000000  0.4407690000000  0.4522880000000 1.0
C      1  0.4442880000000  0.4543960000000  0.4748250000000 1.0
C      1  0.4429270000000  0.5011300000000  0.5515330000000 1.0
C      1  0.4425350000000  0.5428160000000  0.4733480000000 1.0
C      1  0.4467270000000  0.4959580000000  0.4466590000000 1.0
C      1  0.4461820000000  0.4565140000000  0.5282470000000 1.0
C      1  0.4448050000000  0.5473070000000  0.5242170000000 1.0
C      1  0.4839210000000  0.4885280000000  0.5205900000000 1.0
C      1  0.4803780000000  0.5294260000000  0.5032500000000 1.0
C      1  0.4868760000000  0.4945020000000  0.4771820000000 1.0
C      1  0.4691960000000  0.5591840000000  0.5102380000000 1.0
C      1  0.4677040000000  0.4774280000000  0.4375200000000 1.0
C      1  0.4655800000000  0.4569220000000  0.5499360000000 1.0
C      1  0.4964970000000  0.4322390000000  0.5229570000000 1.0
C      1  0.4990410000000  0.5530280000000  0.5467110000000 1.0
C      1  0.4978140000000  0.5144810000000  0.4311410000000 1.0
C      1  0.5391500000000  0.5510000000000  0.4952940000000 1.0
C      1  0.5446260000000  0.4687410000000  0.4469910000000 1.0
C      1  0.5407050000000  0.4633230000000  0.5420450000000 1.0
C      1  0.5403200000000  0.5247240000000  0.5374540000000 1.0
C      1  0.5397700000000  0.5240860000000  0.4587180000000 1.0
C      1  0.5381270000000  0.4552800000000  0.5127460000000 1.0
C      1  0.5165290000000  0.5683870000000  0.4985740000000 1.0
C      1  0.5179580000000  0.4655280000000  0.4404110000000 1.0
C      1  0.5164470000000  0.4644790000000  0.5572250000000 1.0
C      1  0.4859670000000  0.5212350000000  0.5784370000000 1.0
C      1  0.4833850000000  0.5582210000000  0.4401170000000 1.0
C      1  0.4859890000000  0.4203260000000  0.4794910000000 1.0
C      1  0.4979790000000  0.4778060000000  0.4972160000000 1.0
C      1  0.4958090000000  0.5135400000000  0.5221800000000 1.0
C      1  0.4960220000000  0.5229850000000  0.4801770000000 1.0
C      1  0.4961060000000  0.5665760000000  0.5212210000000 1.0
C      1  0.4953560000000  0.4856290000000  0.4319520000000 1.0
C      1  0.4932350000000  0.4474640000000  0.5467500000000 1.0
C      1  0.5781660000000  0.5215990000000  0.4851660000000 1.0
C      1  0.5784070000000  0.4741570000000  0.4869780000000 1.0
C      1  0.5793950000000  0.4998270000000  0.5276480000000 1.0
C      1  0.5250950000000  0.5098660000000  0.5129050000000 1.0
C      1  0.5255800000000  0.5251780000000  0.4859040000000 1.0
C      1  0.5251860000000  0.4818010000000  0.5035750000000 1.0
C      1  0.5643130000000  0.5111490000000  0.4620400000000 1.0
C      1  0.5673590000000  0.4598520000000  0.5089060000000 1.0
C      1  0.5669210000000  0.5260000000000  0.5292820000000 1.0
C      1  0.5881450000000  0.4984900000000  0.4995150000000 1.0
END
