TITL C-150265-3461-3 141.543377221029 125000 -964.637789840481 0 0 142 (C2) n - 1
REM
REM in /rds/project/t2_vol4/rds-t2-cs072/BORA/CARBON/from-Arr/AIRSS/Generating-Clusters/GAP-ML-2020/Higher-Symm/SD-CG/HFTN-CG
REM
REM
REM
REM
REM
REM ./C.cell (b20cbc046b6831c77cfcea5457e17084)
REM AIRSS Version 0.9.1 bugfix July 2018 build 013d7b7c2542+ Fri, 06 Jul 2018 19:26:36 +0100
REM compiler GCC version 9.3.0
REM options -cpp -mtune=generic -march=x86-64 -g -O0
REM seed -306865424 -418034352 -180877238 141188385 347592611 1730897561 -940939354 -1379747642 1801156239 -1551138875 -722230974 -1553792496 1267915015 1207261332 -1537108351 1704459246 -547826606 -1937803122 1891125902 -1510459375 -1820785488 16699917 -1250957376 -1833685705 1715455079 1588468145 -1776214940 1020376575 -486616866 -994658253 1405166386 478497077 2115304150
REM
CELL 1.54180   50.00000   50.00000   50.00000   90.00000   90.00000   90.00000
LATT -1
SFAC C  
C      1  0.4919790000000  0.4556120000000  0.4808620000000 1.0
C      1  0.5080100000000  0.5443970000000  0.4808790000000 1.0
C      1  0.5709680000000  0.5667890000000  0.4851130000000 1.0
C      1  0.4290230000000  0.4332190000000  0.4851230000000 1.0
C      1  0.4556930000000  0.4711210000000  0.5049220000000 1.0
C      1  0.5443100000000  0.5288770000000  0.5049100000000 1.0
C      1  0.4473630000000  0.5702280000000  0.5154130000000 1.0
C      1  0.5526470000000  0.4297640000000  0.5153470000000 1.0
C      1  0.5264770000000  0.5564910000000  0.5740010000000 1.0
C      1  0.4735680000000  0.4434720000000  0.5739890000000 1.0
C      1  0.5280000000000  0.4341250000000  0.4311570000000 1.0
C      1  0.4719590000000  0.5659100000000  0.4312070000000 1.0
C      1  0.5872270000000  0.4748050000000  0.4768970000000 1.0
C      1  0.4127590000000  0.5252060000000  0.4769620000000 1.0
C      1  0.4717520000000  0.4957220000000  0.4055500000000 1.0
C      1  0.5281910000000  0.5043250000000  0.4055350000000 1.0
C      1  0.4283220000000  0.5029720000000  0.4865160000000 1.0
C      1  0.5716700000000  0.4970350000000  0.4864710000000 1.0
C      1  0.4655050000000  0.5378430000000  0.4233420000000 1.0
C      1  0.5344490000000  0.4621950000000  0.4233020000000 1.0
C      1  0.4973550000000  0.4342820000000  0.5596170000000 1.0
C      1  0.5026810000000  0.5656880000000  0.5596480000000 1.0
C      1  0.5742450000000  0.5197770000000  0.5595510000000 1.0
C      1  0.4257910000000  0.4801930000000  0.5595860000000 1.0
C      1  0.5175350000000  0.5481200000000  0.4293960000000 1.0
C      1  0.4824230000000  0.4519150000000  0.4293830000000 1.0
C      1  0.5650890000000  0.4433780000000  0.5410520000000 1.0
C      1  0.4349360000000  0.5566010000000  0.5411200000000 1.0
C      1  0.5006870000000  0.4840390000000  0.5849730000000 1.0
C      1  0.4993650000000  0.5159180000000  0.5849810000000 1.0
C      1  0.5272290000000  0.4457170000000  0.5172140000000 1.0
C      1  0.4727820000000  0.5542730000000  0.5172570000000 1.0
C      1  0.5547590000000  0.5233090000000  0.4600350000000 1.0
C      1  0.4452170000000  0.4767110000000  0.4600570000000 1.0
C      1  0.4390670000000  0.4194360000000  0.5081500000000 1.0
C      1  0.5609380000000  0.5805610000000  0.5081530000000 1.0
C      1  0.4407420000000  0.4713970000000  0.4318590000000 1.0
C      1  0.5592170000000  0.5286370000000  0.4318380000000 1.0
C      1  0.4526620000000  0.5388890000000  0.5871520000000 1.0
C      1  0.5473910000000  0.4610670000000  0.5871040000000 1.0
C      1  0.5875670000000  0.5443250000000  0.4910290000000 1.0
C      1  0.4124270000000  0.4556800000000  0.4910600000000 1.0
C      1  0.5599700000000  0.4763460000000  0.4296430000000 1.0
C      1  0.4399880000000  0.5236890000000  0.4296910000000 1.0
C      1  0.4996000000000  0.5715550000000  0.4350180000000 1.0
C      1  0.5003600000000  0.4284780000000  0.4349820000000 1.0
C      1  0.4772110000000  0.5863010000000  0.4737290000000 1.0
C      1  0.5227720000000  0.4137120000000  0.4736720000000 1.0
C      1  0.4510100000000  0.5111310000000  0.5942230000000 1.0
C      1  0.5490470000000  0.4888220000000  0.5941880000000 1.0
C      1  0.4675820000000  0.5964360000000  0.5007970000000 1.0
C      1  0.5324180000000  0.4035620000000  0.5007280000000 1.0
C      1  0.4811970000000  0.4293060000000  0.5357680000000 1.0
C      1  0.5188240000000  0.5706760000000  0.5357920000000 1.0
C      1  0.5654230000000  0.5689990000000  0.5366080000000 1.0
C      1  0.4345990000000  0.4309830000000  0.5366130000000 1.0
C      1  0.4068990000000  0.4880640000000  0.5232460000000 1.0
C      1  0.5931150000000  0.5119240000000  0.5231960000000 1.0
C      1  0.5646890000000  0.5082500000000  0.5131560000000 1.0
C      1  0.4353190000000  0.4917430000000  0.5131920000000 1.0
C      1  0.5601990000000  0.4424840000000  0.4654290000000 1.0
C      1  0.4397800000000  0.5575330000000  0.4654940000000 1.0
C      1  0.5795130000000  0.5221070000000  0.4747260000000 1.0
C      1  0.4204720000000  0.4779060000000  0.4747630000000 1.0
C      1  0.4583270000000  0.4555880000000  0.4790130000000 1.0
C      1  0.5416600000000  0.5444230000000  0.4790100000000 1.0
C      1  0.4743720000000  0.5249400000000  0.5989920000000 1.0
C      1  0.5256880000000  0.4750110000000  0.5989640000000 1.0
C      1  0.4891340000000  0.5224790000000  0.5572770000000 1.0
C      1  0.5109010000000  0.4774920000000  0.5572600000000 1.0
C      1  0.5843970000000  0.4605090000000  0.5022330000000 1.0
C      1  0.4156040000000  0.5394900000000  0.5023040000000 1.0
C      1  0.4936150000000  0.4710970000000  0.4546350000000 1.0
C      1  0.5063580000000  0.5289260000000  0.4546450000000 1.0
C      1  0.4249980000000  0.5358260000000  0.4522870000000 1.0
C      1  0.5749730000000  0.4641970000000  0.4522230000000 1.0
C      1  0.4957060000000  0.4117530000000  0.4584430000000 1.0
C      1  0.5042680000000  0.5882670000000  0.4584850000000 1.0
C      1  0.4830150000000  0.5587850000000  0.4869140000000 1.0
C      1  0.5169780000000  0.4412210000000  0.4868750000000 1.0
C      1  0.4118650000000  0.5028560000000  0.5460650000000 1.0
C      1  0.5881630000000  0.4971210000000  0.5460100000000 1.0
C      1  0.5423400000000  0.4227720000000  0.4526830000000 1.0
C      1  0.4576310000000  0.5772520000000  0.4527480000000 1.0
C      1  0.5491700000000  0.4884500000000  0.5299350000000 1.0
C      1  0.4508480000000  0.5115350000000  0.5299700000000 1.0
C      1  0.4582530000000  0.5178570000000  0.4893090000000 1.0
C      1  0.5417400000000  0.4821480000000  0.4892750000000 1.0
C      1  0.4778940000000  0.5227290000000  0.4517560000000 1.0
C      1  0.5220770000000  0.4772950000000  0.4517320000000 1.0
C      1  0.5429270000000  0.5696890000000  0.5533190000000 1.0
C      1  0.4571050000000  0.4302840000000  0.5533100000000 1.0
C      1  0.4742550000000  0.4933200000000  0.4609290000000 1.0
C      1  0.5257220000000  0.5067000000000  0.4609160000000 1.0
C      1  0.5351440000000  0.4599510000000  0.4722600000000 1.0
C      1  0.4648390000000  0.5400630000000  0.4723010000000 1.0
C      1  0.4497660000000  0.4314960000000  0.4624570000000 1.0
C      1  0.5502110000000  0.5685230000000  0.4624600000000 1.0
C      1  0.4792980000000  0.5511990000000  0.5513240000000 1.0
C      1  0.5207330000000  0.4487750000000  0.5512860000000 1.0
C      1  0.4523740000000  0.5546350000000  0.5634200000000 1.0
C      1  0.5476640000000  0.4453330000000  0.5633640000000 1.0
C      1  0.4827520000000  0.5221850000000  0.4054060000000 1.0
C      1  0.5171910000000  0.4778630000000  0.4053850000000 1.0
C      1  0.5537900000000  0.5039370000000  0.4183600000000 1.0
C      1  0.4461610000000  0.4961040000000  0.4183900000000 1.0
C      1  0.4893410000000  0.4731750000000  0.4078110000000 1.0
C      1  0.5106030000000  0.5268710000000  0.4078180000000 1.0
C      1  0.4683170000000  0.5013900000000  0.5514880000000 1.0
C      1  0.5317140000000  0.4985840000000  0.5514680000000 1.0
C      1  0.5484810000000  0.5122980000000  0.5759510000000 1.0
C      1  0.4515650000000  0.4876640000000  0.5759740000000 1.0
C      1  0.4303200000000  0.5614900000000  0.4940760000000 1.0
C      1  0.5696770000000  0.4385130000000  0.4940030000000 1.0
C      1  0.5761150000000  0.4687090000000  0.5313370000000 1.0
C      1  0.4239040000000  0.5312760000000  0.5313980000000 1.0
C      1  0.4045250000000  0.4610410000000  0.5182610000000 1.0
C      1  0.5954860000000  0.5389500000000  0.5182220000000 1.0
C      1  0.4748840000000  0.4937570000000  0.4908290000000 1.0
C      1  0.5251100000000  0.5062480000000  0.4908170000000 1.0
C      1  0.4962280000000  0.4741930000000  0.5044790000000 1.0
C      1  0.5037750000000  0.5258050000000  0.5044900000000 1.0
C      1  0.5222160000000  0.5391840000000  0.5234000000000 1.0
C      1  0.4777980000000  0.4608040000000  0.5233940000000 1.0
C      1  0.4638970000000  0.4079050000000  0.4986820000000 1.0
C      1  0.5361020000000  0.5920960000000  0.4987070000000 1.0
C      1  0.4730960000000  0.4688370000000  0.5857450000000 1.0
C      1  0.5269560000000  0.5311200000000  0.5857440000000 1.0
C      1  0.4694830000000  0.4112330000000  0.4705650000000 1.0
C      1  0.5304990000000  0.5887820000000  0.4705910000000 1.0
C      1  0.4189250000000  0.4545150000000  0.5427290000000 1.0
C      1  0.5811010000000  0.5454640000000  0.5427030000000 1.0
C      1  0.5142260000000  0.5935120000000  0.5173180000000 1.0
C      1  0.4857840000000  0.4064790000000  0.5172800000000 1.0
C      1  0.5280840000000  0.4755560000000  0.5129610000000 1.0
C      1  0.4719240000000  0.5244380000000  0.5129900000000 1.0
C      1  0.5105600000000  0.3949210000000  0.5134610000000 1.0
C      1  0.4894480000000  0.6050720000000  0.5135200000000 1.0
C      1  0.5460010000000  0.5531310000000  0.4354650000000 1.0
C      1  0.4539600000000  0.4469010000000  0.4354660000000 1.0
C      1  0.5141710000000  0.5198720000000  0.5422820000000 1.0
C      1  0.4858550000000  0.4801070000000  0.5422800000000 1.0
END
