TITL C-150277-3406-4 0.0459481263187784 125000 -127.107268351607 0 0 20 (C3) n - 1
REM
REM in /rds/project/t2_vol4/rds-t2-cs072/BORA/CARBON/from-Arr/AIRSS/Generating-Clusters/GAP-ML-2020/Higher-Symm/SD-CG/HFTN-CG
REM
REM
REM
REM
REM
REM ./C.cell (b20cbc046b6831c77cfcea5457e17084)
REM AIRSS Version 0.9.1 bugfix July 2018 build 013d7b7c2542+ Fri, 06 Jul 2018 19:26:36 +0100
REM compiler GCC version 9.3.0
REM options -cpp -mtune=generic -march=x86-64 -g -O0
REM seed 1346540432 -206896051 -1856403638 -1520872242 1106149366 103130120 840545184 208339973 -1586778520 428302481 350111262 -722028262 928542785 -1558858816 -881867875 1865623251 366751914 -203943039 1585503358 1563622219 -2056479556 1912666011 -984091377 -83027874 -461772527 -1218702146 -669425547 -1686769435 -1668753438 740338799 1940070684 -836215704 609295979
REM
CELL 1.54180   50.00000   50.00000   50.00000   90.00000   90.00000   90.00000
LATT -1
SFAC C  
C      1  0.4773080000000  0.4929240000000  0.5256120000000 1.0
C      1  0.4773200000000  0.5291680000000  0.4953580000000 1.0
C      1  0.4772860000000  0.4848450000000  0.4790980000000 1.0
C      1  0.5272920000000  0.5356810000000  0.5435560000000 1.0
C      1  0.5272500000000  0.5232970000000  0.4493020000000 1.0
C      1  0.5272220000000  0.4478630000000  0.5071550000000 1.0
C      1  0.5035200000000  0.4579340000000  0.4997840000000 1.0
C      1  0.5035760000000  0.5242770000000  0.5385460000000 1.0
C      1  0.5035490000000  0.5246750000000  0.4617100000000 1.0
C      1  0.4645810000000  0.5016070000000  0.4638380000000 1.0
C      1  0.4645820000000  0.4713360000000  0.5187390000000 1.0
C      1  0.4646220000000  0.5340180000000  0.5175040000000 1.0
C      1  0.4773280000000  0.5181490000000  0.5376530000000 1.0
C      1  0.4773080000000  0.5269830000000  0.4674920000000 1.0
C      1  0.4772760000000  0.4618050000000  0.4949220000000 1.0
C      1  0.5258020000000  0.5183160000000  0.5230970000000 1.0
C      1  0.5257820000000  0.5142610000000  0.4745730000000 1.0
C      1  0.5257660000000  0.4742660000000  0.5023460000000 1.0
C      1  0.4910670000000  0.5023040000000  0.5000180000000 1.0
C      1  0.5205460000000  0.5022850000000  0.5000070000000 1.0
END
