TITL C-150262-3295-2 -17.6742853206899 125000 -1047.81730994828 0 0 149 (C1) n - 1
REM
REM in /rds/project/t2_vol4/rds-t2-cs072/BORA/CARBON/from-Arr/AIRSS/Generating-Clusters/GAP-ML-2020/Higher-Symm/SD-CG/HFTN-CG
REM
REM
REM
REM
REM
REM ./C.cell (b20cbc046b6831c77cfcea5457e17084)
REM AIRSS Version 0.9.1 bugfix July 2018 build 013d7b7c2542+ Fri, 06 Jul 2018 19:26:36 +0100
REM compiler GCC version 9.3.0
REM options -cpp -mtune=generic -march=x86-64 -g -O0
REM seed 384257731 -833519462 -819403689 1485231861 -1292181055 -54459287 411713857 373037896 882727745 473234794 788903185 1294860277 37320004 -1798194886 -1016986654 -86305947 1539207706 -1766647486 -1728675217 -144128686 2128129619 1018955301 -1925354401 57723415 1395258195 -1548733127 -37907493 1111339937 745705892 -1261946474 1219759931 -1746208210 -1450091210
REM
CELL 1.54180   50.00000   50.00000   50.00000   90.00000   90.00000   90.00000
LATT -1
SFAC C  
C      1  0.5120950000000  0.5528560000000  0.5608790000000 1.0
C      1  0.5617900000000  0.5571920000000  0.5070720000000 1.0
C      1  0.5657260000000  0.5087940000000  0.5623350000000 1.0
C      1  0.4895610000000  0.5581670000000  0.4175300000000 1.0
C      1  0.4925960000000  0.4345540000000  0.5540620000000 1.0
C      1  0.5104600000000  0.4253150000000  0.4460100000000 1.0
C      1  0.4371190000000  0.5535880000000  0.4890680000000 1.0
C      1  0.4172790000000  0.4382770000000  0.5150180000000 1.0
C      1  0.5860910000000  0.4383800000000  0.4895040000000 1.0
C      1  0.4381380000000  0.5103390000000  0.4185620000000 1.0
C      1  0.4495510000000  0.4925000000000  0.5621000000000 1.0
C      1  0.5485990000000  0.4896000000000  0.4341200000000 1.0
C      1  0.4881960000000  0.4483160000000  0.4092590000000 1.0
C      1  0.4461100000000  0.4181570000000  0.4881840000000 1.0
C      1  0.4192420000000  0.4797670000000  0.4565150000000 1.0
C      1  0.5182970000000  0.4546230000000  0.5850670000000 1.0
C      1  0.5171550000000  0.5632260000000  0.4200500000000 1.0
C      1  0.4778510000000  0.5434850000000  0.5963570000000 1.0
C      1  0.5493220000000  0.4169150000000  0.5123270000000 1.0
C      1  0.5469640000000  0.5979410000000  0.4812560000000 1.0
C      1  0.4548610000000  0.5837190000000  0.5179040000000 1.0
C      1  0.5909110000000  0.4742550000000  0.5413550000000 1.0
C      1  0.5814970000000  0.5186450000000  0.4571150000000 1.0
C      1  0.4129330000000  0.5116170000000  0.5470350000000 1.0
C      1  0.4848120000000  0.5219150000000  0.4457910000000 1.0
C      1  0.5270200000000  0.4598810000000  0.4746980000000 1.0
C      1  0.4487270000000  0.4875810000000  0.5311510000000 1.0
C      1  0.5214950000000  0.5308220000000  0.5389290000000 1.0
C      1  0.5090760000000  0.4549030000000  0.4545620000000 1.0
C      1  0.4854970000000  0.4611030000000  0.5425650000000 1.0
C      1  0.4650290000000  0.4640330000000  0.5250850000000 1.0
C      1  0.4645460000000  0.5443130000000  0.4807350000000 1.0
C      1  0.5309980000000  0.5461420000000  0.5115700000000 1.0
C      1  0.5431450000000  0.4809420000000  0.4671120000000 1.0
C      1  0.5446690000000  0.5111700000000  0.5387600000000 1.0
C      1  0.4655850000000  0.5211870000000  0.4655760000000 1.0
C      1  0.4821400000000  0.4137820000000  0.5317250000000 1.0
C      1  0.4165230000000  0.5331590000000  0.4782430000000 1.0
C      1  0.5245610000000  0.4912370000000  0.4127480000000 1.0
C      1  0.5098950000000  0.4105040000000  0.4729990000000 1.0
C      1  0.5236160000000  0.5927480000000  0.5276380000000 1.0
C      1  0.4798590000000  0.5924080000000  0.4751600000000 1.0
C      1  0.5912750000000  0.5245460000000  0.5253470000000 1.0
C      1  0.5936180000000  0.4647380000000  0.4793900000000 1.0
C      1  0.4075800000000  0.4602340000000  0.5315470000000 1.0
C      1  0.4738420000000  0.4822630000000  0.5843780000000 1.0
C      1  0.4646420000000  0.5106280000000  0.4050560000000 1.0
C      1  0.5253500000000  0.5230240000000  0.5968300000000 1.0
C      1  0.4407920000000  0.4614910000000  0.4201110000000 1.0
C      1  0.4611710000000  0.4228230000000  0.4407440000000 1.0
C      1  0.4394550000000  0.4414980000000  0.4401810000000 1.0
C      1  0.5643250000000  0.4634170000000  0.5780290000000 1.0
C      1  0.5564010000000  0.5393210000000  0.4249510000000 1.0
C      1  0.4411230000000  0.5491010000000  0.5576710000000 1.0
C      1  0.5420900000000  0.4227230000000  0.5590100000000 1.0
C      1  0.5594810000000  0.5641210000000  0.4389470000000 1.0
C      1  0.4640240000000  0.5664280000000  0.5604330000000 1.0
C      1  0.5639070000000  0.4411590000000  0.5601470000000 1.0
C      1  0.5756060000000  0.5650860000000  0.4620230000000 1.0
C      1  0.4234100000000  0.5544320000000  0.5362680000000 1.0
C      1  0.4153230000000  0.4879800000000  0.5281000000000 1.0
C      1  0.4869570000000  0.5277850000000  0.4144980000000 1.0
C      1  0.5216380000000  0.4216150000000  0.4991190000000 1.0
C      1  0.5743500000000  0.5091840000000  0.4841820000000 1.0
C      1  0.5968950000000  0.4948450000000  0.5218910000000 1.0
C      1  0.4232870000000  0.5002450000000  0.4778020000000 1.0
C      1  0.4973680000000  0.5234160000000  0.6046240000000 1.0
C      1  0.5030670000000  0.4743440000000  0.4041570000000 1.0
C      1  0.5035590000000  0.4795340000000  0.5764530000000 1.0
C      1  0.4721960000000  0.4225790000000  0.5036500000000 1.0
C      1  0.4798190000000  0.5790690000000  0.5022870000000 1.0
C      1  0.5252130000000  0.6022020000000  0.5001310000000 1.0
C      1  0.5347270000000  0.5787430000000  0.4370850000000 1.0
C      1  0.5736880000000  0.4319170000000  0.5137210000000 1.0
C      1  0.4388040000000  0.5209560000000  0.5680250000000 1.0
C      1  0.4864500000000  0.5573780000000  0.5741760000000 1.0
C      1  0.4867590000000  0.4269160000000  0.4278060000000 1.0
C      1  0.5178590000000  0.4324470000000  0.5693410000000 1.0
C      1  0.4239220000000  0.4351700000000  0.4871950000000 1.0
C      1  0.4330010000000  0.5680520000000  0.5141200000000 1.0
C      1  0.5650420000000  0.5776330000000  0.4850050000000 1.0
C      1  0.5649800000000  0.5148740000000  0.4349570000000 1.0
C      1  0.5794500000000  0.4842720000000  0.5653580000000 1.0
C      1  0.4287990000000  0.4854440000000  0.4295020000000 1.0
C      1  0.4898370000000  0.4764820000000  0.4583900000000 1.0
C      1  0.4797290000000  0.4543480000000  0.5017340000000 1.0
C      1  0.4543000000000  0.4996040000000  0.4845850000000 1.0
C      1  0.5029110000000  0.4837750000000  0.5453320000000 1.0
C      1  0.5021410000000  0.5039300000000  0.4569810000000 1.0
C      1  0.4965930000000  0.5136540000000  0.5405990000000 1.0
C      1  0.5133920000000  0.4532500000000  0.5011250000000 1.0
C      1  0.5138880000000  0.5419560000000  0.4892450000000 1.0
C      1  0.4860940000000  0.5466110000000  0.4992620000000 1.0
C      1  0.5422820000000  0.4924890000000  0.5166460000000 1.0
C      1  0.5450720000000  0.5011720000000  0.4877580000000 1.0
C      1  0.4563000000000  0.5087200000000  0.5129400000000 1.0
C      1  0.5442110000000  0.5444220000000  0.5843020000000 1.0
C      1  0.5446900000000  0.5800360000000  0.5460780000000 1.0
C      1  0.5799090000000  0.5430700000000  0.5473940000000 1.0
C      1  0.4449440000000  0.5579060000000  0.4180680000000 1.0
C      1  0.4579130000000  0.4559860000000  0.5842020000000 1.0
C      1  0.5497460000000  0.4439160000000  0.4215220000000 1.0
C      1  0.4607330000000  0.5840850000000  0.4543040000000 1.0
C      1  0.4558300000000  0.4175780000000  0.5499590000000 1.0
C      1  0.5568270000000  0.4141230000000  0.4553990000000 1.0
C      1  0.4206300000000  0.5490600000000  0.4524400000000 1.0
C      1  0.4198940000000  0.4498990000000  0.5554440000000 1.0
C      1  0.5840750000000  0.4558630000000  0.4522260000000 1.0
C      1  0.5346990000000  0.5671460000000  0.5694030000000 1.0
C      1  0.5664920000000  0.5651460000000  0.5352410000000 1.0
C      1  0.5679710000000  0.5346630000000  0.5723750000000 1.0
C      1  0.4663090000000  0.5719990000000  0.4278940000000 1.0
C      1  0.4674600000000  0.4325400000000  0.5715180000000 1.0
C      1  0.5388170000000  0.4230820000000  0.4362560000000 1.0
C      1  0.4366200000000  0.5704090000000  0.4637300000000 1.0
C      1  0.4310350000000  0.4270150000000  0.5401720000000 1.0
C      1  0.5774660000000  0.4293850000000  0.4634610000000 1.0
C      1  0.4299520000000  0.5371320000000  0.4274840000000 1.0
C      1  0.4348310000000  0.4667520000000  0.5716460000000 1.0
C      1  0.5651970000000  0.4641530000000  0.4312200000000 1.0
C      1  0.4953720000000  0.5911080000000  0.5266910000000 1.0
C      1  0.5822600000000  0.5357270000000  0.4999140000000 1.0
C      1  0.5257790000000  0.4951360000000  0.5932340000000 1.0
C      1  0.5064270000000  0.6018770000000  0.4760150000000 1.0
C      1  0.5094190000000  0.4061820000000  0.5233730000000 1.0
C      1  0.4841080000000  0.4060520000000  0.4810040000000 1.0
C      1  0.4006520000000  0.5263380000000  0.5030400000000 1.0
C      1  0.4066170000000  0.4992450000000  0.5024300000000 1.0
C      1  0.5937110000000  0.4889440000000  0.4940030000000 1.0
C      1  0.4767500000000  0.4862080000000  0.3979580000000 1.0
C      1  0.4744750000000  0.5048330000000  0.6019650000000 1.0
C      1  0.5154140000000  0.5180510000000  0.4075710000000 1.0
C      1  0.4241770000000  0.4514420000000  0.4624070000000 1.0
C      1  0.4631830000000  0.4615430000000  0.4034640000000 1.0
C      1  0.4608220000000  0.4095500000000  0.4653360000000 1.0
C      1  0.5795010000000  0.4473490000000  0.5374100000000 1.0
C      1  0.5894750000000  0.5422290000000  0.4699810000000 1.0
C      1  0.4058270000000  0.5332980000000  0.5307810000000 1.0
C      1  0.5410490000000  0.4701460000000  0.5928880000000 1.0
C      1  0.5315550000000  0.5398990000000  0.4118460000000 1.0
C      1  0.4557890000000  0.5249800000000  0.5927430000000 1.0
C      1  0.5357680000000  0.4085900000000  0.5356250000000 1.0
C      1  0.5291010000000  0.5965060000000  0.4583040000000 1.0
C      1  0.4703330000000  0.5865300000000  0.5413840000000 1.0
C      1  0.4820710000000  0.5196950000000  0.5167630000000 1.0
C      1  0.5171220000000  0.5137170000000  0.4808420000000 1.0
C      1  0.5173870000000  0.4781580000000  0.5187200000000 1.0
C      1  0.4766070000000  0.4781270000000  0.4840470000000 1.0
C      1  0.4983220000000  0.4974870000000  0.5008920000000 1.0
END
