TITL C-15921-844-2 4.89664379468991 125000 -759.816673413098 0 0 108 (C1) n - 1
REM
REM in /rds/project/t2_vol4/rds-t2-cs072/BORA/CARBON/from-Arr/AIRSS/Generating-Clusters/GAP-ML-2020/Higher-Symm/SD-CG/HFTN-CG
REM
REM
REM
REM
REM
REM ./C.cell (b20cbc046b6831c77cfcea5457e17084)
REM AIRSS Version 0.9.1 bugfix July 2018 build 013d7b7c2542+ Fri, 06 Jul 2018 19:26:36 +0100
REM compiler GCC version 9.3.0
REM options -cpp -mtune=generic -march=x86-64 -g -O0
REM seed 2113972699 2064572879 591096652 -223474480 274599503 -771043346 -1046802364 -1068451647 1970966188 -109710446 -1715556974 -1172454623 1173377022 -731212294 2130301135 1059098711 -47152409 514638392 -1414733096 1965024829 -1993251922 -1713317610 -1904717119 -522695815 855682635 -1430817344 -1298030082 -650653395 603480076 -319001524 -1894812270 -1429906366 1942663941
REM
CELL 1.54180   50.00000   50.00000   50.00000   90.00000   90.00000   90.00000
LATT -1
SFAC C  
C      1  0.4386730000000  0.5083060000000  0.4979030000000 1.0
C      1  0.4496840000000  0.5062620000000  0.5404460000000 1.0
C      1  0.4874420000000  0.5022010000000  0.5646660000000 1.0
C      1  0.5349790000000  0.4969890000000  0.5366860000000 1.0
C      1  0.5609340000000  0.4924310000000  0.5206670000000 1.0
C      1  0.5491320000000  0.4981920000000  0.4931540000000 1.0
C      1  0.5379380000000  0.5011510000000  0.4443890000000 1.0
C      1  0.4950670000000  0.4906280000000  0.4381680000000 1.0
C      1  0.4458920000000  0.5117750000000  0.4501120000000 1.0
C      1  0.5362380000000  0.5625740000000  0.5557040000000 1.0
C      1  0.5641410000000  0.5631070000000  0.5193110000000 1.0
C      1  0.5637390000000  0.5597960000000  0.4734490000000 1.0
C      1  0.5297250000000  0.5493950000000  0.4440860000000 1.0
C      1  0.4871380000000  0.5621900000000  0.4323110000000 1.0
C      1  0.4490290000000  0.5619630000000  0.4581150000000 1.0
C      1  0.4336920000000  0.5592050000000  0.5007820000000 1.0
C      1  0.4488680000000  0.5572380000000  0.5440200000000 1.0
C      1  0.4917560000000  0.5498640000000  0.5601740000000 1.0
C      1  0.4746160000000  0.5136910000000  0.4731290000000 1.0
C      1  0.4651900000000  0.5243540000000  0.4984040000000 1.0
C      1  0.4729880000000  0.5167810000000  0.5246060000000 1.0
C      1  0.4938340000000  0.5232230000000  0.5439800000000 1.0
C      1  0.5177550000000  0.5190400000000  0.5286090000000 1.0
C      1  0.5120470000000  0.5281570000000  0.5036610000000 1.0
C      1  0.5306980000000  0.5203910000000  0.4865060000000 1.0
C      1  0.5222440000000  0.5222820000000  0.4590820000000 1.0
C      1  0.4948910000000  0.5164590000000  0.4543350000000 1.0
C      1  0.5853460000000  0.5234860000000  0.4990080000000 1.0
C      1  0.5641340000000  0.5152270000000  0.4508220000000 1.0
C      1  0.5018440000000  0.5208020000000  0.4095510000000 1.0
C      1  0.4555840000000  0.5254760000000  0.4260270000000 1.0
C      1  0.4261430000000  0.5200810000000  0.4722990000000 1.0
C      1  0.4261050000000  0.5159700000000  0.5243620000000 1.0
C      1  0.4582350000000  0.5130570000000  0.5684490000000 1.0
C      1  0.5288000000000  0.5213530000000  0.5803160000000 1.0
C      1  0.5694130000000  0.5256720000000  0.5497790000000 1.0
C      1  0.4684240000000  0.5737510000000  0.5279490000000 1.0
C      1  0.4940400000000  0.5726070000000  0.5403150000000 1.0
C      1  0.5219750000000  0.5771550000000  0.5344640000000 1.0
C      1  0.5406450000000  0.5782170000000  0.5113800000000 1.0
C      1  0.5405260000000  0.5762440000000  0.4819590000000 1.0
C      1  0.5209490000000  0.5723730000000  0.4615950000000 1.0
C      1  0.4928920000000  0.5755340000000  0.4578880000000 1.0
C      1  0.4686920000000  0.5762650000000  0.4739590000000 1.0
C      1  0.4585390000000  0.5754490000000  0.5010960000000 1.0
C      1  0.5424000000000  0.4238580000000  0.4897060000000 1.0
C      1  0.5259920000000  0.4265920000000  0.4661450000000 1.0
C      1  0.4990000000000  0.4244310000000  0.4574040000000 1.0
C      1  0.4724960000000  0.4266390000000  0.4700590000000 1.0
C      1  0.4609590000000  0.4305850000000  0.4962440000000 1.0
C      1  0.4654930000000  0.4272520000000  0.5245550000000 1.0
C      1  0.4888890000000  0.4280810000000  0.5409650000000 1.0
C      1  0.5169670000000  0.4232800000000  0.5397730000000 1.0
C      1  0.5347590000000  0.4329690000000  0.5175740000000 1.0
C      1  0.4566000000000  0.4423140000000  0.4509700000000 1.0
C      1  0.4417550000000  0.4533820000000  0.4948990000000 1.0
C      1  0.4439050000000  0.4410570000000  0.5395960000000 1.0
C      1  0.4838420000000  0.4505200000000  0.5602980000000 1.0
C      1  0.5278490000000  0.4356340000000  0.5641400000000 1.0
C      1  0.5583550000000  0.4465810000000  0.5339140000000 1.0
C      1  0.5681040000000  0.4350740000000  0.4815800000000 1.0
C      1  0.5382510000000  0.4487990000000  0.4486570000000 1.0
C      1  0.4973780000000  0.4384160000000  0.4313240000000 1.0
C      1  0.5794700000000  0.5143320000000  0.5256740000000 1.0
C      1  0.5746320000000  0.5028820000000  0.4751270000000 1.0
C      1  0.5198460000000  0.4972070000000  0.4197810000000 1.0
C      1  0.4741270000000  0.5098510000000  0.4107710000000 1.0
C      1  0.4182950000000  0.4992090000000  0.4523070000000 1.0
C      1  0.4021050000000  0.4987360000000  0.5270760000000 1.0
C      1  0.4446380000000  0.4962200000000  0.5882860000000 1.0
C      1  0.5091750000000  0.5011680000000  0.5850680000000 1.0
C      1  0.5497820000000  0.5074050000000  0.5651490000000 1.0
C      1  0.4296890000000  0.5458410000000  0.5256100000000 1.0
C      1  0.4622190000000  0.5434120000000  0.5651300000000 1.0
C      1  0.5193600000000  0.5470720000000  0.5723580000000 1.0
C      1  0.5610440000000  0.5520390000000  0.5457520000000 1.0
C      1  0.5769900000000  0.5498430000000  0.4968290000000 1.0
C      1  0.5585080000000  0.5433660000000  0.4510450000000 1.0
C      1  0.5084970000000  0.5460340000000  0.4219170000000 1.0
C      1  0.4606450000000  0.5524590000000  0.4334580000000 1.0
C      1  0.4293580000000  0.5488050000000  0.4744930000000 1.0
C      1  0.5218760000000  0.4756340000000  0.5859920000000 1.0
C      1  0.5476680000000  0.4778490000000  0.5740620000000 1.0
C      1  0.5726310000000  0.4652280000000  0.5190190000000 1.0
C      1  0.5810210000000  0.4740990000000  0.4707500000000 1.0
C      1  0.5237340000000  0.4720660000000  0.4072200000000 1.0
C      1  0.4743320000000  0.4813250000000  0.4206860000000 1.0
C      1  0.4163700000000  0.4726730000000  0.4537770000000 1.0
C      1  0.4058830000000  0.4730590000000  0.5263600000000 1.0
C      1  0.4445340000000  0.4705150000000  0.5835110000000 1.0
C      1  0.5229360000000  0.4496770000000  0.4227590000000 1.0
C      1  0.4722020000000  0.4525280000000  0.4278940000000 1.0
C      1  0.4336380000000  0.4542010000000  0.4647530000000 1.0
C      1  0.4251840000000  0.4533840000000  0.5210340000000 1.0
C      1  0.4540250000000  0.4513770000000  0.5652860000000 1.0
C      1  0.5087670000000  0.4513180000000  0.5777870000000 1.0
C      1  0.5511650000000  0.4521560000000  0.5602010000000 1.0
C      1  0.5820240000000  0.4564760000000  0.4944010000000 1.0
C      1  0.5667850000000  0.4523780000000  0.4576700000000 1.0
C      1  0.4792380000000  0.4863830000000  0.4811760000000 1.0
C      1  0.4569170000000  0.4804160000000  0.4999050000000 1.0
C      1  0.4671540000000  0.4875460000000  0.5266090000000 1.0
C      1  0.4880180000000  0.4778620000000  0.5449160000000 1.0
C      1  0.5140820000000  0.4776380000000  0.5312520000000 1.0
C      1  0.5192570000000  0.4614890000000  0.5087950000000 1.0
C      1  0.5331130000000  0.4753090000000  0.4884420000000 1.0
C      1  0.5273040000000  0.4749220000000  0.4613480000000 1.0
C      1  0.4981540000000  0.4747860000000  0.4630850000000 1.0
END
