TITL C-150252-3405-9 48.4340804801167 125000 -1114.56262115887 0 0 161 (S4) n - 1
REM
REM in /rds/project/t2_vol4/rds-t2-cs072/BORA/CARBON/from-Arr/AIRSS/Generating-Clusters/GAP-ML-2020/Higher-Symm/SD-CG/HFTN-CG
REM
REM
REM
REM
REM
REM ./C.cell (b20cbc046b6831c77cfcea5457e17084)
REM AIRSS Version 0.9.1 bugfix July 2018 build 013d7b7c2542+ Fri, 06 Jul 2018 19:26:36 +0100
REM compiler GCC version 9.3.0
REM options -cpp -mtune=generic -march=x86-64 -g -O0
REM seed -709346464 1621747591 -2121324823 1809254134 -1431323321 -1994722700 1700653486 2084707922 -1402684261 1026626010 19283462 792039299 51217296 944409993 -1564871632 1354164473 -469435688 525229594 -1405687428 767752621 539577789 -1940127458 864936213 1574016695 -1847786909 985532262 159851020 -108370025 -273493302 2044786740 1310935357 137987149 -1042595273
REM
CELL 1.54180   50.00000   50.00000   50.00000   90.00000   90.00000   90.00000
LATT -1
SFAC C  
C      1  0.4473740000000  0.4244850000000  0.4894650000000 1.0
C      1  0.5102540000000  0.5753260000000  0.4472020000000 1.0
C      1  0.5526770000000  0.4246760000000  0.5104330000000 1.0
C      1  0.4892860000000  0.5753570000000  0.5525060000000 1.0
C      1  0.5475810000000  0.4904660000000  0.5848600000000 1.0
C      1  0.4149300000000  0.5094760000000  0.5475630000000 1.0
C      1  0.4522470000000  0.4901980000000  0.4149560000000 1.0
C      1  0.5848330000000  0.5097030000000  0.4522280000000 1.0
C      1  0.5165860000000  0.5456840000000  0.4083200000000 1.0
C      1  0.5915280000000  0.4543740000000  0.5166960000000 1.0
C      1  0.4830550000000  0.5457430000000  0.5914260000000 1.0
C      1  0.4084220000000  0.4540440000000  0.4831650000000 1.0
C      1  0.5087710000000  0.5479330000000  0.5426190000000 1.0
C      1  0.4572310000000  0.4519650000000  0.5088870000000 1.0
C      1  0.4908620000000  0.5478490000000  0.4571230000000 1.0
C      1  0.5427270000000  0.4520980000000  0.4909770000000 1.0
C      1  0.4343510000000  0.4840370000000  0.5911970000000 1.0
C      1  0.4085860000000  0.5156370000000  0.4343180000000 1.0
C      1  0.5654980000000  0.4841430000000  0.4086270000000 1.0
C      1  0.5911560000000  0.5160280000000  0.5654650000000 1.0
C      1  0.5616020000000  0.5236200000000  0.4070590000000 1.0
C      1  0.5927650000000  0.4765440000000  0.5616610000000 1.0
C      1  0.4381130000000  0.5235280000000  0.5927150000000 1.0
C      1  0.4071100000000  0.4761520000000  0.4381720000000 1.0
C      1  0.5766150000000  0.5056390000000  0.4251420000000 1.0
C      1  0.5746630000000  0.4945400000000  0.5766320000000 1.0
C      1  0.4231610000000  0.5054740000000  0.5746540000000 1.0
C      1  0.4251520000000  0.4941910000000  0.4231780000000 1.0
C      1  0.4941250000000  0.4859570000000  0.4490920000000 1.0
C      1  0.5506920000000  0.5140060000000  0.4940970000000 1.0
C      1  0.5057170000000  0.4860410000000  0.5507290000000 1.0
C      1  0.4490560000000  0.5138410000000  0.5056890000000 1.0
C      1  0.5125130000000  0.4823620000000  0.4742890000000 1.0
C      1  0.5254920000000  0.5176170000000  0.5124760000000 1.0
C      1  0.4873420000000  0.4823520000000  0.5255370000000 1.0
C      1  0.4742440000000  0.5175140000000  0.4873050000000 1.0
C      1  0.4922980000000  0.4068310000000  0.4510520000000 1.0
C      1  0.5486490000000  0.5931250000000  0.4920860000000 1.0
C      1  0.5078120000000  0.4069190000000  0.5488690000000 1.0
C      1  0.4508320000000  0.5929690000000  0.5076000000000 1.0
C      1  0.4542850000000  0.5447930000000  0.5858150000000 1.0
C      1  0.4140320000000  0.4549330000000  0.4543930000000 1.0
C      1  0.5453590000000  0.5448380000000  0.4139320000000 1.0
C      1  0.5859150000000  0.4552810000000  0.5454670000000 1.0
C      1  0.4442430000000  0.5500230000000  0.4427450000000 1.0
C      1  0.5571070000000  0.4498310000000  0.4443630000000 1.0
C      1  0.5553830000000  0.5502830000000  0.5569950000000 1.0
C      1  0.4428580000000  0.4497080000000  0.5555040000000 1.0
C      1  0.5181900000000  0.3977580000000  0.4802910000000 1.0
C      1  0.5194000000000  0.6022270000000  0.5179570000000 1.0
C      1  0.4819500000000  0.3977220000000  0.5196410000000 1.0
C      1  0.4800500000000  0.6021380000000  0.4817170000000 1.0
C      1  0.4380900000000  0.4458430000000  0.4417450000000 1.0
C      1  0.5579980000000  0.5539970000000  0.4379680000000 1.0
C      1  0.5618880000000  0.4461260000000  0.5581270000000 1.0
C      1  0.4416150000000  0.5538780000000  0.5617670000000 1.0
C      1  0.5429650000000  0.4627760000000  0.5754190000000 1.0
C      1  0.4243410000000  0.5371660000000  0.5428820000000 1.0
C      1  0.4569570000000  0.4625350000000  0.4244310000000 1.0
C      1  0.5753290000000  0.5373670000000  0.4568740000000 1.0
C      1  0.5523730000000  0.5618580000000  0.5278490000000 1.0
C      1  0.4720160000000  0.4381570000000  0.5525200000000 1.0
C      1  0.4472140000000  0.5616450000000  0.4718760000000 1.0
C      1  0.5279890000000  0.4381850000000  0.4473610000000 1.0
C      1  0.4684330000000  0.5293070000000  0.4403460000000 1.0
C      1  0.5594840000000  0.4706060000000  0.4685050000000 1.0
C      1  0.5312630000000  0.5294880000000  0.5594200000000 1.0
C      1  0.4404100000000  0.4704440000000  0.5313360000000 1.0
C      1  0.6167270000000  0.5276770000000  0.5205550000000 1.0
C      1  0.4792730000000  0.4724950000000  0.6167950000000 1.0
C      1  0.3829760000000  0.5272560000000  0.4792130000000 1.0
C      1  0.5206150000000  0.4724170000000  0.3830430000000 1.0
C      1  0.5137150000000  0.5350180000000  0.4682110000000 1.0
C      1  0.5316260000000  0.4649690000000  0.5138010000000 1.0
C      1  0.4859620000000  0.5350120000000  0.5315480000000 1.0
C      1  0.4682880000000  0.4648450000000  0.4860470000000 1.0
C      1  0.4329680000000  0.4966020000000  0.4885170000000 1.0
C      1  0.5112790000000  0.5031770000000  0.4329640000000 1.0
C      1  0.5668390000000  0.4968430000000  0.5112900000000 1.0
C      1  0.4885060000000  0.5032230000000  0.5668350000000 1.0
C      1  0.4072850000000  0.4828320000000  0.4974760000000 1.0
C      1  0.5023060000000  0.5168780000000  0.4072500000000 1.0
C      1  0.5925680000000  0.4831480000000  0.5023490000000 1.0
C      1  0.4974320000000  0.5169870000000  0.5925320000000 1.0
C      1  0.5208500000000  0.4994660000000  0.3883900000000 1.0
C      1  0.6114090000000  0.5006230000000  0.5208530000000 1.0
C      1  0.4789470000000  0.4995360000000  0.6114140000000 1.0
C      1  0.3883850000000  0.5002200000000  0.4789500000000 1.0
C      1  0.4335200000000  0.5437870000000  0.5152430000000 1.0
C      1  0.4846030000000  0.4559650000000  0.4336260000000 1.0
C      1  0.5661270000000  0.5439920000000  0.4845050000000 1.0
C      1  0.5153410000000  0.4561010000000  0.5662330000000 1.0
C      1  0.4887700000000  0.3947490000000  0.4769300000000 1.0
C      1  0.5227580000000  0.6051710000000  0.4885300000000 1.0
C      1  0.5113810000000  0.3948160000000  0.5230060000000 1.0
C      1  0.4766820000000  0.6051080000000  0.5111400000000 1.0
C      1  0.4751640000000  0.5718830000000  0.4097970000000 1.0
C      1  0.5900780000000  0.4280770000000  0.4753350000000 1.0
C      1  0.5243880000000  0.5720800000000  0.5899150000000 1.0
C      1  0.4099610000000  0.4278040000000  0.5245590000000 1.0
C      1  0.4518890000000  0.5678890000000  0.4189730000000 1.0
C      1  0.5808980000000  0.4320080000000  0.4520510000000 1.0
C      1  0.5476760000000  0.5681530000000  0.5807440000000 1.0
C      1  0.4191270000000  0.4317950000000  0.5478380000000 1.0
C      1  0.4506580000000  0.5022940000000  0.6071760000000 1.0
C      1  0.3926260000000  0.4974000000000  0.4506670000000 1.0
C      1  0.5491300000000  0.5023250000000  0.3926250000000 1.0
C      1  0.6071770000000  0.4978250000000  0.5491390000000 1.0
C      1  0.4510680000000  0.4287200000000  0.4594150000000 1.0
C      1  0.5403090000000  0.5711310000000  0.4509060000000 1.0
C      1  0.5489680000000  0.4289370000000  0.5404780000000 1.0
C      1  0.4592460000000  0.5710560000000  0.5488070000000 1.0
C      1  0.4705470000000  0.5045190000000  0.4599390000000 1.0
C      1  0.5398660000000  0.4953770000000  0.4705620000000 1.0
C      1  0.5292320000000  0.5046690000000  0.5398590000000 1.0
C      1  0.4599450000000  0.4952790000000  0.5292470000000 1.0
C      1  0.4775010000000  0.5541890000000  0.5097660000000 1.0
C      1  0.4900910000000  0.4456710000000  0.4776310000000 1.0
C      1  0.5221110000000  0.5542520000000  0.4899690000000 1.0
C      1  0.5098880000000  0.4457330000000  0.5222410000000 1.0
C      1  0.5539580000000  0.4602870000000  0.4165670000000 1.0
C      1  0.5831900000000  0.5398480000000  0.5538700000000 1.0
C      1  0.4459710000000  0.4602100000000  0.5832860000000 1.0
C      1  0.4164720000000  0.5394980000000  0.4458830000000 1.0
C      1  0.4789090000000  0.4322260000000  0.4528520000000 1.0
C      1  0.5468760000000  0.5676970000000  0.4787560000000 1.0
C      1  0.5211150000000  0.4323570000000  0.5470370000000 1.0
C      1  0.4526910000000  0.5675640000000  0.5209620000000 1.0
C      1  0.4821700000000  0.4526810000000  0.5262360000000 1.0
C      1  0.4735130000000  0.5471720000000  0.4820640000000 1.0
C      1  0.5177860000000  0.4527080000000  0.4736270000000 1.0
C      1  0.5261230000000  0.5472830000000  0.5176800000000 1.0
C      1  0.4235810000000  0.5544000000000  0.4884590000000 1.0
C      1  0.5113980000000  0.4453570000000  0.4237120000000 1.0
C      1  0.5760300000000  0.5546720000000  0.5112750000000 1.0
C      1  0.4885820000000  0.4454150000000  0.5761600000000 1.0
C      1  0.4976220000000  0.5685970000000  0.5818400000000 1.0
C      1  0.4180320000000  0.4312340000000  0.4977850000000 1.0
C      1  0.5019420000000  0.5685000000000  0.4178760000000 1.0
C      1  0.5819950000000  0.4315130000000  0.5021050000000 1.0
C      1  0.4713450000000  0.5151940000000  0.5474890000000 1.0
C      1  0.4523260000000  0.4846110000000  0.4713850000000 1.0
C      1  0.5283980000000  0.5152310000000  0.4522950000000 1.0
C      1  0.5475210000000  0.4848080000000  0.5284380000000 1.0
C      1  0.4683050000000  0.4022720000000  0.4953110000000 1.0
C      1  0.5043850000000  0.5975810000000  0.4680830000000 1.0
C      1  0.5318200000000  0.4023860000000  0.5046160000000 1.0
C      1  0.4950800000000  0.5976050000000  0.5315970000000 1.0
C      1  0.4723830000000  0.5140280000000  0.4147400000000 1.0
C      1  0.5850750000000  0.4859210000000  0.4724200000000 1.0
C      1  0.5273650000000  0.5142280000000  0.5850460000000 1.0
C      1  0.4147690000000  0.4856680000000  0.5274020000000 1.0
C      1  0.5203980000000  0.4094200000000  0.4536860000000 1.0
C      1  0.5460170000000  0.5905990000000  0.5201920000000 1.0
C      1  0.4797030000000  0.4094090000000  0.5462320000000 1.0
C      1  0.4534720000000  0.5904170000000  0.4794970000000 1.0
C      1  0.5280090000000  0.4555730000000  0.4036100000000 1.0
C      1  0.5961420000000  0.5445160000000  0.5279100000000 1.0
C      1  0.4719360000000  0.4556000000000  0.5962490000000 1.0
C      1  0.4035040000000  0.5441550000000  0.4718370000000 1.0
C      1  0.4998980000000  0.4999610000000  0.4999020000000 1.0
END
