TITL C-15921-844-7 -1088.87741719418 125000 -874.687425529977 0 0 126 (C2v) n - 1
REM
REM in /rds/project/t2_vol4/rds-t2-cs072/BORA/CARBON/from-Arr/AIRSS/Generating-Clusters/GAP-ML-2020/Higher-Symm/SD-CG/HFTN-CG
REM
REM
REM
REM
REM
REM ./C.cell (b20cbc046b6831c77cfcea5457e17084)
REM AIRSS Version 0.9.1 bugfix July 2018 build 013d7b7c2542+ Fri, 06 Jul 2018 19:26:36 +0100
REM compiler GCC version 9.3.0
REM options -cpp -mtune=generic -march=x86-64 -g -O0
REM seed -894585321 -470319644 60331056 480154890 -438738132 190495062 276401717 -134238356 -861201827 206944112 -2097271387 2068709543 583947419 -131842190 387351336 -11224453 -1750682119 -11954983 1419369052 -416869052 1478822940 1515137019 -868416132 1839132049 -326569167 -324847913 262248854 605801191 -1478864864 270208965 -917935010 -710242275 996286760
REM
CELL 1.54180   50.00000   50.00000   50.00000   90.00000   90.00000   90.00000
LATT -1
SFAC C  
C      1  0.4437960000000  0.5533510000000  0.5594080000000 1.0
C      1  0.5562030000000  0.5533670000000  0.4406060000000 1.0
C      1  0.4437960000000  0.5533660000000  0.4406060000000 1.0
C      1  0.5562030000000  0.5533510000000  0.5594080000000 1.0
C      1  0.4716890000000  0.4713040000000  0.4257650000000 1.0
C      1  0.5283120000000  0.4712850000000  0.5742280000000 1.0
C      1  0.4716890000000  0.4712840000000  0.5742280000000 1.0
C      1  0.5283120000000  0.4713050000000  0.4257640000000 1.0
C      1  0.4843210000000  0.5323970000000  0.5770330000000 1.0
C      1  0.5156790000000  0.5324180000000  0.4229760000000 1.0
C      1  0.4843210000000  0.5324170000000  0.4229760000000 1.0
C      1  0.5156790000000  0.5323970000000  0.5770330000000 1.0
C      1  0.4855250000000  0.4817320000000  0.5500320000000 1.0
C      1  0.5144750000000  0.4817450000000  0.4499630000000 1.0
C      1  0.4855250000000  0.4817450000000  0.4499630000000 1.0
C      1  0.5144750000000  0.4817320000000  0.5500320000000 1.0
C      1  0.5750000000000  0.4421930000000  0.4855450000000 1.0
C      1  0.4250000000000  0.4421880000000  0.5144390000000 1.0
C      1  0.5750000000000  0.4421890000000  0.5144390000000 1.0
C      1  0.4250010000000  0.4421920000000  0.4855450000000 1.0
C      1  0.4844470000000  0.5128520000000  0.4503680000000 1.0
C      1  0.5155520000000  0.5128390000000  0.5496350000000 1.0
C      1  0.4844470000000  0.5128390000000  0.5496350000000 1.0
C      1  0.5155530000000  0.5128520000000  0.4503680000000 1.0
C      1  0.5452000000000  0.5068420000000  0.4861460000000 1.0
C      1  0.4547990000000  0.5068380000000  0.5138550000000 1.0
C      1  0.5452000000000  0.5068380000000  0.5138550000000 1.0
C      1  0.4547990000000  0.5068410000000  0.4861470000000 1.0
C      1  0.5143830000000  0.4243140000000  0.5576880000000 1.0
C      1  0.4856180000000  0.4243300000000  0.4422920000000 1.0
C      1  0.5143830000000  0.4243300000000  0.4422920000000 1.0
C      1  0.4856180000000  0.4243140000000  0.5576880000000 1.0
C      1  0.4427730000000  0.4758710000000  0.5594210000000 1.0
C      1  0.5572280000000  0.4758880000000  0.4405720000000 1.0
C      1  0.4427730000000  0.4758870000000  0.4405730000000 1.0
C      1  0.5572280000000  0.4758720000000  0.5594210000000 1.0
C      1  0.5249220000000  0.4715920000000  0.5249080000000 1.0
C      1  0.4750790000000  0.4715980000000  0.4750840000000 1.0
C      1  0.5249220000000  0.4715980000000  0.4750840000000 1.0
C      1  0.4750790000000  0.4715910000000  0.5249080000000 1.0
C      1  0.5718570000000  0.4995480000000  0.5687690000000 1.0
C      1  0.4281440000000  0.4995650000000  0.4312310000000 1.0
C      1  0.5718560000000  0.4995670000000  0.4312310000000 1.0
C      1  0.4281440000000  0.4995470000000  0.5687690000000 1.0
C      1  0.4428780000000  0.5130800000000  0.5881700000000 1.0
C      1  0.5571220000000  0.5131040000000  0.4118330000000 1.0
C      1  0.4428780000000  0.5131030000000  0.4118340000000 1.0
C      1  0.5571220000000  0.5130810000000  0.5881700000000 1.0
C      1  0.4856900000000  0.4889150000000  0.5950430000000 1.0
C      1  0.5143100000000  0.4889400000000  0.4049540000000 1.0
C      1  0.4856900000000  0.4889400000000  0.4049540000000 1.0
C      1  0.5143100000000  0.4889150000000  0.5950430000000 1.0
C      1  0.4704330000000  0.5568730000000  0.5683150000000 1.0
C      1  0.5295660000000  0.5568910000000  0.4317000000000 1.0
C      1  0.4704330000000  0.5568910000000  0.4317000000000 1.0
C      1  0.5295660000000  0.5568730000000  0.5683150000000 1.0
C      1  0.4416470000000  0.4451480000000  0.5599160000000 1.0
C      1  0.5583540000000  0.4451650000000  0.4400700000000 1.0
C      1  0.4416470000000  0.4451640000000  0.4400700000000 1.0
C      1  0.5583540000000  0.4451490000000  0.5599150000000 1.0
C      1  0.4694910000000  0.5134820000000  0.5944930000000 1.0
C      1  0.5305090000000  0.5135080000000  0.4055100000000 1.0
C      1  0.4694910000000  0.5135070000000  0.4055100000000 1.0
C      1  0.5305090000000  0.5134820000000  0.5944930000000 1.0
C      1  0.5679290000000  0.5637820000000  0.5344500000000 1.0
C      1  0.4320700000000  0.5637900000000  0.4655670000000 1.0
C      1  0.5679290000000  0.5637910000000  0.4655670000000 1.0
C      1  0.4320700000000  0.5637810000000  0.5344500000000 1.0
C      1  0.5776910000000  0.4727830000000  0.5153920000000 1.0
C      1  0.4223090000000  0.4727860000000  0.4846010000000 1.0
C      1  0.5776910000000  0.4727870000000  0.4846010000000 1.0
C      1  0.4223090000000  0.4727820000000  0.5153920000000 1.0
C      1  0.5154450000000  0.4449390000000  0.4849700000000 1.0
C      1  0.4845560000000  0.4449350000000  0.5150150000000 1.0
C      1  0.5154450000000  0.4449350000000  0.5150150000000 1.0
C      1  0.4845560000000  0.4449390000000  0.4849700000000 1.0
C      1  0.4479000000000  0.4815510000000  0.5278430000000 1.0
C      1  0.5521000000000  0.4815590000000  0.4721520000000 1.0
C      1  0.4479010000000  0.4815580000000  0.4721520000000 1.0
C      1  0.5521000000000  0.4815510000000  0.5278430000000 1.0
C      1  0.5862280000000  0.5133050000000  0.4530030000000 1.0
C      1  0.4137710000000  0.5132910000000  0.5470010000000 1.0
C      1  0.5862290000000  0.5132930000000  0.5470010000000 1.0
C      1  0.4137710000000  0.5133040000000  0.4530030000000 1.0
C      1  0.4708540000000  0.4248900000000  0.4676380000000 1.0
C      1  0.5291470000000  0.4248820000000  0.5323420000000 1.0
C      1  0.4708540000000  0.4248820000000  0.5323420000000 1.0
C      1  0.5291470000000  0.4248900000000  0.4676380000000 1.0
C      1  0.4416140000000  0.4311780000000  0.5352240000000 1.0
C      1  0.5583870000000  0.4311880000000  0.4647580000000 1.0
C      1  0.4416140000000  0.4311870000000  0.4647580000000 1.0
C      1  0.5583870000000  0.4311780000000  0.5352230000000 1.0
C      1  0.4858490000000  0.5748420000000  0.4480090000000 1.0
C      1  0.5141490000000  0.5748280000000  0.5520110000000 1.0
C      1  0.4858500000000  0.5748280000000  0.5520110000000 1.0
C      1  0.5141490000000  0.5748420000000  0.4480090000000 1.0
C      1  0.5515210000000  0.5754060000000  0.4855720000000 1.0
C      1  0.4484770000000  0.5754010000000  0.5144490000000 1.0
C      1  0.5515220000000  0.5754020000000  0.5144480000000 1.0
C      1  0.4484770000000  0.5754050000000  0.4855720000000 1.0
C      1  0.5273510000000  0.5234120000000  0.4735860000000 1.0
C      1  0.4726490000000  0.5234040000000  0.5264200000000 1.0
C      1  0.5273510000000  0.5234040000000  0.5264200000000 1.0
C      1  0.4726490000000  0.5234110000000  0.4735860000000 1.0
C      1  0.5956900000000  0.4976310000000  0.4757270000000 1.0
C      1  0.4043100000000  0.4976230000000  0.5242720000000 1.0
C      1  0.5956900000000  0.4976250000000  0.5242720000000 1.0
C      1  0.4043100000000  0.4976300000000  0.4757270000000 1.0
C      1  0.5795440000000  0.5416610000000  0.5470680000000 1.0
C      1  0.4204560000000  0.5416720000000  0.4529440000000 1.0
C      1  0.5795440000000  0.5416730000000  0.4529430000000 1.0
C      1  0.4204560000000  0.5416600000000  0.5470680000000 1.0
C      1  0.4848860000000  0.5475540000000  0.5148940000000 1.0
C      1  0.5151130000000  0.5475580000000  0.4851190000000 1.0
C      1  0.4848860000000  0.5475580000000  0.4851190000000 1.0
C      1  0.5151130000000  0.5475540000000  0.5148930000000 1.0
C      1  0.4753940000000  0.5735690000000  0.5250130000000 1.0
C      1  0.5246050000000  0.5735750000000  0.4750070000000 1.0
C      1  0.4753940000000  0.5735750000000  0.4750070000000 1.0
C      1  0.5246050000000  0.5735690000000  0.5250130000000 1.0
C      1  0.4676380000000  0.4415050000000  0.5727080000000 1.0
C      1  0.5323630000000  0.4415250000000  0.4272760000000 1.0
C      1  0.4676380000000  0.4415240000000  0.4272760000000 1.0
C      1  0.5323630000000  0.4415050000000  0.5727080000000 1.0
C      1  0.3935270000000  0.5059110000000  0.5000010000000 1.0
C      1  0.6064730000000  0.5059130000000  0.5000010000000 1.0
END
