TITL C-150268-3286-6 0.290475039005405 125000 -666.894165549417 0 0 97 (C1) n - 1
REM
REM in /rds/project/t2_vol4/rds-t2-cs072/BORA/CARBON/from-Arr/AIRSS/Generating-Clusters/GAP-ML-2020/Higher-Symm/SD-CG/HFTN-CG
REM
REM
REM
REM
REM
REM ./C.cell (b20cbc046b6831c77cfcea5457e17084)
REM AIRSS Version 0.9.1 bugfix July 2018 build 013d7b7c2542+ Fri, 06 Jul 2018 19:26:36 +0100
REM compiler GCC version 9.3.0
REM options -cpp -mtune=generic -march=x86-64 -g -O0
REM seed 263209586 1472654970 -309770984 -1153916632 1572497919 -766689578 1774859665 1994096475 1006865017 -993289635 223872263 1831563116 -1786718436 -645620496 518571945 1803617382 1170163280 -1747157445 -1638072666 -530155590 -1411750065 806752841 -256450803 -1180887777 195544558 -1312933810 -772124877 448320460 -430614348 632831806 -2043713199 331340961 -1919355857
REM
CELL 1.54180   50.00000   50.00000   50.00000   90.00000   90.00000   90.00000
LATT -1
SFAC C  
C      1  0.5093580000000  0.5882500000000  0.4611490000000 1.0
C      1  0.4603500000000  0.5141750000000  0.4329480000000 1.0
C      1  0.4776080000000  0.4987470000000  0.5003700000000 1.0
C      1  0.4337370000000  0.5033810000000  0.4392870000000 1.0
C      1  0.5203130000000  0.4835720000000  0.5886780000000 1.0
C      1  0.4896770000000  0.5151280000000  0.4771340000000 1.0
C      1  0.4221010000000  0.4516650000000  0.4444270000000 1.0
C      1  0.5020680000000  0.4340630000000  0.4366870000000 1.0
C      1  0.4405500000000  0.4662590000000  0.5228000000000 1.0
C      1  0.5253490000000  0.5772220000000  0.5254170000000 1.0
C      1  0.5201500000000  0.5471570000000  0.4678650000000 1.0
C      1  0.4541150000000  0.5555930000000  0.5093540000000 1.0
C      1  0.4962510000000  0.5778900000000  0.5251800000000 1.0
C      1  0.4899680000000  0.5334500000000  0.5367100000000 1.0
C      1  0.5368700000000  0.4249990000000  0.4694940000000 1.0
C      1  0.5192160000000  0.5308110000000  0.5358030000000 1.0
C      1  0.5230530000000  0.5210300000000  0.5080630000000 1.0
C      1  0.5221880000000  0.4488840000000  0.4232230000000 1.0
C      1  0.5680970000000  0.4590700000000  0.4818520000000 1.0
C      1  0.4932960000000  0.4740980000000  0.5859160000000 1.0
C      1  0.4608490000000  0.4727690000000  0.4272930000000 1.0
C      1  0.4654250000000  0.5588050000000  0.4598340000000 1.0
C      1  0.5050660000000  0.4900690000000  0.5429160000000 1.0
C      1  0.5048540000000  0.4991700000000  0.4157650000000 1.0
C      1  0.4539620000000  0.4661830000000  0.5470410000000 1.0
C      1  0.5156030000000  0.4310720000000  0.4886820000000 1.0
C      1  0.4899250000000  0.5203610000000  0.5826250000000 1.0
C      1  0.4489010000000  0.5049660000000  0.4971950000000 1.0
C      1  0.5290250000000  0.5751060000000  0.4753800000000 1.0
C      1  0.5710880000000  0.5132380000000  0.5345920000000 1.0
C      1  0.5790120000000  0.4975650000000  0.5115970000000 1.0
C      1  0.5133520000000  0.5028670000000  0.4635090000000 1.0
C      1  0.5519440000000  0.5494550000000  0.5621900000000 1.0
C      1  0.5198040000000  0.4460820000000  0.5613070000000 1.0
C      1  0.5011720000000  0.5437340000000  0.4426740000000 1.0
C      1  0.5260710000000  0.4925850000000  0.5042970000000 1.0
C      1  0.4583480000000  0.4940630000000  0.5572770000000 1.0
C      1  0.4530920000000  0.5665520000000  0.5379370000000 1.0
C      1  0.5113060000000  0.4736390000000  0.5211100000000 1.0
C      1  0.4823190000000  0.5051830000000  0.5314910000000 1.0
C      1  0.4323360000000  0.4755040000000  0.4313200000000 1.0
C      1  0.4764900000000  0.4956670000000  0.4188290000000 1.0
C      1  0.5659480000000  0.5418870000000  0.5360260000000 1.0
C      1  0.4299760000000  0.4891800000000  0.4827650000000 1.0
C      1  0.4892800000000  0.5714570000000  0.4497040000000 1.0
C      1  0.4880330000000  0.4474440000000  0.4570490000000 1.0
C      1  0.4586500000000  0.4562950000000  0.5012050000000 1.0
C      1  0.5285380000000  0.4283650000000  0.4424130000000 1.0
C      1  0.4759050000000  0.4958680000000  0.5809800000000 1.0
C      1  0.5796470000000  0.5152890000000  0.4882250000000 1.0
C      1  0.5709180000000  0.4694910000000  0.5092980000000 1.0
C      1  0.4247700000000  0.5138720000000  0.5283980000000 1.0
C      1  0.4868620000000  0.4701710000000  0.5008630000000 1.0
C      1  0.5265320000000  0.5086890000000  0.5536770000000 1.0
C      1  0.5565000000000  0.4716140000000  0.5559900000000 1.0
C      1  0.4737430000000  0.4452150000000  0.5486570000000 1.0
C      1  0.5359610000000  0.4645840000000  0.5746220000000 1.0
C      1  0.4266860000000  0.4888610000000  0.5134410000000 1.0
C      1  0.5524670000000  0.4790230000000  0.4645550000000 1.0
C      1  0.5494810000000  0.4831460000000  0.4340740000000 1.0
C      1  0.4857910000000  0.5517330000000  0.5126530000000 1.0
C      1  0.4271080000000  0.5364310000000  0.4791390000000 1.0
C      1  0.5196900000000  0.5142690000000  0.5827120000000 1.0
C      1  0.4752590000000  0.5837760000000  0.5406990000000 1.0
C      1  0.5649400000000  0.5573040000000  0.5101170000000 1.0
C      1  0.4229750000000  0.5113720000000  0.4646280000000 1.0
C      1  0.4754560000000  0.5307310000000  0.4526500000000 1.0
C      1  0.5554380000000  0.4991830000000  0.5526920000000 1.0
C      1  0.4526130000000  0.5433770000000  0.5564540000000 1.0
C      1  0.5259800000000  0.4770890000000  0.4193560000000 1.0
C      1  0.5417950000000  0.5752360000000  0.5022810000000 1.0
C      1  0.5626800000000  0.5075960000000  0.4657860000000 1.0
C      1  0.5556910000000  0.4571800000000  0.5316940000000 1.0
C      1  0.4926520000000  0.4502540000000  0.5691370000000 1.0
C      1  0.5804560000000  0.5419940000000  0.4943190000000 1.0
C      1  0.4298390000000  0.4386880000000  0.4676330000000 1.0
C      1  0.5412690000000  0.5346220000000  0.5829930000000 1.0
C      1  0.4424810000000  0.4196190000000  0.4844490000000 1.0
C      1  0.4614170000000  0.4272270000000  0.5029710000000 1.0
C      1  0.4360070000000  0.5309260000000  0.5066100000000 1.0
C      1  0.5038690000000  0.5364130000000  0.4918370000000 1.0
C      1  0.5152650000000  0.5264460000000  0.4215340000000 1.0
C      1  0.4797740000000  0.5393740000000  0.5646270000000 1.0
C      1  0.5241680000000  0.4806690000000  0.4769160000000 1.0
C      1  0.4450890000000  0.5598970000000  0.4796900000000 1.0
C      1  0.5035110000000  0.4568510000000  0.4794470000000 1.0
C      1  0.4459140000000  0.4643470000000  0.4755620000000 1.0
C      1  0.4661290000000  0.4621610000000  0.4530640000000 1.0
C      1  0.5263340000000  0.4459320000000  0.5320960000000 1.0
C      1  0.5419160000000  0.5254760000000  0.4310520000000 1.0
C      1  0.5095670000000  0.4268050000000  0.5162520000000 1.0
C      1  0.5360500000000  0.5233790000000  0.4605460000000 1.0
C      1  0.4402360000000  0.5174250000000  0.5518930000000 1.0
C      1  0.5631360000000  0.4334310000000  0.4744070000000 1.0
C      1  0.5309490000000  0.5565710000000  0.5442880000000 1.0
C      1  0.4813960000000  0.4279310000000  0.5247330000000 1.0
C      1  0.5630020000000  0.5077530000000  0.4339260000000 1.0
END
