TITL C-152267-5976-7 0.099235038551889 125000 -339.761496282185 0 0 52 (C1) n - 1
REM
REM in /rds/project/t2_vol4/rds-t2-cs072/BORA/CARBON/from-Arr/AIRSS/Generating-Clusters/GAP-ML-2020/Higher-Symm/SD-CG/HFTN-CG
REM
REM
REM
REM
REM
REM ./C.cell (b20cbc046b6831c77cfcea5457e17084)
REM AIRSS Version 0.9.1 bugfix July 2018 build 013d7b7c2542+ Fri, 06 Jul 2018 19:26:36 +0100
REM compiler GCC version 9.3.0
REM options -cpp -mtune=generic -march=x86-64 -g -O0
REM seed -1866040057 924156087 2098857280 -12990925 832291735 -692374624 -450098457 -824458984 -1440839487 1767642496 685407324 487958021 -802706085 165082145 -600643861 1365259360 473312360 -2002372109 1867076582 1625665015 -740755160 -711924192 -2048439751 216039737 1657149363 1168296575 -70426201 -1542907265 -71360896 -1647787409 956801229 652044582 -1472499649
REM
CELL 1.54180   50.00000   50.00000   50.00000   90.00000   90.00000   90.00000
LATT -1
SFAC C  
C      1  0.5073820000000  0.5457260000000  0.4749500000000 1.0
C      1  0.5130590000000  0.4929290000000  0.4696940000000 1.0
C      1  0.5034900000000  0.4833940000000  0.5167190000000 1.0
C      1  0.5101370000000  0.5238890000000  0.5573080000000 1.0
C      1  0.5109570000000  0.4706640000000  0.4900390000000 1.0
C      1  0.5042710000000  0.5179820000000  0.4839820000000 1.0
C      1  0.5132860000000  0.5340390000000  0.5313480000000 1.0
C      1  0.5102190000000  0.4711800000000  0.5412370000000 1.0
C      1  0.4466080000000  0.5343670000000  0.4442460000000 1.0
C      1  0.4458120000000  0.4435440000000  0.4649160000000 1.0
C      1  0.4571420000000  0.4655290000000  0.5601920000000 1.0
C      1  0.4439960000000  0.5564750000000  0.5376180000000 1.0
C      1  0.4503830000000  0.4593500000000  0.4453750000000 1.0
C      1  0.4471510000000  0.5537060000000  0.4618520000000 1.0
C      1  0.4387750000000  0.5374350000000  0.5558900000000 1.0
C      1  0.4513560000000  0.4477970000000  0.5415320000000 1.0
C      1  0.4650590000000  0.4932330000000  0.5501230000000 1.0
C      1  0.4464210000000  0.5454010000000  0.5118250000000 1.0
C      1  0.4621230000000  0.5136370000000  0.4546230000000 1.0
C      1  0.4643840000000  0.4511340000000  0.4893130000000 1.0
C      1  0.4427320000000  0.5120670000000  0.5442370000000 1.0
C      1  0.4609660000000  0.4569370000000  0.5174550000000 1.0
C      1  0.4678170000000  0.4846910000000  0.4511380000000 1.0
C      1  0.4624820000000  0.5498120000000  0.4870720000000 1.0
C      1  0.5498660000000  0.5370150000000  0.5039290000000 1.0
C      1  0.5517390000000  0.5198300000000  0.4530830000000 1.0
C      1  0.5599330000000  0.4613300000000  0.4861300000000 1.0
C      1  0.5685890000000  0.4766060000000  0.5345150000000 1.0
C      1  0.5718000000000  0.4650570000000  0.5117200000000 1.0
C      1  0.5616600000000  0.4816790000000  0.4663600000000 1.0
C      1  0.5585300000000  0.5326370000000  0.4779710000000 1.0
C      1  0.5503020000000  0.4976440000000  0.5396520000000 1.0
C      1  0.5381200000000  0.4924210000000  0.4506600000000 1.0
C      1  0.5334290000000  0.4498680000000  0.4846750000000 1.0
C      1  0.5309110000000  0.5021160000000  0.5596980000000 1.0
C      1  0.5286680000000  0.5533470000000  0.5156940000000 1.0
C      1  0.4922670000000  0.4477600000000  0.4829370000000 1.0
C      1  0.4889960000000  0.5044970000000  0.5637250000000 1.0
C      1  0.4881780000000  0.5640260000000  0.4854320000000 1.0
C      1  0.4967250000000  0.4844020000000  0.4453330000000 1.0
C      1  0.4735760000000  0.4835690000000  0.5212940000000 1.0
C      1  0.4418490000000  0.5168030000000  0.5153300000000 1.0
C      1  0.4735710000000  0.5200450000000  0.4817600000000 1.0
C      1  0.4628110000000  0.4798950000000  0.4805990000000 1.0
C      1  0.5140170000000  0.4309560000000  0.4786980000000 1.0
C      1  0.5126030000000  0.5652450000000  0.4965470000000 1.0
C      1  0.5189230000000  0.4840100000000  0.4300040000000 1.0
C      1  0.5102330000000  0.4834900000000  0.5657100000000 1.0
C      1  0.5717480000000  0.5082800000000  0.4702360000000 1.0
C      1  0.5427580000000  0.5109290000000  0.5149680000000 1.0
C      1  0.5137770000000  0.5113690000000  0.5115200000000 1.0
C      1  0.4599280000000  0.5006780000000  0.5003190000000 1.0
END
