TITL C-150275-3346-3 0.191880926043953 125000 -325.529974167124 0 0 49 (C7v) n - 1
REM
REM in /rds/project/t2_vol4/rds-t2-cs072/BORA/CARBON/from-Arr/AIRSS/Generating-Clusters/GAP-ML-2020/Higher-Symm/SD-CG/HFTN-CG
REM
REM
REM
REM
REM
REM ./C.cell (b20cbc046b6831c77cfcea5457e17084)
REM AIRSS Version 0.9.1 bugfix July 2018 build 013d7b7c2542+ Fri, 06 Jul 2018 19:26:36 +0100
REM compiler GCC version 9.3.0
REM options -cpp -mtune=generic -march=x86-64 -g -O0
REM seed 1236755003 -672749370 1987043637 1725237577 808852238 1150568145 -203235885 1028837585 1958673475 371780540 -2100296731 909896057 2013165976 458140904 1096993533 -477051415 611309626 1085865573 948244688 -1800133905 899961040 1931621366 1359612375 762656886 613360295 -1800712416 -462401156 -1110202664 -385518113 -1248082101 -312180844 -1244907790 788578410
REM
CELL 1.54180   50.00000   50.00000   50.00000   90.00000   90.00000   90.00000
LATT -1
SFAC C  
C      1  0.4826590000000  0.5037300000000  0.5309480000000 1.0
C      1  0.4649930000000  0.5037460000000  0.5057370000000 1.0
C      1  0.4736900000000  0.5037530000000  0.4762070000000 1.0
C      1  0.5022000000000  0.5037450000000  0.4645950000000 1.0
C      1  0.5290540000000  0.5037280000000  0.4796440000000 1.0
C      1  0.5340320000000  0.5037150000000  0.5100230000000 1.0
C      1  0.5133840000000  0.5037160000000  0.5328550000000 1.0
C      1  0.4492780000000  0.4630050000000  0.4850540000000 1.0
C      1  0.4800440000000  0.4630030000000  0.4510330000000 1.0
C      1  0.5258260000000  0.4629820000000  0.4538750000000 1.0
C      1  0.5521480000000  0.4629580000000  0.4914400000000 1.0
C      1  0.5391900000000  0.4629480000000  0.5354420000000 1.0
C      1  0.4967090000000  0.4629600000000  0.5527450000000 1.0
C      1  0.4566940000000  0.4629850000000  0.5303200000000 1.0
C      1  0.4732440000000  0.4416230000000  0.5187100000000 1.0
C      1  0.4686650000000  0.4416340000000  0.4907590000000 1.0
C      1  0.4876620000000  0.4416340000000  0.4697510000000 1.0
C      1  0.5159310000000  0.4416210000000  0.4715060000000 1.0
C      1  0.5321850000000  0.4416060000000  0.4947020000000 1.0
C      1  0.5241830000000  0.4415990000000  0.5218720000000 1.0
C      1  0.4979520000000  0.4416070000000  0.5325560000000 1.0
C      1  0.5019810000000  0.5534360000000  0.4684870000000 1.0
C      1  0.5258960000000  0.5534200000000  0.4818890000000 1.0
C      1  0.5303290000000  0.5534090000000  0.5089440000000 1.0
C      1  0.5119410000000  0.5534100000000  0.5292780000000 1.0
C      1  0.4845780000000  0.5534220000000  0.5275790000000 1.0
C      1  0.4688460000000  0.5534370000000  0.5051270000000 1.0
C      1  0.4765910000000  0.5534430000000  0.4788280000000 1.0
C      1  0.5201010000000  0.4787840000000  0.5493650000000 1.0
C      1  0.4739280000000  0.4788050000000  0.5464990000000 1.0
C      1  0.4473810000000  0.4788300000000  0.5086120000000 1.0
C      1  0.4604500000000  0.4788400000000  0.4642350000000 1.0
C      1  0.5032940000000  0.4788280000000  0.4467840000000 1.0
C      1  0.5436510000000  0.4788020000000  0.4694000000000 1.0
C      1  0.5511310000000  0.4787830000000  0.5150530000000 1.0
C      1  0.5310290000000  0.5266750000000  0.4446610000000 1.0
C      1  0.5626240000000  0.5266450000000  0.4897510000000 1.0
C      1  0.5470700000000  0.5266330000000  0.5425660000000 1.0
C      1  0.4960800000000  0.5266480000000  0.5633350000000 1.0
C      1  0.4480510000000  0.5266780000000  0.5364190000000 1.0
C      1  0.4391490000000  0.5267010000000  0.4820860000000 1.0
C      1  0.4760780000000  0.5266990000000  0.4412500000000 1.0
C      1  0.5032750000000  0.5327850000000  0.4474910000000 1.0
C      1  0.5431100000000  0.5327600000000  0.4698140000000 1.0
C      1  0.5504930000000  0.5327410000000  0.5148770000000 1.0
C      1  0.5198650000000  0.5327420000000  0.5487460000000 1.0
C      1  0.4742890000000  0.5327630000000  0.5459170000000 1.0
C      1  0.4480840000000  0.5327870000000  0.5085200000000 1.0
C      1  0.4609840000000  0.5327970000000  0.4647160000000 1.0
END
