TITL C-150264-3514-2 25.4295887822167 125000 -477.169893613714 0 0 70 (C1) n - 1
REM
REM in /rds/project/t2_vol4/rds-t2-cs072/BORA/CARBON/from-Arr/AIRSS/Generating-Clusters/GAP-ML-2020/Higher-Symm/SD-CG/HFTN-CG
REM
REM
REM
REM
REM
REM ./C.cell (b20cbc046b6831c77cfcea5457e17084)
REM AIRSS Version 0.9.1 bugfix July 2018 build 013d7b7c2542+ Fri, 06 Jul 2018 19:26:36 +0100
REM compiler GCC version 9.3.0
REM options -cpp -mtune=generic -march=x86-64 -g -O0
REM seed -786896559 -1378918252 669799929 -544052783 -1319257889 -1270612202 1248028982 -314822033 1077590921 1701011754 882151731 2054977193 -19539949 -1638096921 1306241622 -1144603559 815145287 -2132583209 1033439259 816191893 -1065964173 -81987367 -373246923 -1828882991 1612108066 -340881265 672758572 671501095 2102053916 1616606706 -1039563203 -1326685130 1509219841
REM
CELL 1.54180   50.00000   50.00000   50.00000   90.00000   90.00000   90.00000
LATT -1
SFAC C  
C      1  0.5554170000000  0.5206450000000  0.4495310000000 1.0
C      1  0.4710620000000  0.5209170000000  0.4321830000000 1.0
C      1  0.4288500000000  0.5179890000000  0.5084820000000 1.0
C      1  0.4861680000000  0.5197680000000  0.5690780000000 1.0
C      1  0.5619060000000  0.5199580000000  0.5377920000000 1.0
C      1  0.4829880000000  0.4819740000000  0.5129410000000 1.0
C      1  0.5123320000000  0.4814550000000  0.5190950000000 1.0
C      1  0.5277210000000  0.4828290000000  0.4938680000000 1.0
C      1  0.5078870000000  0.4835810000000  0.4717320000000 1.0
C      1  0.4815710000000  0.4853920000000  0.4842250000000 1.0
C      1  0.4336850000000  0.4735260000000  0.5263000000000 1.0
C      1  0.5006440000000  0.4746740000000  0.5711480000000 1.0
C      1  0.5665620000000  0.4753590000000  0.5240820000000 1.0
C      1  0.5422960000000  0.4753990000000  0.4374900000000 1.0
C      1  0.4542830000000  0.4759610000000  0.4415190000000 1.0
C      1  0.5129310000000  0.5292290000000  0.5218930000000 1.0
C      1  0.5267790000000  0.5305470000000  0.4942020000000 1.0
C      1  0.5050490000000  0.5309820000000  0.4724130000000 1.0
C      1  0.4775930000000  0.5301010000000  0.4867770000000 1.0
C      1  0.4823990000000  0.5292480000000  0.5170890000000 1.0
C      1  0.4768710000000  0.5475080000000  0.4409840000000 1.0
C      1  0.4377750000000  0.5447720000000  0.5042860000000 1.0
C      1  0.4857120000000  0.5462060000000  0.5595540000000 1.0
C      1  0.5534940000000  0.5465770000000  0.5327240000000 1.0
C      1  0.5486560000000  0.5469830000000  0.4583800000000 1.0
C      1  0.5082300000000  0.5021710000000  0.5651140000000 1.0
C      1  0.5655560000000  0.5030670000000  0.5153840000000 1.0
C      1  0.5351300000000  0.5042390000000  0.4375190000000 1.0
C      1  0.4541240000000  0.5046900000000  0.4483550000000 1.0
C      1  0.4404790000000  0.5018210000000  0.5290750000000 1.0
C      1  0.5020780000000  0.4579040000000  0.4530090000000 1.0
C      1  0.4491520000000  0.4510670000000  0.4836810000000 1.0
C      1  0.4628170000000  0.4534860000000  0.5454270000000 1.0
C      1  0.5290840000000  0.4535590000000  0.5489740000000 1.0
C      1  0.5458360000000  0.4579850000000  0.4869500000000 1.0
C      1  0.5449660000000  0.5010580000000  0.5508480000000 1.0
C      1  0.5611830000000  0.5009340000000  0.4688440000000 1.0
C      1  0.4905540000000  0.5008690000000  0.4327180000000 1.0
C      1  0.4362900000000  0.4990640000000  0.4895690000000 1.0
C      1  0.4690280000000  0.5010790000000  0.5571710000000 1.0
C      1  0.4450680000000  0.5580390000000  0.5276910000000 1.0
C      1  0.5100340000000  0.5600860000000  0.5598220000000 1.0
C      1  0.5621550000000  0.5589220000000  0.5090430000000 1.0
C      1  0.5288690000000  0.5604200000000  0.4438090000000 1.0
C      1  0.4563940000000  0.5593020000000  0.4559520000000 1.0
C      1  0.4980800000000  0.4397490000000  0.4796150000000 1.0
C      1  0.4741210000000  0.4398920000000  0.4951700000000 1.0
C      1  0.4809630000000  0.4509750000000  0.5217630000000 1.0
C      1  0.5125170000000  0.4507460000000  0.5237720000000 1.0
C      1  0.5203900000000  0.4418260000000  0.4959790000000 1.0
C      1  0.5241930000000  0.4552420000000  0.4359930000000 1.0
C      1  0.4457760000000  0.4562800000000  0.4574050000000 1.0
C      1  0.4354780000000  0.4517270000000  0.5428580000000 1.0
C      1  0.5159640000000  0.4518800000000  0.5728700000000 1.0
C      1  0.5668370000000  0.4558970000000  0.5054790000000 1.0
C      1  0.4618400000000  0.5059670000000  0.4764030000000 1.0
C      1  0.4692480000000  0.5041670000000  0.5284160000000 1.0
C      1  0.5190250000000  0.5038140000000  0.5383440000000 1.0
C      1  0.5464620000000  0.5060810000000  0.4936080000000 1.0
C      1  0.5107000000000  0.5065160000000  0.4530380000000 1.0
C      1  0.4548240000000  0.5492700000000  0.4807420000000 1.0
C      1  0.4690700000000  0.5494020000000  0.5358700000000 1.0
C      1  0.5256030000000  0.5501980000000  0.5404050000000 1.0
C      1  0.5484980000000  0.5505200000000  0.4876380000000 1.0
C      1  0.5044440000000  0.5515030000000  0.4501600000000 1.0
C      1  0.4352510000000  0.4719110000000  0.4983780000000 1.0
C      1  0.4738400000000  0.4738750000000  0.5636670000000 1.0
C      1  0.5514160000000  0.4733240000000  0.5475520000000 1.0
C      1  0.5559080000000  0.4738680000000  0.4619520000000 1.0
C      1  0.4818910000000  0.4740270000000  0.4361980000000 1.0
END
