TITL C-154546-3083-5 26.0576718257886 125000 -1023.5275401476 0 0 143 (C1) n - 1
REM
REM in /rds/project/t2_vol4/rds-t2-cs072/BORA/CARBON/from-Arr/AIRSS/Generating-Clusters/GAP-ML-2020/Higher-Symm/SD-CG/HFTN-CG
REM
REM
REM
REM
REM
REM ./C.cell (b20cbc046b6831c77cfcea5457e17084)
REM AIRSS Version 0.9.1 bugfix July 2018 build 013d7b7c2542+ Fri, 06 Jul 2018 19:26:36 +0100
REM compiler GCC version 9.3.0
REM options -cpp -mtune=generic -march=x86-64 -g -O0
REM seed -917284034 -242581027 -324729418 -1495580179 1083680092 475712941 1619543402 314102690 -1982145857 -1826249448 243887349 -893489022 -1863519723 -272848254 591186832 1220262029 -1174610634 -1290259036 718313822 -455988683 -2092666220 -1824388739 -1919586924 1016469210 -1612771549 -1347356353 1630254066 988451143 -812663171 925865078 1407785615 508929828 541872098
REM
CELL 1.54180   50.00000   50.00000   50.00000   90.00000   90.00000   90.00000
LATT -1
SFAC C  
C      1  0.4755030000000  0.4152770000000  0.5549830000000 1.0
C      1  0.4393770000000  0.5640990000000  0.5541050000000 1.0
C      1  0.5861000000000  0.5207860000000  0.5543100000000 1.0
C      1  0.4750480000000  0.4153280000000  0.4459970000000 1.0
C      1  0.4392010000000  0.5648050000000  0.4452180000000 1.0
C      1  0.5861860000000  0.5208610000000  0.4455140000000 1.0
C      1  0.4664860000000  0.4169920000000  0.4731730000000 1.0
C      1  0.4447280000000  0.5720110000000  0.4724720000000 1.0
C      1  0.5902320000000  0.5125920000000  0.4723970000000 1.0
C      1  0.4675930000000  0.4176350000000  0.5280890000000 1.0
C      1  0.4448960000000  0.5713190000000  0.5272500000000 1.0
C      1  0.5892240000000  0.5123890000000  0.5271160000000 1.0
C      1  0.4077860000000  0.5368760000000  0.4710970000000 1.0
C      1  0.5777180000000  0.5620740000000  0.4712840000000 1.0
C      1  0.5152230000000  0.4019330000000  0.4721160000000 1.0
C      1  0.4078000000000  0.5367420000000  0.5279640000000 1.0
C      1  0.5774040000000  0.5618420000000  0.5280380000000 1.0
C      1  0.5155720000000  0.4017350000000  0.5292190000000 1.0
C      1  0.5440580000000  0.4707870000000  0.5087980000000 1.0
C      1  0.4562300000000  0.4651810000000  0.5139600000000 1.0
C      1  0.4925500000000  0.5506510000000  0.5157650000000 1.0
C      1  0.5475120000000  0.4807760000000  0.4841700000000 1.0
C      1  0.4513930000000  0.4773130000000  0.4899890000000 1.0
C      1  0.5036060000000  0.5526730000000  0.4914450000000 1.0
C      1  0.5724950000000  0.5348150000000  0.5143170000000 1.0
C      1  0.4946520000000  0.4185180000000  0.5152010000000 1.0
C      1  0.4337310000000  0.5456710000000  0.5143240000000 1.0
C      1  0.5736270000000  0.5349860000000  0.4850720000000 1.0
C      1  0.4945640000000  0.4194190000000  0.4859220000000 1.0
C      1  0.4333240000000  0.5467590000000  0.4850600000000 1.0
C      1  0.4570340000000  0.5294910000000  0.4205000000000 1.0
C      1  0.5468480000000  0.5230810000000  0.4205150000000 1.0
C      1  0.4962990000000  0.4479030000000  0.4204150000000 1.0
C      1  0.4566130000000  0.5290910000000  0.5796590000000 1.0
C      1  0.5469430000000  0.5229270000000  0.5796310000000 1.0
C      1  0.4963360000000  0.4482290000000  0.5796110000000 1.0
C      1  0.4179800000000  0.5443130000000  0.5549180000000 1.0
C      1  0.5791680000000  0.5490780000000  0.5549960000000 1.0
C      1  0.5033370000000  0.4065340000000  0.5562850000000 1.0
C      1  0.4179600000000  0.5449360000000  0.4440860000000 1.0
C      1  0.5796410000000  0.5492420000000  0.4442480000000 1.0
C      1  0.5029440000000  0.4068950000000  0.4451190000000 1.0
C      1  0.3971590000000  0.4854880000000  0.4731780000000 1.0
C      1  0.5384580000000  0.5968660000000  0.4733430000000 1.0
C      1  0.5643420000000  0.4197770000000  0.4742970000000 1.0
C      1  0.3976680000000  0.4859250000000  0.5260530000000 1.0
C      1  0.5376440000000  0.5955230000000  0.5258150000000 1.0
C      1  0.5651980000000  0.4186800000000  0.5268970000000 1.0
C      1  0.5270370000000  0.5829210000000  0.4521370000000 1.0
C      1  0.5581770000000  0.4362300000000  0.4527680000000 1.0
C      1  0.4149870000000  0.4824550000000  0.4520180000000 1.0
C      1  0.5262560000000  0.5819700000000  0.5472030000000 1.0
C      1  0.5586630000000  0.4355820000000  0.5480590000000 1.0
C      1  0.4145820000000  0.4827260000000  0.5482150000000 1.0
C      1  0.4632180000000  0.5903770000000  0.4853610000000 1.0
C      1  0.5969300000000  0.4873600000000  0.4852750000000 1.0
C      1  0.4422770000000  0.4257510000000  0.4855410000000 1.0
C      1  0.4629870000000  0.5902360000000  0.5144670000000 1.0
C      1  0.5965620000000  0.4872700000000  0.5143950000000 1.0
C      1  0.4457840000000  0.4325940000000  0.5149200000000 1.0
C      1  0.5242850000000  0.4875850000000  0.4702580000000 1.0
C      1  0.4747940000000  0.4845480000000  0.4727130000000 1.0
C      1  0.4988380000000  0.5300790000000  0.4726970000000 1.0
C      1  0.5263840000000  0.4861730000000  0.5272200000000 1.0
C      1  0.4753040000000  0.4815990000000  0.5286670000000 1.0
C      1  0.4974930000000  0.5266510000000  0.5292300000000 1.0
C      1  0.5611860000000  0.4783390000000  0.5659590000000 1.0
C      1  0.4499280000000  0.4580990000000  0.5670420000000 1.0
C      1  0.4883400000000  0.5636850000000  0.5663810000000 1.0
C      1  0.5611060000000  0.4783450000000  0.4337440000000 1.0
C      1  0.4506190000000  0.4583680000000  0.4343520000000 1.0
C      1  0.4886510000000  0.5642010000000  0.4338420000000 1.0
C      1  0.5416050000000  0.4035370000000  0.5154430000000 1.0
C      1  0.3962200000000  0.5135130000000  0.5143510000000 1.0
C      1  0.5627170000000  0.5832840000000  0.5143820000000 1.0
C      1  0.5412730000000  0.4041820000000  0.4858610000000 1.0
C      1  0.3961770000000  0.5135660000000  0.4847550000000 1.0
C      1  0.5632400000000  0.5837190000000  0.4848650000000 1.0
C      1  0.5544720000000  0.5481360000000  0.5684540000000 1.0
C      1  0.5145610000000  0.4285310000000  0.5695710000000 1.0
C      1  0.4310880000000  0.5232840000000  0.5682590000000 1.0
C      1  0.5550310000000  0.5485640000000  0.4305250000000 1.0
C      1  0.5144670000000  0.4285470000000  0.4313640000000 1.0
C      1  0.4307020000000  0.5238190000000  0.4303000000000 1.0
C      1  0.4986770000000  0.5864020000000  0.4486580000000 1.0
C      1  0.5751740000000  0.4589760000000  0.4490580000000 1.0
C      1  0.4260450000000  0.4561920000000  0.4485730000000 1.0
C      1  0.4980990000000  0.5854850000000  0.5509280000000 1.0
C      1  0.5756360000000  0.4585680000000  0.5513130000000 1.0
C      1  0.4253430000000  0.4565570000000  0.5526750000000 1.0
C      1  0.4208290000000  0.4413540000000  0.4725640000000 1.0
C      1  0.4884470000000  0.5991220000000  0.4722170000000 1.0
C      1  0.5915850000000  0.4612020000000  0.4724330000000 1.0
C      1  0.4204400000000  0.4426630000000  0.5285510000000 1.0
C      1  0.4881620000000  0.5986040000000  0.5274760000000 1.0
C      1  0.5918000000000  0.4610880000000  0.5277240000000 1.0
C      1  0.4701060000000  0.4389180000000  0.5718040000000 1.0
C      1  0.4617420000000  0.5562130000000  0.5714580000000 1.0
C      1  0.5680010000000  0.5051920000000  0.5713740000000 1.0
C      1  0.4703670000000  0.4388350000000  0.4290260000000 1.0
C      1  0.4619220000000  0.5566830000000  0.4285410000000 1.0
C      1  0.5678580000000  0.5051510000000  0.4287310000000 1.0
C      1  0.5239290000000  0.5144840000000  0.4817500000000 1.0
C      1  0.5001450000000  0.4721270000000  0.4825120000000 1.0
C      1  0.4757780000000  0.5140070000000  0.4818180000000 1.0
C      1  0.5234960000000  0.5141110000000  0.5175370000000 1.0
C      1  0.5006310000000  0.4715030000000  0.5183730000000 1.0
C      1  0.4749530000000  0.5111400000000  0.5174950000000 1.0
C      1  0.5309590000000  0.4437440000000  0.5507320000000 1.0
C      1  0.4363840000000  0.5015450000000  0.5497070000000 1.0
C      1  0.5328380000000  0.5538960000000  0.5499220000000 1.0
C      1  0.5305230000000  0.4442130000000  0.4497750000000 1.0
C      1  0.4359580000000  0.5022450000000  0.4490810000000 1.0
C      1  0.5336900000000  0.5548140000000  0.4493530000000 1.0
C      1  0.5320250000000  0.4728430000000  0.5584750000000 1.0
C      1  0.4601110000000  0.4857940000000  0.5599980000000 1.0
C      1  0.5078220000000  0.5410020000000  0.5605030000000 1.0
C      1  0.5316480000000  0.4724810000000  0.4395970000000 1.0
C      1  0.4604240000000  0.4864700000000  0.4413840000000 1.0
C      1  0.5079080000000  0.5415690000000  0.4413180000000 1.0
C      1  0.4014490000000  0.4596640000000  0.4862910000000 1.0
C      1  0.5138230000000  0.6064090000000  0.4860780000000 1.0
C      1  0.5853770000000  0.4358790000000  0.4865340000000 1.0
C      1  0.4016520000000  0.4601680000000  0.5137790000000 1.0
C      1  0.5133160000000  0.6058170000000  0.5135430000000 1.0
C      1  0.5856640000000  0.4352890000000  0.5140230000000 1.0
C      1  0.4724950000000  0.5049920000000  0.5795870000000 1.0
C      1  0.5181400000000  0.5212810000000  0.5801600000000 1.0
C      1  0.5090890000000  0.4739460000000  0.5785150000000 1.0
C      1  0.4728690000000  0.5054200000000  0.4212050000000 1.0
C      1  0.5181660000000  0.5212200000000  0.4212950000000 1.0
C      1  0.5093530000000  0.4736180000000  0.4198800000000 1.0
C      1  0.5116520000000  0.4436630000000  0.5239020000000 1.0
C      1  0.4460760000000  0.5160720000000  0.5216740000000 1.0
C      1  0.5411760000000  0.5375640000000  0.5220030000000 1.0
C      1  0.5120550000000  0.4452080000000  0.4779880000000 1.0
C      1  0.4466300000000  0.5196880000000  0.4757860000000 1.0
C      1  0.5432610000000  0.5372680000000  0.4760890000000 1.0
C      1  0.5314740000000  0.5529720000000  0.4980700000000 1.0
C      1  0.4378430000000  0.5012670000000  0.4971670000000 1.0
C      1  0.5308720000000  0.4463310000000  0.5018030000000 1.0
C      1  0.4999540000000  0.4999310000000  0.5857590000000 1.0
C      1  0.5000850000000  0.5002030000000  0.4144710000000 1.0
END
