TITL C-152264-5883-3 5.28027785779015 125000 -92.6073328290703 0 0 15 (C1) n - 1
REM
REM in /rds/project/t2_vol4/rds-t2-cs072/BORA/CARBON/from-Arr/AIRSS/Generating-Clusters/GAP-ML-2020/Higher-Symm/SD-CG/HFTN-CG
REM
REM
REM
REM
REM
REM ./C.cell (b20cbc046b6831c77cfcea5457e17084)
REM AIRSS Version 0.9.1 bugfix July 2018 build 013d7b7c2542+ Fri, 06 Jul 2018 19:26:36 +0100
REM compiler GCC version 9.3.0
REM options -cpp -mtune=generic -march=x86-64 -g -O0
REM seed 1395070286 757793345 2097727613 900699602 -548438398 1009170190 -1436388563 -1934244575 1240200393 -494686285 784977136 -1575021073 -776840723 1641155025 261788626 449497643 -86266409 1282320684 1065328024 114282764 1020459241 369663259 -1641955563 1015424813 -2146809288 226348965 605196395 -797120249 -932273751 1887529447 -1624554934 1757657487 1436441936
REM
CELL 1.54180   50.00000   50.00000   50.00000   90.00000   90.00000   90.00000
LATT -1
SFAC C  
C      1  0.4955670000000  0.4961890000000  0.5254460000000 1.0
C      1  0.5130020000000  0.4811250000000  0.4864200000000 1.0
C      1  0.4740900000000  0.5282430000000  0.5003020000000 1.0
C      1  0.4902840000000  0.4661460000000  0.4786880000000 1.0
C      1  0.4920690000000  0.5236350000000  0.5206970000000 1.0
C      1  0.4546680000000  0.4861750000000  0.5002230000000 1.0
C      1  0.5177650000000  0.5347790000000  0.5237030000000 1.0
C      1  0.5528230000000  0.5215330000000  0.4924710000000 1.0
C      1  0.4722910000000  0.4787150000000  0.5217920000000 1.0
C      1  0.5519480000000  0.5151040000000  0.4680640000000 1.0
C      1  0.4705130000000  0.4627000000000  0.4987810000000 1.0
C      1  0.4899870000000  0.4931970000000  0.4717370000000 1.0
C      1  0.5345890000000  0.5162890000000  0.5123850000000 1.0
C      1  0.5201560000000  0.4901800000000  0.5130050000000 1.0
C      1  0.4702490000000  0.5059890000000  0.4862870000000 1.0
END
