TITL C-154529-4242-3 -3.45637219870656 125000 -311.218582080912 0 0 47 (C1) n - 1
REM
REM in /rds/project/t2_vol4/rds-t2-cs072/BORA/CARBON/from-Arr/AIRSS/Generating-Clusters/GAP-ML-2020/Higher-Symm/SD-CG/HFTN-CG
REM
REM
REM
REM
REM
REM ./C.cell (b20cbc046b6831c77cfcea5457e17084)
REM AIRSS Version 0.9.1 bugfix July 2018 build 013d7b7c2542+ Fri, 06 Jul 2018 19:26:36 +0100
REM compiler GCC version 9.3.0
REM options -cpp -mtune=generic -march=x86-64 -g -O0
REM seed -9550175 398080502 29471620 -557827744 1270497438 58548152 -1684877151 18622780 1432338386 407920704 425299520 2917455 540777516 1585230076 871397097 1412245544 239863975 -635475275 -114955770 -1661014841 1331490046 1503628249 977555203 415460296 2053305531 2052997958 -1837731173 389374330 1936632153 -1932523001 -972610197 277101617 1603448097
REM
CELL 1.54180   50.00000   50.00000   50.00000   90.00000   90.00000   90.00000
LATT -1
SFAC C  
C      1  0.4922710000000  0.4493030000000  0.5387440000000 1.0
C      1  0.4805990000000  0.5599110000000  0.5252520000000 1.0
C      1  0.4887270000000  0.4923620000000  0.4343170000000 1.0
C      1  0.5200290000000  0.4478950000000  0.5398170000000 1.0
C      1  0.5082550000000  0.5595840000000  0.5235540000000 1.0
C      1  0.5162460000000  0.4909630000000  0.4365290000000 1.0
C      1  0.5160140000000  0.5271200000000  0.4966550000000 1.0
C      1  0.5163260000000  0.4842370000000  0.4791730000000 1.0
C      1  0.5187730000000  0.4901680000000  0.5253290000000 1.0
C      1  0.4843770000000  0.5259160000000  0.4960000000000 1.0
C      1  0.4849110000000  0.4830290000000  0.4771780000000 1.0
C      1  0.4864860000000  0.4891650000000  0.5232950000000 1.0
C      1  0.5093550000000  0.4452500000000  0.4637140000000 1.0
C      1  0.5181600000000  0.4829160000000  0.5742450000000 1.0
C      1  0.5019360000000  0.5589460000000  0.4705800000000 1.0
C      1  0.4879300000000  0.4449790000000  0.4467360000000 1.0
C      1  0.4957700000000  0.4957890000000  0.5650480000000 1.0
C      1  0.4787560000000  0.5717030000000  0.4777700000000 1.0
C      1  0.4727370000000  0.5096430000000  0.4748500000000 1.0
C      1  0.4753120000000  0.4699040000000  0.5018590000000 1.0
C      1  0.4719190000000  0.5147950000000  0.5202100000000 1.0
C      1  0.5287740000000  0.5117130000000  0.4752470000000 1.0
C      1  0.5316130000000  0.4753150000000  0.5036480000000 1.0
C      1  0.5274080000000  0.5181610000000  0.5234270000000 1.0
C      1  0.5594250000000  0.4843600000000  0.4960660000000 1.0
C      1  0.5558700000000  0.5208320000000  0.5238530000000 1.0
C      1  0.5567590000000  0.5063060000000  0.4802790000000 1.0
C      1  0.4470280000000  0.4675560000000  0.5028970000000 1.0
C      1  0.4442190000000  0.5118200000000  0.5112180000000 1.0
C      1  0.4436500000000  0.5102550000000  0.4836890000000 1.0
C      1  0.5276830000000  0.4472580000000  0.5110620000000 1.0
C      1  0.5145740000000  0.5372140000000  0.5411840000000 1.0
C      1  0.5221640000000  0.5180790000000  0.4480100000000 1.0
C      1  0.4880500000000  0.4451300000000  0.5101820000000 1.0
C      1  0.4754680000000  0.5350010000000  0.5408300000000 1.0
C      1  0.4813540000000  0.5172550000000  0.4478380000000 1.0
C      1  0.5183400000000  0.5555370000000  0.4956880000000 1.0
C      1  0.5245410000000  0.4694550000000  0.4554680000000 1.0
C      1  0.5274620000000  0.4738360000000  0.5502080000000 1.0
C      1  0.4721160000000  0.5551260000000  0.4980610000000 1.0
C      1  0.4785500000000  0.4704630000000  0.4501300000000 1.0
C      1  0.4816610000000  0.4757060000000  0.5480980000000 1.0
C      1  0.4951350000000  0.5242290000000  0.5583050000000 1.0
C      1  0.5089510000000  0.4369710000000  0.4918780000000 1.0
C      1  0.5015690000000  0.5380210000000  0.4498330000000 1.0
C      1  0.5706480000000  0.5099970000000  0.5047980000000 1.0
C      1  0.4323220000000  0.4894420000000  0.4998230000000 1.0
END
