TITL C-150254-3444-5 -41.1531456877656 125000 -228.786066226337 0 0 35 (C3) n - 1
REM
REM in /rds/project/t2_vol4/rds-t2-cs072/BORA/CARBON/from-Arr/AIRSS/Generating-Clusters/GAP-ML-2020/Higher-Symm/SD-CG/HFTN-CG
REM
REM
REM
REM
REM
REM ./C.cell (b20cbc046b6831c77cfcea5457e17084)
REM AIRSS Version 0.9.1 bugfix July 2018 build 013d7b7c2542+ Fri, 06 Jul 2018 19:26:36 +0100
REM compiler GCC version 9.3.0
REM options -cpp -mtune=generic -march=x86-64 -g -O0
REM seed -1641164530 80365318 897491265 -810364780 -1744385050 331308503 -1745999266 -1785971095 -1038341209 878236111 -1935725337 1317282552 -1306078450 1906843330 -1964559743 1537791671 1874544314 1287381069 -440726129 -2043796273 1532272570 1598101799 -455381532 -887927609 -699870081 -1161086145 969630517 -858757499 -2048506349 1983885090 -1128007984 -2117864640 -681140263
REM
CELL 1.54180   50.00000   50.00000   50.00000   90.00000   90.00000   90.00000
LATT -1
SFAC C  
C      1  0.4669860000000  0.4701290000000  0.5355850000000 1.0
C      1  0.4932390000000  0.5464550000000  0.5336030000000 1.0
C      1  0.5462050000000  0.4855210000000  0.5331270000000 1.0
C      1  0.4988090000000  0.4719220000000  0.5014870000000 1.0
C      1  0.4779770000000  0.5163770000000  0.5013380000000 1.0
C      1  0.5268750000000  0.5121780000000  0.5000460000000 1.0
C      1  0.5557420000000  0.4622810000000  0.5321180000000 1.0
C      1  0.4420700000000  0.4734430000000  0.5351000000000 1.0
C      1  0.5085250000000  0.5663260000000  0.5317280000000 1.0
C      1  0.5081870000000  0.4245240000000  0.4896340000000 1.0
C      1  0.4319140000000  0.5313690000000  0.4900070000000 1.0
C      1  0.5625280000000  0.5439760000000  0.4861640000000 1.0
C      1  0.5304220000000  0.5696760000000  0.5164670000000 1.0
C      1  0.5473000000000  0.4409260000000  0.5181060000000 1.0
C      1  0.4273960000000  0.4907300000000  0.5206280000000 1.0
C      1  0.5293740000000  0.4292240000000  0.5046170000000 1.0
C      1  0.4258290000000  0.5114250000000  0.5061530000000 1.0
C      1  0.5487320000000  0.5599880000000  0.5019360000000 1.0
C      1  0.4840800000000  0.5212600000000  0.5288160000000 1.0
C      1  0.5288170000000  0.5057970000000  0.5278240000000 1.0
C      1  0.4930780000000  0.4747810000000  0.5293270000000 1.0
C      1  0.4926610000000  0.4467170000000  0.4846710000000 1.0
C      1  0.4587470000000  0.5334690000000  0.4841940000000 1.0
C      1  0.5508010000000  0.5194360000000  0.4818610000000 1.0
C      1  0.4798390000000  0.4901010000000  0.4902740000000 1.0
C      1  0.5028800000000  0.5231570000000  0.4890910000000 1.0
C      1  0.5199880000000  0.4866570000000  0.4892130000000 1.0
C      1  0.5252550000000  0.4897390000000  0.4606210000000 1.0
C      1  0.4790940000000  0.4826150000000  0.4620230000000 1.0
C      1  0.4959880000000  0.5261660000000  0.4608390000000 1.0
C      1  0.5499570000000  0.5014540000000  0.4612250000000 1.0
C      1  0.4769360000000  0.4554270000000  0.4640120000000 1.0
C      1  0.4735680000000  0.5417120000000  0.4626920000000 1.0
C      1  0.4998190000000  0.4993340000000  0.4506090000000 1.0
C      1  0.5021320000000  0.5006950000000  0.5337080000000 1.0
END
