TITL C-154525-3353-5 0.0912963994518941 125000 -615.659681595628 0 0 87 (C1) n - 1
REM
REM in /rds/project/t2_vol4/rds-t2-cs072/BORA/CARBON/from-Arr/AIRSS/Generating-Clusters/GAP-ML-2020/Higher-Symm/SD-CG/HFTN-CG
REM
REM
REM
REM
REM
REM ./C.cell (b20cbc046b6831c77cfcea5457e17084)
REM AIRSS Version 0.9.1 bugfix July 2018 build 013d7b7c2542+ Fri, 06 Jul 2018 19:26:36 +0100
REM compiler GCC version 9.3.0
REM options -cpp -mtune=generic -march=x86-64 -g -O0
REM seed -1808522746 -1429602389 -173027939 976110004 1662943641 984465368 1977457901 -692647864 657777446 1559782526 -51782759 -115138360 -1239149368 -1490843861 1859441890 574675621 -75167423 -1414258633 -238500677 -865169326 -1079482307 266000227 -2112747596 324654681 1782269370 1140055261 -236571217 -1953715517 -1672317221 267682562 348421255 645650697 -396334548
REM
CELL 1.54180   50.00000   50.00000   50.00000   90.00000   90.00000   90.00000
LATT -1
SFAC C  
C      1  0.4788300000000  0.4976830000000  0.5796370000000 1.0
C      1  0.5012540000000  0.4783030000000  0.5791860000000 1.0
C      1  0.5207330000000  0.5003960000000  0.5791330000000 1.0
C      1  0.4983170000000  0.5197120000000  0.5788490000000 1.0
C      1  0.4784940000000  0.4980000000000  0.4251850000000 1.0
C      1  0.5015960000000  0.4801470000000  0.4239840000000 1.0
C      1  0.5207610000000  0.5028850000000  0.4255550000000 1.0
C      1  0.4976230000000  0.5208720000000  0.4243190000000 1.0
C      1  0.5010140000000  0.4288210000000  0.5227750000000 1.0
C      1  0.5740760000000  0.4993280000000  0.5257520000000 1.0
C      1  0.5000920000000  0.5676790000000  0.5215280000000 1.0
C      1  0.4255320000000  0.4996470000000  0.5262950000000 1.0
C      1  0.5013300000000  0.4284760000000  0.4754900000000 1.0
C      1  0.5768530000000  0.4946210000000  0.4780290000000 1.0
C      1  0.4988920000000  0.5744710000000  0.4745410000000 1.0
C      1  0.4237180000000  0.5043030000000  0.4786980000000 1.0
C      1  0.4882130000000  0.4389490000000  0.5467350000000 1.0
C      1  0.5623340000000  0.4884530000000  0.5497970000000 1.0
C      1  0.5127450000000  0.5582680000000  0.5454620000000 1.0
C      1  0.4374980000000  0.5104490000000  0.5501640000000 1.0
C      1  0.4904310000000  0.4369240000000  0.4501860000000 1.0
C      1  0.5621310000000  0.4874270000000  0.4537620000000 1.0
C      1  0.5098630000000  0.5646960000000  0.4492120000000 1.0
C      1  0.4378140000000  0.5125780000000  0.4544530000000 1.0
C      1  0.5720860000000  0.4525500000000  0.5059950000000 1.0
C      1  0.5440530000000  0.5682400000000  0.4982650000000 1.0
C      1  0.4265010000000  0.5460290000000  0.5067280000000 1.0
C      1  0.4564860000000  0.4312660000000  0.4985620000000 1.0
C      1  0.5772760000000  0.4335390000000  0.4854370000000 1.0
C      1  0.5536870000000  0.5635520000000  0.4727140000000 1.0
C      1  0.4239940000000  0.5638880000000  0.4855230000000 1.0
C      1  0.4467360000000  0.4360480000000  0.4728970000000 1.0
C      1  0.5530540000000  0.5345340000000  0.4433620000000 1.0
C      1  0.4660970000000  0.5476650000000  0.4352080000000 1.0
C      1  0.4471680000000  0.4658330000000  0.4436180000000 1.0
C      1  0.5339420000000  0.4522790000000  0.4358110000000 1.0
C      1  0.5495800000000  0.5317260000000  0.5599720000000 1.0
C      1  0.4687090000000  0.5456930000000  0.5631730000000 1.0
C      1  0.4509450000000  0.4665810000000  0.5605620000000 1.0
C      1  0.5319140000000  0.4535980000000  0.5652970000000 1.0
C      1  0.4229630000000  0.4767220000000  0.4856100000000 1.0
C      1  0.5266590000000  0.4401640000000  0.4856350000000 1.0
C      1  0.5781920000000  0.5224720000000  0.4848630000000 1.0
C      1  0.4723020000000  0.5692220000000  0.4833830000000 1.0
C      1  0.4329910000000  0.4734080000000  0.5133850000000 1.0
C      1  0.5282960000000  0.4334050000000  0.5143980000000 1.0
C      1  0.5669590000000  0.5256000000000  0.5120830000000 1.0
C      1  0.4742340000000  0.5567080000000  0.5107230000000 1.0
C      1  0.4793070000000  0.5252170000000  0.5011380000000 1.0
C      1  0.4654600000000  0.4830860000000  0.5078880000000 1.0
C      1  0.5247770000000  0.4900200000000  0.5108830000000 1.0
C      1  0.5349340000000  0.5155140000000  0.5035430000000 1.0
C      1  0.4964140000000  0.5172370000000  0.4794310000000 1.0
C      1  0.4746540000000  0.4753040000000  0.4840060000000 1.0
C      1  0.5204510000000  0.4740800000000  0.4877800000000 1.0
C      1  0.5215970000000  0.5267100000000  0.4833130000000 1.0
C      1  0.4928010000000  0.5481840000000  0.4325000000000 1.0
C      1  0.4527470000000  0.4929270000000  0.4378660000000 1.0
C      1  0.5073140000000  0.4533380000000  0.4330380000000 1.0
C      1  0.5469170000000  0.5073310000000  0.4378750000000 1.0
C      1  0.4955580000000  0.5453390000000  0.5652930000000 1.0
C      1  0.4527270000000  0.4924530000000  0.5672620000000 1.0
C      1  0.5049450000000  0.4522890000000  0.5666740000000 1.0
C      1  0.5466000000000  0.5059830000000  0.5667770000000 1.0
C      1  0.4472510000000  0.5378460000000  0.5491050000000 1.0
C      1  0.4601930000000  0.4468340000000  0.5447960000000 1.0
C      1  0.5528660000000  0.4607940000000  0.5499180000000 1.0
C      1  0.5411070000000  0.5516920000000  0.5441770000000 1.0
C      1  0.4455680000000  0.5400320000000  0.4503270000000 1.0
C      1  0.4631210000000  0.4415940000000  0.4495620000000 1.0
C      1  0.5549300000000  0.4599880000000  0.4501950000000 1.0
C      1  0.5369580000000  0.5588190000000  0.4494720000000 1.0
C      1  0.4450000000000  0.4465230000000  0.5203200000000 1.0
C      1  0.5521730000000  0.4449870000000  0.5258120000000 1.0
C      1  0.5556720000000  0.5525580000000  0.5196280000000 1.0
C      1  0.4477110000000  0.5520250000000  0.5246370000000 1.0
C      1  0.4302330000000  0.4588480000000  0.4664300000000 1.0
C      1  0.5543870000000  0.4411000000000  0.4726380000000 1.0
C      1  0.5701340000000  0.5407480000000  0.4661150000000 1.0
C      1  0.4470990000000  0.5620400000000  0.4702130000000 1.0
C      1  0.4208460000000  0.5176260000000  0.5041060000000 1.0
C      1  0.4850220000000  0.4243150000000  0.4988450000000 1.0
C      1  0.5787480000000  0.4809980000000  0.5035000000000 1.0
C      1  0.5155810000000  0.5754110000000  0.4986670000000 1.0
C      1  0.4979870000000  0.4862970000000  0.4763900000000 1.0
C      1  0.5049750000000  0.4958110000000  0.5284610000000 1.0
C      1  0.4801370000000  0.5038990000000  0.5202550000000 1.0
END
