TITL C-154525-3353-4 -1.15053484738889 125000 -552.141641405317 0 0 81 (C1) n - 1
REM
REM in /rds/project/t2_vol4/rds-t2-cs072/BORA/CARBON/from-Arr/AIRSS/Generating-Clusters/GAP-ML-2020/Higher-Symm/SD-CG/HFTN-CG
REM
REM
REM
REM
REM
REM ./C.cell (b20cbc046b6831c77cfcea5457e17084)
REM AIRSS Version 0.9.1 bugfix July 2018 build 013d7b7c2542+ Fri, 06 Jul 2018 19:26:36 +0100
REM compiler GCC version 9.3.0
REM options -cpp -mtune=generic -march=x86-64 -g -O0
REM seed -916326460 47002481 7345979 1083572518 1809227391 -465427644 -798634638 -1150746536 -757476956 -945477759 1488547728 -834275122 1561896599 862538198 1826949660 1970090944 1314613975 -733546829 -217881749 -2039320650 1796628566 -1511019192 -1307798185 337071043 -1108462114 -795884407 -363708807 -335768212 361581294 -1229126859 -2051348428 -1318943335 501705114
REM
CELL 1.54180   50.00000   50.00000   50.00000   90.00000   90.00000   90.00000
LATT -1
SFAC C  
C      1  0.4486840000000  0.4633910000000  0.4449140000000 1.0
C      1  0.5373160000000  0.4718850000000  0.4580780000000 1.0
C      1  0.4997780000000  0.5599990000000  0.4707960000000 1.0
C      1  0.4530320000000  0.4828160000000  0.5362900000000 1.0
C      1  0.5487610000000  0.4737970000000  0.5271020000000 1.0
C      1  0.5042760000000  0.5481720000000  0.5418980000000 1.0
C      1  0.4535080000000  0.5156950000000  0.4595170000000 1.0
C      1  0.5359760000000  0.5326140000000  0.4538050000000 1.0
C      1  0.4992900000000  0.4368710000000  0.4448310000000 1.0
C      1  0.4476430000000  0.5336640000000  0.5512920000000 1.0
C      1  0.5521430000000  0.5263820000000  0.5525350000000 1.0
C      1  0.5076010000000  0.4529950000000  0.5402600000000 1.0
C      1  0.4978400000000  0.5337230000000  0.4853890000000 1.0
C      1  0.4743170000000  0.4844680000000  0.4831630000000 1.0
C      1  0.5255960000000  0.4897700000000  0.4811370000000 1.0
C      1  0.4960410000000  0.5315170000000  0.5158780000000 1.0
C      1  0.4755900000000  0.4844570000000  0.5135500000000 1.0
C      1  0.5286120000000  0.4879940000000  0.5111000000000 1.0
C      1  0.5013530000000  0.4701040000000  0.4832130000000 1.0
C      1  0.4739550000000  0.5159150000000  0.4831350000000 1.0
C      1  0.5238280000000  0.5189510000000  0.4806230000000 1.0
C      1  0.5022630000000  0.4717980000000  0.5146020000000 1.0
C      1  0.4714040000000  0.5148250000000  0.5131330000000 1.0
C      1  0.5247680000000  0.5187930000000  0.5128160000000 1.0
C      1  0.5916130000000  0.4704770000000  0.5057740000000 1.0
C      1  0.5004750000000  0.5989830000000  0.5276220000000 1.0
C      1  0.4308830000000  0.4488840000000  0.5058310000000 1.0
C      1  0.5813810000000  0.4683120000000  0.4820600000000 1.0
C      1  0.4991540000000  0.5998840000000  0.5018360000000 1.0
C      1  0.4327030000000  0.4384400000000  0.4826140000000 1.0
C      1  0.5788500000000  0.5388410000000  0.5137330000000 1.0
C      1  0.4976990000000  0.4150660000000  0.5065840000000 1.0
C      1  0.4315020000000  0.5586840000000  0.5132150000000 1.0
C      1  0.5718410000000  0.5442220000000  0.4894380000000 1.0
C      1  0.4895200000000  0.4095220000000  0.4828770000000 1.0
C      1  0.4270030000000  0.5472610000000  0.4906210000000 1.0
C      1  0.4886730000000  0.4580070000000  0.5627860000000 1.0
C      1  0.5467870000000  0.5079030000000  0.5734450000000 1.0
C      1  0.4652790000000  0.5350520000000  0.5730960000000 1.0
C      1  0.4889170000000  0.4470870000000  0.4206210000000 1.0
C      1  0.5396580000000  0.5137130000000  0.4314020000000 1.0
C      1  0.4666150000000  0.5250790000000  0.4339090000000 1.0
C      1  0.4932420000000  0.5428740000000  0.5693970000000 1.0
C      1  0.5412990000000  0.4780860000000  0.5719980000000 1.0
C      1  0.4650690000000  0.4741490000000  0.5615490000000 1.0
C      1  0.4914530000000  0.5408400000000  0.4297030000000 1.0
C      1  0.5392950000000  0.4851130000000  0.4321950000000 1.0
C      1  0.4628810000000  0.4608920000000  0.4208210000000 1.0
C      1  0.4352540000000  0.4627470000000  0.5267630000000 1.0
C      1  0.5775320000000  0.4796570000000  0.5275380000000 1.0
C      1  0.4917010000000  0.5768020000000  0.5415830000000 1.0
C      1  0.4429870000000  0.4381570000000  0.4574320000000 1.0
C      1  0.5652600000000  0.4678260000000  0.4626230000000 1.0
C      1  0.4971120000000  0.5835430000000  0.4823360000000 1.0
C      1  0.4443550000000  0.5591160000000  0.5374950000000 1.0
C      1  0.5768410000000  0.5248930000000  0.5375840000000 1.0
C      1  0.5035620000000  0.4274510000000  0.5281000000000 1.0
C      1  0.4328550000000  0.5331040000000  0.4699950000000 1.0
C      1  0.5589830000000  0.5434120000000  0.4669940000000 1.0
C      1  0.4825370000000  0.4173910000000  0.4576440000000 1.0
C      1  0.5230290000000  0.4824680000000  0.4081830000000 1.0
C      1  0.4982830000000  0.5247580000000  0.4063980000000 1.0
C      1  0.4735840000000  0.4821870000000  0.4042920000000 1.0
C      1  0.5211410000000  0.4803450000000  0.5929150000000 1.0
C      1  0.5021950000000  0.5251340000000  0.5907070000000 1.0
C      1  0.4718530000000  0.4872880000000  0.5865220000000 1.0
C      1  0.5227570000000  0.5122210000000  0.4081090000000 1.0
C      1  0.5000310000000  0.4681530000000  0.4037370000000 1.0
C      1  0.4732680000000  0.5090550000000  0.4104600000000 1.0
C      1  0.5249540000000  0.5098380000000  0.5930270000000 1.0
C      1  0.4961900000000  0.4697860000000  0.5880600000000 1.0
C      1  0.4743850000000  0.5143220000000  0.5917860000000 1.0
C      1  0.5106360000000  0.5503630000000  0.4466730000000 1.0
C      1  0.5357460000000  0.4635800000000  0.5488860000000 1.0
C      1  0.5136020000000  0.4530280000000  0.4626670000000 1.0
C      1  0.5318690000000  0.5368120000000  0.5356900000000 1.0
C      1  0.4497320000000  0.5126750000000  0.5331140000000 1.0
C      1  0.4533940000000  0.4847590000000  0.4623420000000 1.0
C      1  0.4648240000000  0.5755040000000  0.5456720000000 1.0
C      1  0.4565690000000  0.4158500000000  0.4465910000000 1.0
C      1  0.5876100000000  0.4998080000000  0.5441370000000 1.0
END
