TITL C-150276-3442-9 148.787864378022 125000 -182.568145855729 0 0 28 (C1) n - 1
REM
REM in /rds/project/t2_vol4/rds-t2-cs072/BORA/CARBON/from-Arr/AIRSS/Generating-Clusters/GAP-ML-2020/Higher-Symm/SD-CG/HFTN-CG
REM
REM
REM
REM
REM
REM ./C.cell (b20cbc046b6831c77cfcea5457e17084)
REM AIRSS Version 0.9.1 bugfix July 2018 build 013d7b7c2542+ Fri, 06 Jul 2018 19:26:36 +0100
REM compiler GCC version 9.3.0
REM options -cpp -mtune=generic -march=x86-64 -g -O0
REM seed 412578534 671803231 -594102437 -1372528964 2113830519 -1985107845 -177641416 1024636713 1499271971 -1151150807 1791278774 -1922972992 1349781743 -1442988039 -983463425 209149581 2061938774 -127373664 261351052 4790755 -1770071801 1155477622 -298646288 -1076501745 -145452822 -2016722604 -1122468850 -299902996 -1542059727 1271360332 -120866656 1048467110 -1710483956
REM
CELL 1.54180   50.00000   50.00000   50.00000   90.00000   90.00000   90.00000
LATT -1
SFAC C  
C      1  0.4439310000000  0.4851150000000  0.4782210000000 1.0
C      1  0.4723730000000  0.5458620000000  0.4815060000000 1.0
C      1  0.5396950000000  0.5494960000000  0.4860490000000 1.0
C      1  0.5496700000000  0.4878030000000  0.4740530000000 1.0
C      1  0.4968900000000  0.4482080000000  0.4879690000000 1.0
C      1  0.5353030000000  0.5023410000000  0.5190530000000 1.0
C      1  0.5261560000000  0.4744420000000  0.5244000000000 1.0
C      1  0.4535110000000  0.4874700000000  0.5259670000000 1.0
C      1  0.4669820000000  0.5134280000000  0.5229520000000 1.0
C      1  0.5165980000000  0.5249370000000  0.5228280000000 1.0
C      1  0.5567600000000  0.5282390000000  0.4809190000000 1.0
C      1  0.5334880000000  0.4650430000000  0.4762310000000 1.0
C      1  0.4687580000000  0.4536150000000  0.4887510000000 1.0
C      1  0.4466450000000  0.5132740000000  0.4774100000000 1.0
C      1  0.4987490000000  0.5545100000000  0.4843010000000 1.0
C      1  0.4560200000000  0.5345880000000  0.4594330000000 1.0
C      1  0.5211620000000  0.5579430000000  0.4658160000000 1.0
C      1  0.5533870000000  0.5117420000000  0.4575710000000 1.0
C      1  0.5108290000000  0.4516270000000  0.4633390000000 1.0
C      1  0.4568850000000  0.4629860000000  0.4642520000000 1.0
C      1  0.5205850000000  0.4601020000000  0.5021200000000 1.0
C      1  0.4515860000000  0.4730640000000  0.5037480000000 1.0
C      1  0.4599910000000  0.5266910000000  0.4994030000000 1.0
C      1  0.5177890000000  0.5464190000000  0.5050160000000 1.0
C      1  0.5538140000000  0.5044960000000  0.4975200000000 1.0
C      1  0.5069390000000  0.4861920000000  0.5741210000000 1.0
C      1  0.4965760000000  0.5026000000000  0.5582050000000 1.0
C      1  0.4919060000000  0.5180670000000  0.5365390000000 1.0
END
