TITL C-150274-3393-2 55.9375532953405 125000 -1138.97167170797 0 0 164 (C1) n - 1
REM
REM in /rds/project/t2_vol4/rds-t2-cs072/BORA/CARBON/from-Arr/AIRSS/Generating-Clusters/GAP-ML-2020/Higher-Symm/SD-CG/HFTN-CG
REM
REM
REM
REM
REM
REM ./C.cell (b20cbc046b6831c77cfcea5457e17084)
REM AIRSS Version 0.9.1 bugfix July 2018 build 013d7b7c2542+ Fri, 06 Jul 2018 19:26:36 +0100
REM compiler GCC version 9.3.0
REM options -cpp -mtune=generic -march=x86-64 -g -O0
REM seed -1531820396 -614830692 -1359428826 -1802455209 8057847 -189074780 -1410104811 -1211384544 1523600673 1233079880 -377100363 -2082870807 -2105750404 1508857886 41909339 -1609853963 654415755 644417605 1263291467 1989673267 -1671684991 -1288268766 -989178005 1211877266 -42648164 -370439498 1188759437 -1151792742 970396429 -523433730 -866523263 1597106603 818050290
REM
CELL 1.54180   50.00000   50.00000   50.00000   90.00000   90.00000   90.00000
LATT -1
SFAC C  
C      1  0.5343290000000  0.4932680000000  0.5066980000000 1.0
C      1  0.5256360000000  0.5224980000000  0.5052940000000 1.0
C      1  0.4964360000000  0.5331380000000  0.5047270000000 1.0
C      1  0.4689000000000  0.5204690000000  0.5042270000000 1.0
C      1  0.4641400000000  0.4849970000000  0.5066110000000 1.0
C      1  0.4867680000000  0.4646660000000  0.5077030000000 1.0
C      1  0.5176530000000  0.4678120000000  0.5073770000000 1.0
C      1  0.4384150000000  0.5074530000000  0.4194240000000 1.0
C      1  0.4579420000000  0.4559720000000  0.4185020000000 1.0
C      1  0.5106760000000  0.4385940000000  0.4184290000000 1.0
C      1  0.5564440000000  0.4699260000000  0.4199710000000 1.0
C      1  0.5610530000000  0.5253510000000  0.4182060000000 1.0
C      1  0.5202680000000  0.5649630000000  0.4171990000000 1.0
C      1  0.4646530000000  0.5557510000000  0.4175590000000 1.0
C      1  0.6022590000000  0.4994990000000  0.5296980000000 1.0
C      1  0.5820190000000  0.5712190000000  0.5206420000000 1.0
C      1  0.4804120000000  0.5992110000000  0.5297230000000 1.0
C      1  0.4117470000000  0.5664660000000  0.5249490000000 1.0
C      1  0.3872730000000  0.4596240000000  0.5205430000000 1.0
C      1  0.4489960000000  0.4011770000000  0.5179700000000 1.0
C      1  0.5594450000000  0.4047260000000  0.5224870000000 1.0
C      1  0.5173350000000  0.4660790000000  0.4687190000000 1.0
C      1  0.5354140000000  0.4895710000000  0.4682520000000 1.0
C      1  0.5314030000000  0.5186160000000  0.4664710000000 1.0
C      1  0.5069210000000  0.5300160000000  0.4592590000000 1.0
C      1  0.4940280000000  0.5096860000000  0.4459670000000 1.0
C      1  0.4460800000000  0.4896240000000  0.4623750000000 1.0
C      1  0.4889380000000  0.4657690000000  0.4652980000000 1.0
C      1  0.4209400000000  0.5309540000000  0.4905570000000 1.0
C      1  0.4261820000000  0.4578410000000  0.4878680000000 1.0
C      1  0.4870460000000  0.4187710000000  0.4856290000000 1.0
C      1  0.5578700000000  0.4384630000000  0.4860120000000 1.0
C      1  0.5806940000000  0.5052940000000  0.4848730000000 1.0
C      1  0.5469330000000  0.5673070000000  0.4844110000000 1.0
C      1  0.4777770000000  0.5744510000000  0.4850000000000 1.0
C      1  0.5596830000000  0.4366470000000  0.4565550000000 1.0
C      1  0.5869840000000  0.5062510000000  0.4559880000000 1.0
C      1  0.5497720000000  0.5714560000000  0.4553120000000 1.0
C      1  0.4767950000000  0.5820850000000  0.4569060000000 1.0
C      1  0.4242010000000  0.5331050000000  0.4614710000000 1.0
C      1  0.4299150000000  0.4619960000000  0.4577550000000 1.0
C      1  0.4883200000000  0.4158010000000  0.4555590000000 1.0
C      1  0.5196200000000  0.4707670000000  0.5560170000000 1.0
C      1  0.5344150000000  0.4959390000000  0.5551450000000 1.0
C      1  0.5249010000000  0.5234900000000  0.5546360000000 1.0
C      1  0.4965300000000  0.5320240000000  0.5546550000000 1.0
C      1  0.4731060000000  0.5155010000000  0.5530230000000 1.0
C      1  0.4689240000000  0.4870730000000  0.5569060000000 1.0
C      1  0.4904070000000  0.4665650000000  0.5566420000000 1.0
C      1  0.5786590000000  0.5296460000000  0.4406680000000 1.0
C      1  0.5264740000000  0.5808340000000  0.4409220000000 1.0
C      1  0.4561350000000  0.5688110000000  0.4420470000000 1.0
C      1  0.4258870000000  0.5073210000000  0.4467600000000 1.0
C      1  0.4453960000000  0.4429520000000  0.4405180000000 1.0
C      1  0.5126050000000  0.4197950000000  0.4406980000000 1.0
C      1  0.5719780000000  0.4587130000000  0.4422900000000 1.0
C      1  0.5729790000000  0.5785300000000  0.4946360000000 1.0
C      1  0.4841160000000  0.6002170000000  0.4998880000000 1.0
C      1  0.4075880000000  0.5555470000000  0.4992080000000 1.0
C      1  0.3975290000000  0.4574930000000  0.4944360000000 1.0
C      1  0.4672040000000  0.3981220000000  0.4945960000000 1.0
C      1  0.5615930000000  0.4106760000000  0.4950670000000 1.0
C      1  0.6042040000000  0.4941230000000  0.4996450000000 1.0
C      1  0.5457390000000  0.5355240000000  0.4866510000000 1.0
C      1  0.5004710000000  0.5542450000000  0.4849170000000 1.0
C      1  0.4497980000000  0.5367760000000  0.4901410000000 1.0
C      1  0.4387500000000  0.4856250000000  0.4910950000000 1.0
C      1  0.4749530000000  0.4471990000000  0.4871430000000 1.0
C      1  0.5269390000000  0.4460760000000  0.4887000000000 1.0
C      1  0.5568360000000  0.4858820000000  0.4880090000000 1.0
C      1  0.4711370000000  0.4908210000000  0.3906650000000 1.0
C      1  0.4916850000000  0.4714560000000  0.3911360000000 1.0
C      1  0.5195200000000  0.4754720000000  0.3919480000000 1.0
C      1  0.5332400000000  0.4998650000000  0.3920580000000 1.0
C      1  0.5231180000000  0.5262750000000  0.3913950000000 1.0
C      1  0.4962250000000  0.5351880000000  0.3902680000000 1.0
C      1  0.4727110000000  0.5190780000000  0.3897370000000 1.0
C      1  0.4453860000000  0.4418870000000  0.5020640000000 1.0
C      1  0.5108060000000  0.4220740000000  0.5016260000000 1.0
C      1  0.5685990000000  0.4599250000000  0.5019620000000 1.0
C      1  0.5716410000000  0.5274900000000  0.4994990000000 1.0
C      1  0.5234370000000  0.5723910000000  0.4998000000000 1.0
C      1  0.4566650000000  0.5628340000000  0.5002690000000 1.0
C      1  0.4197600000000  0.5059990000000  0.5054580000000 1.0
C      1  0.5275490000000  0.4545820000000  0.5316920000000 1.0
C      1  0.5509580000000  0.4927020000000  0.5304720000000 1.0
C      1  0.5372680000000  0.5349200000000  0.5298600000000 1.0
C      1  0.4944990000000  0.5487010000000  0.5296230000000 1.0
C      1  0.4560040000000  0.5262450000000  0.5327580000000 1.0
C      1  0.4511950000000  0.4808830000000  0.5332020000000 1.0
C      1  0.4828150000000  0.4499070000000  0.5327390000000 1.0
C      1  0.4318530000000  0.5057780000000  0.5331310000000 1.0
C      1  0.4521850000000  0.4496550000000  0.5316780000000 1.0
C      1  0.5068630000000  0.4307620000000  0.5305660000000 1.0
C      1  0.5578650000000  0.4612640000000  0.5297400000000 1.0
C      1  0.5644670000000  0.5201510000000  0.5274010000000 1.0
C      1  0.5240680000000  0.5621790000000  0.5276910000000 1.0
C      1  0.4648990000000  0.5564840000000  0.5286860000000 1.0
C      1  0.4671850000000  0.5687580000000  0.5727130000000 1.0
C      1  0.4242200000000  0.4848130000000  0.5750050000000 1.0
C      1  0.4590480000000  0.4459600000000  0.5785470000000 1.0
C      1  0.5158560000000  0.4306660000000  0.5759920000000 1.0
C      1  0.5631470000000  0.4667110000000  0.5752510000000 1.0
C      1  0.5684530000000  0.5238230000000  0.5727180000000 1.0
C      1  0.5232390000000  0.5660400000000  0.5733200000000 1.0
C      1  0.6073030000000  0.4715240000000  0.4805920000000 1.0
C      1  0.5900370000000  0.5633690000000  0.4774510000000 1.0
C      1  0.5058330000000  0.6099690000000  0.4803300000000 1.0
C      1  0.4205380000000  0.5740220000000  0.4801690000000 1.0
C      1  0.3920810000000  0.4817210000000  0.4791980000000 1.0
C      1  0.4483550000000  0.4048220000000  0.4730450000000 1.0
C      1  0.5413430000000  0.3992110000000  0.4786750000000 1.0
C      1  0.4076010000000  0.4828900000000  0.4557770000000 1.0
C      1  0.4591480000000  0.4193070000000  0.4513820000000 1.0
C      1  0.5381840000000  0.4158340000000  0.4546770000000 1.0
C      1  0.5916050000000  0.4769210000000  0.4562250000000 1.0
C      1  0.5755490000000  0.5558340000000  0.4538030000000 1.0
C      1  0.5041800000000  0.5936020000000  0.4565850000000 1.0
C      1  0.4316270000000  0.5608850000000  0.4570790000000 1.0
C      1  0.5340990000000  0.4556060000000  0.5807370000000 1.0
C      1  0.5570620000000  0.4961100000000  0.5799380000000 1.0
C      1  0.5396620000000  0.5396360000000  0.5774630000000 1.0
C      1  0.4954360000000  0.5538310000000  0.5771040000000 1.0
C      1  0.4508790000000  0.5572930000000  0.5917530000000 1.0
C      1  0.4512380000000  0.4760080000000  0.5820380000000 1.0
C      1  0.4883970000000  0.4478260000000  0.5818840000000 1.0
C      1  0.3930080000000  0.4837430000000  0.5321190000000 1.0
C      1  0.4450460000000  0.4083000000000  0.5436990000000 1.0
C      1  0.5353810000000  0.3994560000000  0.5330530000000 1.0
C      1  0.5991970000000  0.4721700000000  0.5355150000000 1.0
C      1  0.5942080000000  0.5511200000000  0.5331350000000 1.0
C      1  0.5083270000000  0.6006210000000  0.5343590000000 1.0
C      1  0.4312450000000  0.5841650000000  0.5312530000000 1.0
C      1  0.4357100000000  0.5836800000000  0.5020790000000 1.0
C      1  0.3928650000000  0.4960570000000  0.5051990000000 1.0
C      1  0.4356070000000  0.4147220000000  0.4958200000000 1.0
C      1  0.5262340000000  0.3978830000000  0.5034250000000 1.0
C      1  0.5978590000000  0.4640850000000  0.5063730000000 1.0
C      1  0.5934150000000  0.5472540000000  0.5020850000000 1.0
C      1  0.5152030000000  0.6007230000000  0.5049850000000 1.0
C      1  0.4853450000000  0.4503950000000  0.4087990000000 1.0
C      1  0.5317450000000  0.4573180000000  0.4101400000000 1.0
C      1  0.5549930000000  0.4980190000000  0.4100020000000 1.0
C      1  0.5383190000000  0.5426710000000  0.4086190000000 1.0
C      1  0.4929050000000  0.5576910000000  0.4073030000000 1.0
C      1  0.4535520000000  0.5300560000000  0.4077520000000 1.0
C      1  0.4509780000000  0.4828680000000  0.4092900000000 1.0
C      1  0.4986250000000  0.5322750000000  0.5989960000000 1.0
C      1  0.4546140000000  0.5361240000000  0.6061260000000 1.0
C      1  0.4720650000000  0.4875820000000  0.6023380000000 1.0
C      1  0.4939470000000  0.4697790000000  0.6015930000000 1.0
C      1  0.5219980000000  0.4739100000000  0.6012280000000 1.0
C      1  0.5362330000000  0.4984490000000  0.6008350000000 1.0
C      1  0.5255140000000  0.5246940000000  0.5988760000000 1.0
C      1  0.5778530000000  0.4609100000000  0.5516460000000 1.0
C      1  0.5856660000000  0.5257530000000  0.5467020000000 1.0
C      1  0.5237790000000  0.5817060000000  0.5497820000000 1.0
C      1  0.4594250000000  0.5808940000000  0.5447460000000 1.0
C      1  0.4121770000000  0.4957880000000  0.5531720000000 1.0
C      1  0.4470740000000  0.4321250000000  0.5561570000000 1.0
C      1  0.5179340000000  0.4140550000000  0.5520860000000 1.0
C      1  0.4746780000000  0.5166010000000  0.6060300000000 1.0
C      1  0.4819450000000  0.4999060000000  0.4906150000000 1.0
C      1  0.4773190000000  0.4924960000000  0.4623730000000 1.0
END
