TITL C-154523-3086-10 -0.00834740840935866 125000 -28.2972593205541 0 0 5 (D2h) n - 1
REM
REM in /rds/project/t2_vol4/rds-t2-cs072/BORA/CARBON/from-Arr/AIRSS/Generating-Clusters/GAP-ML-2020/Higher-Symm/SD-CG/HFTN-CG
REM
REM
REM
REM
REM
REM ./C.cell (b20cbc046b6831c77cfcea5457e17084)
REM AIRSS Version 0.9.1 bugfix July 2018 build 013d7b7c2542+ Fri, 06 Jul 2018 19:26:36 +0100
REM compiler GCC version 9.3.0
REM options -cpp -mtune=generic -march=x86-64 -g -O0
REM seed -1418836594 -414450673 1383807199 2067812873 1615481553 -632891873 -1263264083 -578430719 1141399559 237599284 -1175349009 337905576 415615416 14224276 1036199704 -69541880 465808789 -1153188334 -1724913795 -448723560 -938488506 -1193034658 1802196828 -541201952 1063767641 238499731 -1049582186 -1921739599 -454503918 98080754 -208422956 1294794350 -94186969
REM
CELL 1.54180   50.00000   50.00000   50.00000   90.00000   90.00000   90.00000
LATT -1
SFAC C  
C      1  0.4896150000000  0.5251780000000  0.5042370000000 1.0
C      1  0.5153360000000  0.5251780000000  0.5025310000000 1.0
C      1  0.4896150000000  0.4737730000000  0.5042370000000 1.0
C      1  0.5153360000000  0.4737730000000  0.5025310000000 1.0
C      1  0.5024760000000  0.4994760000000  0.5033840000000 1.0
END
