TITL C-154518-3132-7 0.0862129441595479 125000 -565.192472061891 0 0 83 (C1) n - 1
REM
REM in /rds/project/t2_vol4/rds-t2-cs072/BORA/CARBON/from-Arr/AIRSS/Generating-Clusters/GAP-ML-2020/Higher-Symm/SD-CG/HFTN-CG
REM
REM
REM
REM
REM
REM ./C.cell (b20cbc046b6831c77cfcea5457e17084)
REM AIRSS Version 0.9.1 bugfix July 2018 build 013d7b7c2542+ Fri, 06 Jul 2018 19:26:36 +0100
REM compiler GCC version 9.3.0
REM options -cpp -mtune=generic -march=x86-64 -g -O0
REM seed -103137335 1669047675 -1441791721 -1509187561 -122743032 1037188535 1595115678 356753984 -622820530 1720391035 -457915940 640168500 1220624460 960867604 910420960 595929004 1957857330 -1332330881 -1009285830 -1254032538 -1661499620 -1455541287 1636582356 2076561974 1513116492 -1534620896 -627948866 1255559006 907948560 1805090855 254161944 273794577 1300349560
REM
CELL 1.54180   50.00000   50.00000   50.00000   90.00000   90.00000   90.00000
LATT -1
SFAC C  
C      1  0.5180150000000  0.4724220000000  0.4423290000000 1.0
C      1  0.4675490000000  0.4690340000000  0.4463030000000 1.0
C      1  0.4393880000000  0.4689400000000  0.4907370000000 1.0
C      1  0.4538590000000  0.4695450000000  0.5391260000000 1.0
C      1  0.5006770000000  0.4713200000000  0.5606160000000 1.0
C      1  0.5373700000000  0.4736670000000  0.5299730000000 1.0
C      1  0.5419110000000  0.4752950000000  0.4857760000000 1.0
C      1  0.5061880000000  0.5613160000000  0.5219570000000 1.0
C      1  0.5299010000000  0.5703110000000  0.5092670000000 1.0
C      1  0.5288550000000  0.5759340000000  0.4818620000000 1.0
C      1  0.5038580000000  0.5774940000000  0.4680480000000 1.0
C      1  0.4771220000000  0.5788110000000  0.4774330000000 1.0
C      1  0.4659310000000  0.5790780000000  0.5034350000000 1.0
C      1  0.4813440000000  0.5752470000000  0.5266630000000 1.0
C      1  0.4904760000000  0.5071560000000  0.4590430000000 1.0
C      1  0.4734550000000  0.4985380000000  0.4817950000000 1.0
C      1  0.4636030000000  0.5073630000000  0.5093560000000 1.0
C      1  0.4863850000000  0.5020510000000  0.5276920000000 1.0
C      1  0.5136230000000  0.5137120000000  0.5368470000000 1.0
C      1  0.5336690000000  0.5169550000000  0.5141770000000 1.0
C      1  0.5183320000000  0.5146510000000  0.4651280000000 1.0
C      1  0.5786980000000  0.5217110000000  0.4888260000000 1.0
C      1  0.5407250000000  0.5245760000000  0.4280120000000 1.0
C      1  0.4713690000000  0.5272710000000  0.4242630000000 1.0
C      1  0.4256550000000  0.5252590000000  0.4742870000000 1.0
C      1  0.4312660000000  0.5251700000000  0.5414400000000 1.0
C      1  0.4888420000000  0.5231080000000  0.5790480000000 1.0
C      1  0.5562300000000  0.5219060000000  0.5570310000000 1.0
C      1  0.5766690000000  0.5136580000000  0.5407070000000 1.0
C      1  0.5768640000000  0.5136330000000  0.4628070000000 1.0
C      1  0.5191450000000  0.5153280000000  0.4144480000000 1.0
C      1  0.4478100000000  0.5155720000000  0.4317500000000 1.0
C      1  0.4130750000000  0.5155070000000  0.4964530000000 1.0
C      1  0.4418290000000  0.5148050000000  0.5643350000000 1.0
C      1  0.5145120000000  0.5158690000000  0.5865340000000 1.0
C      1  0.5630700000000  0.5454690000000  0.4911710000000 1.0
C      1  0.5290830000000  0.5415540000000  0.4506220000000 1.0
C      1  0.4778950000000  0.5510600000000  0.4399960000000 1.0
C      1  0.4400370000000  0.5502010000000  0.4783850000000 1.0
C      1  0.4435490000000  0.5499990000000  0.5325280000000 1.0
C      1  0.4887360000000  0.5460900000000  0.5616440000000 1.0
C      1  0.5436440000000  0.5452830000000  0.5461230000000 1.0
C      1  0.4778530000000  0.4299080000000  0.5540110000000 1.0
C      1  0.5283710000000  0.4318110000000  0.5512920000000 1.0
C      1  0.5567290000000  0.4346200000000  0.5092220000000 1.0
C      1  0.5431710000000  0.4340100000000  0.4606620000000 1.0
C      1  0.4964890000000  0.4301280000000  0.4409370000000 1.0
C      1  0.4531520000000  0.4289560000000  0.4669630000000 1.0
C      1  0.4445470000000  0.4286270000000  0.5161840000000 1.0
C      1  0.5580160000000  0.5062890000000  0.4452440000000 1.0
C      1  0.4934610000000  0.5079390000000  0.4191340000000 1.0
C      1  0.4367070000000  0.5064490000000  0.4545030000000 1.0
C      1  0.4228920000000  0.5062260000000  0.5201260000000 1.0
C      1  0.4667790000000  0.5058180000000  0.5711410000000 1.0
C      1  0.5368300000000  0.5061160000000  0.5729270000000 1.0
C      1  0.5776240000000  0.5057890000000  0.5142790000000 1.0
C      1  0.4613120000000  0.5608320000000  0.4616810000000 1.0
C      1  0.4438670000000  0.5611570000000  0.5052050000000 1.0
C      1  0.4679820000000  0.5589890000000  0.5459510000000 1.0
C      1  0.5133840000000  0.5446040000000  0.5452950000000 1.0
C      1  0.5481320000000  0.5483210000000  0.5162720000000 1.0
C      1  0.5461760000000  0.5569680000000  0.4699000000000 1.0
C      1  0.5047540000000  0.5590230000000  0.4467150000000 1.0
C      1  0.4429630000000  0.4841820000000  0.5161030000000 1.0
C      1  0.4761110000000  0.4846720000000  0.5518320000000 1.0
C      1  0.5238880000000  0.4880890000000  0.5527110000000 1.0
C      1  0.5514210000000  0.4920970000000  0.5103170000000 1.0
C      1  0.5357470000000  0.4897450000000  0.4586460000000 1.0
C      1  0.4911530000000  0.4847850000000  0.4386700000000 1.0
C      1  0.4513660000000  0.4830390000000  0.4675610000000 1.0
C      1  0.4445200000000  0.4402970000000  0.4909570000000 1.0
C      1  0.4579130000000  0.4405630000000  0.5373290000000 1.0
C      1  0.5027430000000  0.4424140000000  0.5571000000000 1.0
C      1  0.5447250000000  0.4439080000000  0.5327250000000 1.0
C      1  0.5521600000000  0.4454130000000  0.4841050000000 1.0
C      1  0.5204850000000  0.4431560000000  0.4464370000000 1.0
C      1  0.4721160000000  0.4406310000000  0.4501530000000 1.0
C      1  0.5041300000000  0.4201510000000  0.4999830000000 1.0
C      1  0.4972730000000  0.4914350000000  0.5009920000000 1.0
C      1  0.4961980000000  0.5395960000000  0.4986840000000 1.0
C      1  0.5135380000000  0.5174830000000  0.4936610000000 1.0
C      1  0.5146140000000  0.4688820000000  0.5026460000000 1.0
C      1  0.5003610000000  0.4444300000000  0.4999630000000 1.0
END
