TITL C-156531-8808-2 1005.02657450758 125000 -1111.04218627174 0 0 160 (C1) n - 1
REM
REM in /rds/project/t2_vol4/rds-t2-cs072/BORA/CARBON/from-Arr/AIRSS/Generating-Clusters/GAP-ML-2020/Higher-Symm/SD-CG/HFTN-CG/C160-200
REM
REM
REM
REM
REM
REM ./C.cell (6b4489405718ea1b717e0baf1da4c2d9)
REM AIRSS Version 0.9.1 bugfix July 2018 build 013d7b7c2542+ Fri, 06 Jul 2018 19:26:36 +0100
REM compiler GCC version 9.3.0
REM options -cpp -mtune=generic -march=x86-64 -g -O0
REM seed -1347990627 -1281928961 -1414979547 1414664395 181231070 26876699 1413959100 -2120107990 519727500 1166517926 1554018668 69467099 171522424 -20061578 -1771805875 -942638354 -1558853686 -1545546072 -1181688584 -1707504709 98325029 -276381414 1976572232 -1168127157 366547622 240286802 -633894436 -1000154967 -1840144561 1195088447 1062692829 -1061036155 -649663514
REM
CELL 1.54180   50.00000   50.00000   50.00000   90.00000   90.00000   90.00000
LATT -1
SFAC C  
C      1  0.4897310000000  0.5775480000000  0.4340200000000 1.0
C      1  0.5743020000000  0.4680370000000  0.4349860000000 1.0
C      1  0.4383860000000  0.4523500000000  0.4337200000000 1.0
C      1  0.5445830000000  0.5733000000000  0.5031070000000 1.0
C      1  0.5435180000000  0.4285950000000  0.4989610000000 1.0
C      1  0.4169160000000  0.4980760000000  0.4977990000000 1.0
C      1  0.5461080000000  0.5233410000000  0.5699230000000 1.0
C      1  0.4922700000000  0.4400800000000  0.5538670000000 1.0
C      1  0.4517140000000  0.5349200000000  0.5537930000000 1.0
C      1  0.4554180000000  0.4113910000000  0.5278670000000 1.0
C      1  0.4484390000000  0.5817270000000  0.5303800000000 1.0
C      1  0.5992940000000  0.5081850000000  0.5264570000000 1.0
C      1  0.5041860000000  0.5294730000000  0.4579480000000 1.0
C      1  0.5299740000000  0.4815460000000  0.4573590000000 1.0
C      1  0.4717070000000  0.4866900000000  0.4565100000000 1.0
C      1  0.5774440000000  0.5259210000000  0.4512390000000 1.0
C      1  0.4843700000000  0.4214320000000  0.4545410000000 1.0
C      1  0.4395840000000  0.5529510000000  0.4560130000000 1.0
C      1  0.4997110000000  0.5284400000000  0.5458350000000 1.0
C      1  0.5238180000000  0.4844500000000  0.5467450000000 1.0
C      1  0.4747900000000  0.4855210000000  0.5442260000000 1.0
C      1  0.5440470000000  0.4471760000000  0.5753040000000 1.0
C      1  0.4299990000000  0.4842820000000  0.5726250000000 1.0
C      1  0.5192460000000  0.5626590000000  0.5783230000000 1.0
C      1  0.4633610000000  0.4498180000000  0.4185990000000 1.0
C      1  0.4715380000000  0.5597450000000  0.4184170000000 1.0
C      1  0.5665170000000  0.4906310000000  0.4177670000000 1.0
C      1  0.4660340000000  0.5004690000000  0.5964770000000 1.0
C      1  0.5101500000000  0.5193670000000  0.5995950000000 1.0
C      1  0.5058140000000  0.4683950000000  0.5985960000000 1.0
C      1  0.4658950000000  0.5890080000000  0.5082580000000 1.0
C      1  0.5968710000000  0.4882970000000  0.5063100000000 1.0
C      1  0.4421800000000  0.4218500000000  0.5046940000000 1.0
C      1  0.4030680000000  0.4833130000000  0.4490370000000 1.0
C      1  0.5366360000000  0.5945900000000  0.4341800000000 1.0
C      1  0.5631680000000  0.4232700000000  0.4501560000000 1.0
C      1  0.5336710000000  0.4429840000000  0.4154940000000 1.0
C      1  0.4336840000000  0.4993110000000  0.4146440000000 1.0
C      1  0.5277750000000  0.5502420000000  0.4115630000000 1.0
C      1  0.5880090000000  0.5026260000000  0.5522510000000 1.0
C      1  0.4511000000000  0.4160720000000  0.5559780000000 1.0
C      1  0.4538100000000  0.5821470000000  0.5584290000000 1.0
C      1  0.4791120000000  0.4748570000000  0.5917820000000 1.0
C      1  0.4830540000000  0.5223490000000  0.5927670000000 1.0
C      1  0.5198440000000  0.4928630000000  0.5960490000000 1.0
C      1  0.5263490000000  0.4642800000000  0.3983440000000 1.0
C      1  0.4560040000000  0.4969840000000  0.3965610000000 1.0
C      1  0.5079940000000  0.5299130000000  0.4034820000000 1.0
C      1  0.4254530000000  0.4855090000000  0.5429100000000 1.0
C      1  0.5274250000000  0.5685270000000  0.5492070000000 1.0
C      1  0.5481180000000  0.4420780000000  0.5451150000000 1.0
C      1  0.4304700000000  0.5347690000000  0.5764460000000 1.0
C      1  0.5896560000000  0.5491350000000  0.5720340000000 1.0
C      1  0.5012770000000  0.4208800000000  0.5765040000000 1.0
C      1  0.5702400000000  0.5631670000000  0.4928250000000 1.0
C      1  0.5061580000000  0.4030060000000  0.4974880000000 1.0
C      1  0.4134700000000  0.5429530000000  0.4972420000000 1.0
C      1  0.4446040000000  0.4600090000000  0.5734910000000 1.0
C      1  0.4918680000000  0.5645550000000  0.5770960000000 1.0
C      1  0.5581820000000  0.4718330000000  0.5773130000000 1.0
C      1  0.5169950000000  0.4545690000000  0.5418640000000 1.0
C      1  0.4524080000000  0.5066780000000  0.5405180000000 1.0
C      1  0.5304910000000  0.5366350000000  0.5448120000000 1.0
C      1  0.5060930000000  0.4541220000000  0.5145000000000 1.0
C      1  0.4582450000000  0.5183260000000  0.5140380000000 1.0
C      1  0.5410140000000  0.5268410000000  0.5180750000000 1.0
C      1  0.4396570000000  0.5061530000000  0.5880070000000 1.0
C      1  0.5286970000000  0.5381480000000  0.5891610000000 1.0
C      1  0.5181030000000  0.4446220000000  0.5888330000000 1.0
C      1  0.4323920000000  0.5246380000000  0.4584700000000 1.0
C      1  0.5557570000000  0.5457670000000  0.4518350000000 1.0
C      1  0.5124900000000  0.4291050000000  0.4586380000000 1.0
C      1  0.4934610000000  0.5791000000000  0.5098200000000 1.0
C      1  0.5758000000000  0.4679740000000  0.5090870000000 1.0
C      1  0.4358070000000  0.4505070000000  0.5068020000000 1.0
C      1  0.4830250000000  0.4313900000000  0.4278610000000 1.0
C      1  0.4465000000000  0.5499850000000  0.4284660000000 1.0
C      1  0.5703880000000  0.5180840000000  0.4250050000000 1.0
C      1  0.4853770000000  0.4765300000000  0.5178370000000 1.0
C      1  0.4885660000000  0.5248820000000  0.5185970000000 1.0
C      1  0.5304230000000  0.4983120000000  0.5206270000000 1.0
C      1  0.5121880000000  0.4300960000000  0.4282300000000 1.0
C      1  0.4324600000000  0.5241020000000  0.4278120000000 1.0
C      1  0.5516090000000  0.5409190000000  0.4226570000000 1.0
C      1  0.5020240000000  0.4787390000000  0.3914540000000 1.0
C      1  0.4654850000000  0.5205570000000  0.3866000000000 1.0
C      1  0.5168130000000  0.5044340000000  0.3908480000000 1.0
C      1  0.5939640000000  0.5342510000000  0.5165280000000 1.0
C      1  0.4832250000000  0.4187980000000  0.5302870000000 1.0
C      1  0.4382420000000  0.5546360000000  0.5309180000000 1.0
C      1  0.5913850000000  0.5726990000000  0.5623480000000 1.0
C      1  0.5208910000000  0.4021980000000  0.5664880000000 1.0
C      1  0.4044370000000  0.5289470000000  0.5658340000000 1.0
C      1  0.4822130000000  0.5835840000000  0.5588190000000 1.0
C      1  0.5781190000000  0.4763760000000  0.5575080000000 1.0
C      1  0.4356270000000  0.4399390000000  0.5560340000000 1.0
C      1  0.4283660000000  0.4571230000000  0.5344120000000 1.0
C      1  0.5022320000000  0.5813560000000  0.5382070000000 1.0
C      1  0.5713580000000  0.4586480000000  0.5368530000000 1.0
C      1  0.4493770000000  0.4223520000000  0.4765870000000 1.0
C      1  0.4629140000000  0.5846250000000  0.4801120000000 1.0
C      1  0.5950320000000  0.4927350000000  0.4779470000000 1.0
C      1  0.4852410000000  0.4913720000000  0.4320340000000 1.0
C      1  0.5024640000000  0.5138890000000  0.4328180000000 1.0
C      1  0.5227520000000  0.4937540000000  0.4332770000000 1.0
C      1  0.5133640000000  0.4601480000000  0.4703610000000 1.0
C      1  0.4596690000000  0.5100800000000  0.4701450000000 1.0
C      1  0.5309020000000  0.5300500000000  0.4709390000000 1.0
C      1  0.4050760000000  0.4773930000000  0.4786190000000 1.0
C      1  0.5329870000000  0.5924700000000  0.4829910000000 1.0
C      1  0.5676170000000  0.4278530000000  0.4802620000000 1.0
C      1  0.4807480000000  0.5402400000000  0.3978230000000 1.0
C      1  0.5391970000000  0.4897360000000  0.4062640000000 1.0
C      1  0.4760740000000  0.4763780000000  0.4065690000000 1.0
C      1  0.4227820000000  0.4768740000000  0.4293820000000 1.0
C      1  0.5179700000000  0.5755170000000  0.4250660000000 1.0
C      1  0.5591490000000  0.4434590000000  0.4306390000000 1.0
C      1  0.4733690000000  0.4636890000000  0.5649670000000 1.0
C      1  0.4801090000000  0.5376000000000  0.5668420000000 1.0
C      1  0.5381710000000  0.4934510000000  0.5735340000000 1.0
C      1  0.5876090000000  0.4698520000000  0.4618880000000 1.0
C      1  0.4327560000000  0.4395840000000  0.4600570000000 1.0
C      1  0.4859750000000  0.5886930000000  0.4624870000000 1.0
C      1  0.5740120000000  0.5120080000000  0.4757650000000 1.0
C      1  0.4749980000000  0.4345400000000  0.4775540000000 1.0
C      1  0.4568280000000  0.5569160000000  0.4781560000000 1.0
C      1  0.4197290000000  0.4536120000000  0.4808350000000 1.0
C      1  0.5052010000000  0.5918940000000  0.4833880000000 1.0
C      1  0.5814810000000  0.4520340000000  0.4829340000000 1.0
C      1  0.4492240000000  0.4978950000000  0.4952490000000 1.0
C      1  0.5269090000000  0.5440730000000  0.4978030000000 1.0
C      1  0.5285060000000  0.4571570000000  0.4960770000000 1.0
C      1  0.4626950000000  0.4716970000000  0.4993870000000 1.0
C      1  0.4970940000000  0.5465610000000  0.5006540000000 1.0
C      1  0.5452430000000  0.4816960000000  0.5011470000000 1.0
C      1  0.5268130000000  0.4105860000000  0.4795800000000 1.0
C      1  0.4094650000000  0.5213790000000  0.4788500000000 1.0
C      1  0.5669640000000  0.5694380000000  0.4643030000000 1.0
C      1  0.3917820000000  0.5019140000000  0.4645950000000 1.0
C      1  0.5480740000000  0.5911720000000  0.4588900000000 1.0
C      1  0.5527270000000  0.4045410000000  0.4662060000000 1.0
C      1  0.5040310000000  0.3976360000000  0.5252140000000 1.0
C      1  0.4095010000000  0.5468660000000  0.5249350000000 1.0
C      1  0.5905030000000  0.5624510000000  0.5150740000000 1.0
C      1  0.5785560000000  0.5764410000000  0.5375800000000 1.0
C      1  0.5277390000000  0.4002840000000  0.5402810000000 1.0
C      1  0.3998350000000  0.5246010000000  0.5394540000000 1.0
C      1  0.5503060000000  0.5781790000000  0.5325120000000 1.0
C      1  0.5454890000000  0.4190290000000  0.5274140000000 1.0
C      1  0.4071320000000  0.5001070000000  0.5259180000000 1.0
C      1  0.4725150000000  0.4122030000000  0.5753590000000 1.0
C      1  0.4403890000000  0.5635110000000  0.5769370000000 1.0
C      1  0.5764050000000  0.5248530000000  0.5674950000000 1.0
C      1  0.4816640000000  0.5354950000000  0.4750260000000 1.0
C      1  0.5436770000000  0.4997260000000  0.4757360000000 1.0
C      1  0.4803160000000  0.4657650000000  0.4745380000000 1.0
C      1  0.4913120000000  0.4294630000000  0.5031050000000 1.0
C      1  0.4438950000000  0.5437600000000  0.5031410000000 1.0
C      1  0.5694660000000  0.5310280000000  0.5007770000000 1.0
C      1  0.5018220000000  0.5000120000000  0.5105540000000 1.0
END
