TITL C-154516-3187-8 0.0943094730244725 125000 -751.549336396933 0 0 108 (C1) n - 1
REM
REM in /rds/project/t2_vol4/rds-t2-cs072/BORA/CARBON/from-Arr/AIRSS/Generating-Clusters/GAP-ML-2020/Higher-Symm/SD-CG/HFTN-CG
REM
REM
REM
REM
REM
REM ./C.cell (b20cbc046b6831c77cfcea5457e17084)
REM AIRSS Version 0.9.1 bugfix July 2018 build 013d7b7c2542+ Fri, 06 Jul 2018 19:26:36 +0100
REM compiler GCC version 9.3.0
REM options -cpp -mtune=generic -march=x86-64 -g -O0
REM seed 464354966 -1543426985 1710798983 -421360321 1207538998 -929458742 673535200 1572858615 1556212226 380957811 -214365069 -720322644 1116012519 -1581277395 -1531455847 -1272486094 -1752599814 1026925885 -894855576 1846805434 966463747 1951771419 -1403961524 1096004608 -494663491 1670380001 1140747352 -256390710 1541603335 -568944596 -1962205394 690137029 -2030740979
REM
CELL 1.54180   50.00000   50.00000   50.00000   90.00000   90.00000   90.00000
LATT -1
SFAC C  
C      1  0.4767210000000  0.4344420000000  0.4398950000000 1.0
C      1  0.4372870000000  0.5000750000000  0.4397160000000 1.0
C      1  0.4790870000000  0.5650220000000  0.4352610000000 1.0
C      1  0.5504010000000  0.5363550000000  0.4368230000000 1.0
C      1  0.5475540000000  0.4591160000000  0.4356080000000 1.0
C      1  0.4668270000000  0.4239410000000  0.4643340000000 1.0
C      1  0.4217290000000  0.5060100000000  0.4632700000000 1.0
C      1  0.4811050000000  0.5806820000000  0.4599280000000 1.0
C      1  0.5663290000000  0.5399460000000  0.4602900000000 1.0
C      1  0.5571700000000  0.4456970000000  0.4593530000000 1.0
C      1  0.4943520000000  0.4739290000000  0.4259110000000 1.0
C      1  0.4791110000000  0.5136130000000  0.4552210000000 1.0
C      1  0.4953270000000  0.5364070000000  0.4593410000000 1.0
C      1  0.5259170000000  0.4995480000000  0.4537780000000 1.0
C      1  0.5194360000000  0.4722880000000  0.4595750000000 1.0
C      1  0.4931320000000  0.4674660000000  0.5795860000000 1.0
C      1  0.4786450000000  0.5165850000000  0.5772290000000 1.0
C      1  0.5001920000000  0.5359400000000  0.5753320000000 1.0
C      1  0.5204490000000  0.5146530000000  0.5757320000000 1.0
C      1  0.5144800000000  0.4496890000000  0.5763370000000 1.0
C      1  0.4471810000000  0.5425580000000  0.5461140000000 1.0
C      1  0.5234550000000  0.5686280000000  0.5452340000000 1.0
C      1  0.5683250000000  0.4979500000000  0.5460440000000 1.0
C      1  0.5248720000000  0.4274890000000  0.5429210000000 1.0
C      1  0.4426850000000  0.4607820000000  0.5505570000000 1.0
C      1  0.5694120000000  0.5507530000000  0.5228010000000 1.0
C      1  0.5708570000000  0.4490490000000  0.5219270000000 1.0
C      1  0.4728430000000  0.4149060000000  0.5263710000000 1.0
C      1  0.4155670000000  0.5001890000000  0.5260300000000 1.0
C      1  0.4728240000000  0.5837200000000  0.5222400000000 1.0
C      1  0.4568230000000  0.5203920000000  0.4353500000000 1.0
C      1  0.5028520000000  0.5499530000000  0.4336730000000 1.0
C      1  0.5446760000000  0.5084840000000  0.4326280000000 1.0
C      1  0.5178390000000  0.4557470000000  0.4324380000000 1.0
C      1  0.4691660000000  0.4603630000000  0.4303210000000 1.0
C      1  0.4327030000000  0.4602050000000  0.4637140000000 1.0
C      1  0.4410470000000  0.5533770000000  0.4607100000000 1.0
C      1  0.5327850000000  0.5736830000000  0.4596860000000 1.0
C      1  0.5762570000000  0.4897140000000  0.4590870000000 1.0
C      1  0.5144520000000  0.4178370000000  0.4618080000000 1.0
C      1  0.4248890000000  0.4745530000000  0.5662400000000 1.0
C      1  0.4524680000000  0.5635390000000  0.5625460000000 1.0
C      1  0.5443770000000  0.5655690000000  0.5619890000000 1.0
C      1  0.5784290000000  0.4779210000000  0.5616570000000 1.0
C      1  0.5051060000000  0.4251580000000  0.5627240000000 1.0
C      1  0.4445890000000  0.4720260000000  0.4398470000000 1.0
C      1  0.4541800000000  0.5486010000000  0.4358010000000 1.0
C      1  0.5300910000000  0.5569110000000  0.4361540000000 1.0
C      1  0.5608290000000  0.4857210000000  0.4350210000000 1.0
C      1  0.5053600000000  0.4306400000000  0.4383420000000 1.0
C      1  0.5549310000000  0.5624460000000  0.4757720000000 1.0
C      1  0.5727900000000  0.4657210000000  0.4748320000000 1.0
C      1  0.4903420000000  0.4134750000000  0.4788080000000 1.0
C      1  0.4205360000000  0.4816240000000  0.4794110000000 1.0
C      1  0.4580750000000  0.5716610000000  0.4760940000000 1.0
C      1  0.4764470000000  0.5089850000000  0.5317840000000 1.0
C      1  0.5019520000000  0.5268970000000  0.5299620000000 1.0
C      1  0.5258300000000  0.5059450000000  0.5307380000000 1.0
C      1  0.5149730000000  0.4755870000000  0.5320280000000 1.0
C      1  0.4840960000000  0.4781380000000  0.5331740000000 1.0
C      1  0.4756680000000  0.5692980000000  0.5481900000000 1.0
C      1  0.5543890000000  0.5435810000000  0.5483670000000 1.0
C      1  0.5616990000000  0.4590820000000  0.5488910000000 1.0
C      1  0.4800860000000  0.4302940000000  0.5505670000000 1.0
C      1  0.4315920000000  0.4980520000000  0.5519120000000 1.0
C      1  0.5527820000000  0.5645360000000  0.5040400000000 1.0
C      1  0.5753330000000  0.4694780000000  0.5028400000000 1.0
C      1  0.4941490000000  0.4132450000000  0.5067850000000 1.0
C      1  0.4212040000000  0.4789510000000  0.5076610000000 1.0
C      1  0.4566150000000  0.5689150000000  0.5039500000000 1.0
C      1  0.5194550000000  0.4263260000000  0.5145350000000 1.0
C      1  0.4398950000000  0.4590450000000  0.5191260000000 1.0
C      1  0.4462060000000  0.5429460000000  0.5140040000000 1.0
C      1  0.5255280000000  0.5697720000000  0.5145540000000 1.0
C      1  0.5702270000000  0.4966380000000  0.5132440000000 1.0
C      1  0.5423450000000  0.5066810000000  0.5068820000000 1.0
C      1  0.5178570000000  0.4590880000000  0.5083690000000 1.0
C      1  0.4683350000000  0.4657160000000  0.5125450000000 1.0
C      1  0.4625990000000  0.5164240000000  0.5075160000000 1.0
C      1  0.5075340000000  0.5451590000000  0.5076510000000 1.0
C      1  0.5441330000000  0.5156040000000  0.5538440000000 1.0
C      1  0.5322230000000  0.4557420000000  0.5523240000000 1.0
C      1  0.4727550000000  0.4583880000000  0.5563360000000 1.0
C      1  0.4569590000000  0.5163880000000  0.5552610000000 1.0
C      1  0.4997840000000  0.5531050000000  0.5523730000000 1.0
C      1  0.5676520000000  0.4237500000000  0.5119970000000 1.0
C      1  0.4465590000000  0.4104000000000  0.5179440000000 1.0
C      1  0.4012550000000  0.5220220000000  0.5160240000000 1.0
C      1  0.4897060000000  0.6037700000000  0.5127140000000 1.0
C      1  0.5934270000000  0.5401440000000  0.5127360000000 1.0
C      1  0.5411150000000  0.4242610000000  0.4707560000000 1.0
C      1  0.4426810000000  0.4358150000000  0.4755780000000 1.0
C      1  0.4237040000000  0.5334810000000  0.4730680000000 1.0
C      1  0.5086230000000  0.5855860000000  0.4709510000000 1.0
C      1  0.5804190000000  0.5163390000000  0.4705250000000 1.0
C      1  0.5103990000000  0.5918640000000  0.4989250000000 1.0
C      1  0.5875700000000  0.5175030000000  0.4984700000000 1.0
C      1  0.5442060000000  0.4192220000000  0.4986410000000 1.0
C      1  0.4379790000000  0.4323120000000  0.5036850000000 1.0
C      1  0.4189920000000  0.5366190000000  0.5010930000000 1.0
C      1  0.4751000000000  0.4726180000000  0.4863860000000 1.0
C      1  0.4740380000000  0.5029350000000  0.4841470000000 1.0
C      1  0.5117880000000  0.5345790000000  0.4824140000000 1.0
C      1  0.5268950000000  0.5110320000000  0.4823810000000 1.0
C      1  0.5049020000000  0.4693530000000  0.4850430000000 1.0
C      1  0.4984930000000  0.4955050000000  0.5814100000000 1.0
C      1  0.5029600000000  0.4986950000000  0.4920730000000 1.0
C      1  0.4991570000000  0.4978810000000  0.4412180000000 1.0
END
