TITL C-150270-3415-7 36.9104894175106 125000 -744.895688134661 0 0 107 (C1) n - 1
REM
REM in /rds/project/t2_vol4/rds-t2-cs072/BORA/CARBON/from-Arr/AIRSS/Generating-Clusters/GAP-ML-2020/Higher-Symm/SD-CG/HFTN-CG
REM
REM
REM
REM
REM
REM ./C.cell (b20cbc046b6831c77cfcea5457e17084)
REM AIRSS Version 0.9.1 bugfix July 2018 build 013d7b7c2542+ Fri, 06 Jul 2018 19:26:36 +0100
REM compiler GCC version 9.3.0
REM options -cpp -mtune=generic -march=x86-64 -g -O0
REM seed 1795568761 78789840 1564320161 1133730227 -1235399954 -1155531531 1315382496 -347216411 540493662 70524190 -1805535461 -667779241 -947025298 -1818921848 -639338070 639733046 2004432350 -884373654 -1069664180 1870480100 1102555650 -379214633 -1828170603 -1638592191 -1295796643 -31474717 -929234770 1283670009 622768180 -1930340563 1708090534 -1703971303 879260252
REM
CELL 1.54180   50.00000   50.00000   50.00000   90.00000   90.00000   90.00000
LATT -1
SFAC C  
C      1  0.5436660000000  0.5402550000000  0.4274980000000 1.0
C      1  0.4570010000000  0.5406440000000  0.5726640000000 1.0
C      1  0.4627000000000  0.5407150000000  0.4314690000000 1.0
C      1  0.5371040000000  0.5406320000000  0.5681160000000 1.0
C      1  0.5145680000000  0.4163260000000  0.4863080000000 1.0
C      1  0.4852660000000  0.4132280000000  0.5153050000000 1.0
C      1  0.4855810000000  0.4160000000000  0.4860840000000 1.0
C      1  0.5148750000000  0.4136300000000  0.5155190000000 1.0
C      1  0.4850700000000  0.5588950000000  0.5151680000000 1.0
C      1  0.5153220000000  0.5590410000000  0.4835020000000 1.0
C      1  0.5162800000000  0.5587290000000  0.5140420000000 1.0
C      1  0.4841470000000  0.5590340000000  0.4846700000000 1.0
C      1  0.4192080000000  0.4775280000000  0.5153280000000 1.0
C      1  0.5812200000000  0.4784290000000  0.4875420000000 1.0
C      1  0.5809680000000  0.4778510000000  0.5161960000000 1.0
C      1  0.4196740000000  0.4784090000000  0.4866520000000 1.0
C      1  0.4384060000000  0.5743310000000  0.4873220000000 1.0
C      1  0.5619030000000  0.5738730000000  0.5126970000000 1.0
C      1  0.5615260000000  0.5736380000000  0.4857290000000 1.0
C      1  0.4389590000000  0.5730670000000  0.5142400000000 1.0
C      1  0.4848150000000  0.5503130000000  0.4129290000000 1.0
C      1  0.5149010000000  0.5497890000000  0.5865540000000 1.0
C      1  0.5147080000000  0.5410540000000  0.4204380000000 1.0
C      1  0.4860500000000  0.5407310000000  0.5781350000000 1.0
C      1  0.5720100000000  0.4736860000000  0.5700340000000 1.0
C      1  0.4272040000000  0.4747070000000  0.4318730000000 1.0
C      1  0.4277030000000  0.4729750000000  0.5689910000000 1.0
C      1  0.5734380000000  0.4741800000000  0.4326020000000 1.0
C      1  0.5518810000000  0.5577820000000  0.5498480000000 1.0
C      1  0.4479650000000  0.5574380000000  0.4504250000000 1.0
C      1  0.4480950000000  0.5559040000000  0.5509280000000 1.0
C      1  0.5525310000000  0.5554970000000  0.4493330000000 1.0
C      1  0.5376590000000  0.5730080000000  0.5288040000000 1.0
C      1  0.4624860000000  0.5732140000000  0.4706680000000 1.0
C      1  0.4632460000000  0.5715060000000  0.5307860000000 1.0
C      1  0.5372930000000  0.5717710000000  0.4686700000000 1.0
C      1  0.4276680000000  0.5512030000000  0.5300040000000 1.0
C      1  0.5726780000000  0.5511970000000  0.4708710000000 1.0
C      1  0.5725130000000  0.5519880000000  0.5298880000000 1.0
C      1  0.4277000000000  0.5519960000000  0.4708780000000 1.0
C      1  0.4879720000000  0.4415680000000  0.4319840000000 1.0
C      1  0.5126930000000  0.4324910000000  0.5722510000000 1.0
C      1  0.5132190000000  0.4413610000000  0.4318500000000 1.0
C      1  0.4869810000000  0.4324690000000  0.5719450000000 1.0
C      1  0.4387970000000  0.4523690000000  0.5560620000000 1.0
C      1  0.5615470000000  0.4551720000000  0.4470870000000 1.0
C      1  0.5607340000000  0.4533910000000  0.5567130000000 1.0
C      1  0.4393180000000  0.4556410000000  0.4462800000000 1.0
C      1  0.5359210000000  0.4262110000000  0.4716560000000 1.0
C      1  0.4635380000000  0.4226980000000  0.5303110000000 1.0
C      1  0.4642430000000  0.4255770000000  0.4709370000000 1.0
C      1  0.5364890000000  0.4229050000000  0.5309820000000 1.0
C      1  0.5569810000000  0.4357770000000  0.4878320000000 1.0
C      1  0.4425690000000  0.4338960000000  0.5145180000000 1.0
C      1  0.4428780000000  0.4350820000000  0.4867760000000 1.0
C      1  0.5576030000000  0.4341900000000  0.5154680000000 1.0
C      1  0.5370680000000  0.4383310000000  0.4456350000000 1.0
C      1  0.4631160000000  0.4341020000000  0.5569950000000 1.0
C      1  0.4637350000000  0.4383100000000  0.4450840000000 1.0
C      1  0.5367520000000  0.4344730000000  0.5576320000000 1.0
C      1  0.5146480000000  0.5298090000000  0.4742510000000 1.0
C      1  0.4855660000000  0.5295270000000  0.5238230000000 1.0
C      1  0.4838580000000  0.5285940000000  0.4766020000000 1.0
C      1  0.5168020000000  0.5281250000000  0.5215140000000 1.0
C      1  0.4737360000000  0.5046480000000  0.5138130000000 1.0
C      1  0.5252230000000  0.5036300000000  0.4833390000000 1.0
C      1  0.5266530000000  0.5028210000000  0.5106720000000 1.0
C      1  0.4754780000000  0.5022670000000  0.4865120000000 1.0
C      1  0.4288060000000  0.5002080000000  0.4439030000000 1.0
C      1  0.5716680000000  0.4992840000000  0.5582630000000 1.0
C      1  0.5723480000000  0.4996150000000  0.4440420000000 1.0
C      1  0.4280310000000  0.4986890000000  0.5580080000000 1.0
C      1  0.5815920000000  0.5028090000000  0.4724790000000 1.0
C      1  0.4185560000000  0.5021450000000  0.5298620000000 1.0
C      1  0.4196950000000  0.5031770000000  0.4719440000000 1.0
C      1  0.5811500000000  0.5027000000000  0.5305550000000 1.0
C      1  0.5714250000000  0.4541290000000  0.5293330000000 1.0
C      1  0.4292410000000  0.4554080000000  0.4733680000000 1.0
C      1  0.4288220000000  0.4538160000000  0.5284590000000 1.0
C      1  0.5709090000000  0.4557060000000  0.4744000000000 1.0
C      1  0.4771020000000  0.4974170000000  0.4368640000000 1.0
C      1  0.5240200000000  0.4972070000000  0.5610170000000 1.0
C      1  0.5216570000000  0.4986140000000  0.4374300000000 1.0
C      1  0.4773870000000  0.4988930000000  0.5607540000000 1.0
C      1  0.4200590000000  0.5278340000000  0.4860510000000 1.0
C      1  0.5804260000000  0.5275690000000  0.5159180000000 1.0
C      1  0.5808980000000  0.5276540000000  0.4864590000000 1.0
C      1  0.4192780000000  0.5273140000000  0.5155050000000 1.0
C      1  0.5489820000000  0.5105600000000  0.5707650000000 1.0
C      1  0.4508700000000  0.5106620000000  0.4296780000000 1.0
C      1  0.4505790000000  0.5120090000000  0.5687620000000 1.0
C      1  0.5498970000000  0.5117450000000  0.4317230000000 1.0
C      1  0.4881320000000  0.5359710000000  0.3878790000000 1.0
C      1  0.5116780000000  0.5339560000000  0.6109250000000 1.0
C      1  0.5056690000000  0.5188280000000  0.4014560000000 1.0
C      1  0.4950820000000  0.5172900000000  0.5964710000000 1.0
C      1  0.5183290000000  0.5248640000000  0.5501960000000 1.0
C      1  0.4820180000000  0.5252530000000  0.4479920000000 1.0
C      1  0.4892980000000  0.5262980000000  0.5530680000000 1.0
C      1  0.5109370000000  0.5263670000000  0.4450510000000 1.0
C      1  0.5146600000000  0.4845750000000  0.4645530000000 1.0
C      1  0.4771740000000  0.4841570000000  0.5328040000000 1.0
C      1  0.4855300000000  0.4833510000000  0.4663380000000 1.0
C      1  0.5229710000000  0.4821870000000  0.5298700000000 1.0
C      1  0.4998590000000  0.4948660000000  0.5804640000000 1.0
C      1  0.5002920000000  0.4959730000000  0.4170820000000 1.0
C      1  0.4991300000000  0.4696950000000  0.5241250000000 1.0
END
