TITL C-156518-9123-1 169.150265078813 125000 -1370.04872195725 0 0 194 (D2) n - 1
REM
REM in /rds/project/t2_vol4/rds-t2-cs072/BORA/CARBON/from-Arr/AIRSS/Generating-Clusters/GAP-ML-2020/Higher-Symm/SD-CG/HFTN-CG/C160-200
REM
REM
REM
REM
REM
REM ./C.cell (6b4489405718ea1b717e0baf1da4c2d9)
REM AIRSS Version 0.9.1 bugfix July 2018 build 013d7b7c2542+ Fri, 06 Jul 2018 19:26:36 +0100
REM compiler GCC version 9.3.0
REM options -cpp -mtune=generic -march=x86-64 -g -O0
REM seed -998899374 -1608218702 -106575896 375576831 1875507017 173403582 1831311510 -634621057 1416720929 -457120700 -1854960884 1700760531 509096022 1781199481 -1200337106 1097656451 1648881448 1274740273 -1186337716 -1371391342 1387757363 -1105283898 1330009739 565921348 1548966569 -1176276406 230473545 358167607 -1981534897 -516757378 -1422008656 -86090791 -163291418
REM
CELL 1.54180   50.00000   50.00000   50.00000   90.00000   90.00000   90.00000
LATT -1
SFAC C  
C      1  0.5426910000000  0.5393180000000  0.4723270000000 1.0
C      1  0.4573030000000  0.4606820000000  0.4723380000000 1.0
C      1  0.5427000000000  0.4606850000000  0.5281280000000 1.0
C      1  0.4573070000000  0.5393160000000  0.5281360000000 1.0
C      1  0.4822920000000  0.4441960000000  0.5594680000000 1.0
C      1  0.5177200000000  0.5558060000000  0.5594630000000 1.0
C      1  0.4822760000000  0.5558030000000  0.4410000000000 1.0
C      1  0.5177110000000  0.4441950000000  0.4409980000000 1.0
C      1  0.4219760000000  0.4899980000000  0.4192600000000 1.0
C      1  0.5780060000000  0.5099990000000  0.4192430000000 1.0
C      1  0.4219930000000  0.5099970000000  0.5812220000000 1.0
C      1  0.5780250000000  0.4900050000000  0.5812050000000 1.0
C      1  0.4536970000000  0.4259900000000  0.4083070000000 1.0
C      1  0.5462830000000  0.5740070000000  0.4082940000000 1.0
C      1  0.4537130000000  0.5740070000000  0.5921680000000 1.0
C      1  0.5463070000000  0.4259950000000  0.5921600000000 1.0
C      1  0.5512620000000  0.5278280000000  0.5864380000000 1.0
C      1  0.4487570000000  0.4721740000000  0.5864500000000 1.0
C      1  0.5512450000000  0.4721750000000  0.4140150000000 1.0
C      1  0.4487360000000  0.5278230000000  0.4140250000000 1.0
C      1  0.5124100000000  0.4976120000000  0.3834200000000 1.0
C      1  0.4875640000000  0.5023850000000  0.3834230000000 1.0
C      1  0.5124360000000  0.5023890000000  0.6170410000000 1.0
C      1  0.4875900000000  0.4976140000000  0.6170440000000 1.0
C      1  0.4230350000000  0.5185750000000  0.4223520000000 1.0
C      1  0.5769480000000  0.4814230000000  0.4223360000000 1.0
C      1  0.4230530000000  0.4814210000000  0.5781290000000 1.0
C      1  0.5769640000000  0.5185810000000  0.5781110000000 1.0
C      1  0.5240380000000  0.5051430000000  0.5425110000000 1.0
C      1  0.4759710000000  0.4948580000000  0.5425160000000 1.0
C      1  0.5240290000000  0.4948580000000  0.4579480000000 1.0
C      1  0.4759620000000  0.5051410000000  0.4579530000000 1.0
C      1  0.5985960000000  0.5457590000000  0.4833340000000 1.0
C      1  0.4014000000000  0.4542410000000  0.4833570000000 1.0
C      1  0.5986020000000  0.4542470000000  0.5171090000000 1.0
C      1  0.4014010000000  0.5457530000000  0.5171290000000 1.0
C      1  0.4358530000000  0.5533190000000  0.4502050000000 1.0
C      1  0.5641360000000  0.4466800000000  0.4501930000000 1.0
C      1  0.4358670000000  0.4466780000000  0.5502730000000 1.0
C      1  0.5641440000000  0.5533240000000  0.5502580000000 1.0
C      1  0.4329360000000  0.5809940000000  0.4571570000000 1.0
C      1  0.5670550000000  0.4190050000000  0.4571450000000 1.0
C      1  0.4329500000000  0.4190030000000  0.5433220000000 1.0
C      1  0.5670600000000  0.5809990000000  0.5433050000000 1.0
C      1  0.5433280000000  0.4511880000000  0.4313260000000 1.0
C      1  0.4566570000000  0.5488100000000  0.4313340000000 1.0
C      1  0.5433400000000  0.5488150000000  0.5691290000000 1.0
C      1  0.4566750000000  0.4511870000000  0.5691400000000 1.0
C      1  0.4393780000000  0.4355250000000  0.4303190000000 1.0
C      1  0.5606060000000  0.5644730000000  0.4303040000000 1.0
C      1  0.4393900000000  0.5644710000000  0.5701590000000 1.0
C      1  0.5606250000000  0.4355310000000  0.5701470000000 1.0
C      1  0.4894770000000  0.5483820000000  0.4887710000000 1.0
C      1  0.5105200000000  0.4516180000000  0.4887700000000 1.0
C      1  0.4894820000000  0.4516180000000  0.5116960000000 1.0
C      1  0.5105200000000  0.5483830000000  0.5116920000000 1.0
C      1  0.4429460000000  0.3951360000000  0.4832590000000 1.0
C      1  0.5570510000000  0.6048630000000  0.4832430000000 1.0
C      1  0.4429430000000  0.6048610000000  0.5172180000000 1.0
C      1  0.5570600000000  0.3951400000000  0.5172080000000 1.0
C      1  0.5179950000000  0.4202300000000  0.5881700000000 1.0
C      1  0.4820240000000  0.5797730000000  0.5881710000000 1.0
C      1  0.5179720000000  0.5797710000000  0.4122910000000 1.0
C      1  0.4820090000000  0.4202260000000  0.4122970000000 1.0
C      1  0.5193610000000  0.6052660000000  0.5591670000000 1.0
C      1  0.4806520000000  0.3947360000000  0.5591740000000 1.0
C      1  0.5193540000000  0.3947350000000  0.4412930000000 1.0
C      1  0.4806330000000  0.6052630000000  0.4412940000000 1.0
C      1  0.4811300000000  0.4748040000000  0.4591630000000 1.0
C      1  0.5188610000000  0.5251940000000  0.4591580000000 1.0
C      1  0.4811380000000  0.5251950000000  0.5413050000000 1.0
C      1  0.5188710000000  0.4748070000000  0.5413020000000 1.0
C      1  0.6111830000000  0.4954340000000  0.4766430000000 1.0
C      1  0.3888120000000  0.5045650000000  0.4766670000000 1.0
C      1  0.6111880000000  0.5045720000000  0.5237970000000 1.0
C      1  0.3888170000000  0.4954290000000  0.5238210000000 1.0
C      1  0.5467570000000  0.4321170000000  0.5433230000000 1.0
C      1  0.4532520000000  0.5678850000000  0.5433310000000 1.0
C      1  0.5467440000000  0.5678860000000  0.4571320000000 1.0
C      1  0.4532470000000  0.4321130000000  0.4571440000000 1.0
C      1  0.4935510000000  0.5955640000000  0.5680110000000 1.0
C      1  0.5064640000000  0.4044380000000  0.5680120000000 1.0
C      1  0.4935420000000  0.4044360000000  0.4324550000000 1.0
C      1  0.5064440000000  0.5955620000000  0.4324510000000 1.0
C      1  0.4949440000000  0.4777410000000  0.5257360000000 1.0
C      1  0.5050620000000  0.5222590000000  0.5257340000000 1.0
C      1  0.4949370000000  0.5222580000000  0.4747300000000 1.0
C      1  0.5050580000000  0.4777410000000  0.4747290000000 1.0
C      1  0.4128920000000  0.5350890000000  0.4435550000000 1.0
C      1  0.5870960000000  0.4649090000000  0.4435370000000 1.0
C      1  0.4129060000000  0.4649060000000  0.5569290000000 1.0
C      1  0.5871060000000  0.5350960000000  0.5569090000000 1.0
C      1  0.5439940000000  0.5984950000000  0.5479390000000 1.0
C      1  0.4560170000000  0.4015070000000  0.5479520000000 1.0
C      1  0.5439890000000  0.4015080000000  0.4525150000000 1.0
C      1  0.4560010000000  0.5984910000000  0.4525220000000 1.0
C      1  0.4098470000000  0.5485070000000  0.4886340000000 1.0
C      1  0.5901500000000  0.4514930000000  0.4886160000000 1.0
C      1  0.4098520000000  0.4514880000000  0.5118500000000 1.0
C      1  0.5901500000000  0.5485120000000  0.5118290000000 1.0
C      1  0.5075090000000  0.4300220000000  0.4669630000000 1.0
C      1  0.4924840000000  0.5699770000000  0.4669630000000 1.0
C      1  0.5075120000000  0.5699780000000  0.5335000000000 1.0
C      1  0.4924950000000  0.4300230000000  0.5335030000000 1.0
C      1  0.4782020000000  0.4035650000000  0.5288350000000 1.0
C      1  0.5218040000000  0.5964360000000  0.5288270000000 1.0
C      1  0.4781910000000  0.5964340000000  0.4716340000000 1.0
C      1  0.5218030000000  0.4035650000000  0.4716330000000 1.0
C      1  0.5833250000000  0.5781280000000  0.5196850000000 1.0
C      1  0.4166790000000  0.4218730000000  0.5197060000000 1.0
C      1  0.5833260000000  0.4218770000000  0.4807610000000 1.0
C      1  0.4166700000000  0.5781230000000  0.4807770000000 1.0
C      1  0.4669330000000  0.5051100000000  0.4059420000000 1.0
C      1  0.5330470000000  0.4948870000000  0.4059350000000 1.0
C      1  0.4669540000000  0.4948880000000  0.5945300000000 1.0
C      1  0.5330670000000  0.5051150000000  0.5945220000000 1.0
C      1  0.4850720000000  0.5501550000000  0.5890630000000 1.0
C      1  0.5149470000000  0.4498470000000  0.5890610000000 1.0
C      1  0.4850560000000  0.4498440000000  0.4114040000000 1.0
C      1  0.5149250000000  0.5501530000000  0.4114000000000 1.0
C      1  0.5584260000000  0.4628920000000  0.4797340000000 1.0
C      1  0.4415700000000  0.5371080000000  0.4797450000000 1.0
C      1  0.5584280000000  0.5371120000000  0.5207180000000 1.0
C      1  0.4415770000000  0.4628890000000  0.5207320000000 1.0
C      1  0.5116050000000  0.5096220000000  0.5716140000000 1.0
C      1  0.4884110000000  0.4903800000000  0.5716170000000 1.0
C      1  0.5115900000000  0.4903780000000  0.4288480000000 1.0
C      1  0.4883950000000  0.5096190000000  0.4288500000000 1.0
C      1  0.4616740000000  0.5462650000000  0.4988870000000 1.0
C      1  0.5383260000000  0.4537350000000  0.4988800000000 1.0
C      1  0.4616770000000  0.4537330000000  0.5015860000000 1.0
C      1  0.5383240000000  0.5462670000000  0.5015760000000 1.0
C      1  0.5437010000000  0.4554870000000  0.5929770000000 1.0
C      1  0.4563190000000  0.5445150000000  0.5929850000000 1.0
C      1  0.5436780000000  0.5445150000000  0.4074780000000 1.0
C      1  0.4563020000000  0.4554820000000  0.4074880000000 1.0
C      1  0.3979810000000  0.5303760000000  0.4677920000000 1.0
C      1  0.6020120000000  0.4696230000000  0.4677700000000 1.0
C      1  0.3979890000000  0.4696190000000  0.5326950000000 1.0
C      1  0.6020180000000  0.5303820000000  0.5326720000000 1.0
C      1  0.5531950000000  0.5177840000000  0.4075330000000 1.0
C      1  0.4467850000000  0.4822130000000  0.4075450000000 1.0
C      1  0.5532160000000  0.4822190000000  0.5929200000000 1.0
C      1  0.4468040000000  0.5177840000000  0.5929310000000 1.0
C      1  0.4077020000000  0.5269940000000  0.5630060000000 1.0
C      1  0.5923120000000  0.4730070000000  0.5629870000000 1.0
C      1  0.4076890000000  0.4730000000000  0.4374780000000 1.0
C      1  0.5922970000000  0.5269980000000  0.4374570000000 1.0
C      1  0.4982390000000  0.5360110000000  0.5677390000000 1.0
C      1  0.5017750000000  0.4639910000000  0.5677400000000 1.0
C      1  0.4982270000000  0.4639890000000  0.4327250000000 1.0
C      1  0.5017580000000  0.5360090000000  0.4327240000000 1.0
C      1  0.5200620000000  0.5847490000000  0.4594040000000 1.0
C      1  0.4799290000000  0.4152500000000  0.4594100000000 1.0
C      1  0.5200760000000  0.4152520000000  0.5410560000000 1.0
C      1  0.4799330000000  0.5847490000000  0.5410580000000 1.0
C      1  0.4243650000000  0.4069170000000  0.4983460000000 1.0
C      1  0.5756340000000  0.5930830000000  0.4983260000000 1.0
C      1  0.4243600000000  0.5930780000000  0.5021350000000 1.0
C      1  0.5756400000000  0.4069220000000  0.5021220000000 1.0
C      1  0.5289370000000  0.6046000000000  0.4801170000000 1.0
C      1  0.4710590000000  0.3953990000000  0.4801260000000 1.0
C      1  0.5289470000000  0.3954020000000  0.5203410000000 1.0
C      1  0.4710570000000  0.6045990000000  0.5203440000000 1.0
C      1  0.4083480000000  0.5653090000000  0.5364800000000 1.0
C      1  0.5916600000000  0.4346920000000  0.5364620000000 1.0
C      1  0.4083440000000  0.4346850000000  0.4640040000000 1.0
C      1  0.5916480000000  0.5653140000000  0.4639820000000 1.0
C      1  0.5699710000000  0.5830620000000  0.4693980000000 1.0
C      1  0.4300230000000  0.4169370000000  0.4694160000000 1.0
C      1  0.5699820000000  0.4169420000000  0.5310510000000 1.0
C      1  0.4300250000000  0.5830590000000  0.5310640000000 1.0
C      1  0.5137260000000  0.3911350000000  0.4972640000000 1.0
C      1  0.4862730000000  0.6088650000000  0.4972640000000 1.0
C      1  0.5137210000000  0.6088650000000  0.5031970000000 1.0
C      1  0.4862800000000  0.3911350000000  0.5032030000000 1.0
C      1  0.5867860000000  0.5546170000000  0.4376440000000 1.0
C      1  0.4132000000000  0.4453810000000  0.4376650000000 1.0
C      1  0.5868030000000  0.4453880000000  0.5628010000000 1.0
C      1  0.4132110000000  0.5546140000000  0.5628180000000 1.0
C      1  0.4366060000000  0.4840460000000  0.4736280000000 1.0
C      1  0.5633880000000  0.5159530000000  0.4736130000000 1.0
C      1  0.4366110000000  0.5159500000000  0.5268510000000 1.0
C      1  0.5633950000000  0.4840500000000  0.5268370000000 1.0
C      1  0.4054280000000  0.5195150000000  0.5324110000000 1.0
C      1  0.5945790000000  0.4804860000000  0.5323910000000 1.0
C      1  0.4054220000000  0.4804800000000  0.4680740000000 1.0
C      1  0.5945710000000  0.5195200000000  0.4680530000000 1.0
C      1  0.4495150000000  0.4911170000000  0.5299500000000 1.0
C      1  0.5504920000000  0.5088840000000  0.5299390000000 1.0
C      1  0.4495080000000  0.5088800000000  0.4705250000000 1.0
C      1  0.5504860000000  0.4911190000000  0.4705150000000 1.0
C      1  0.6246740000000  0.5000040000000  0.5002190000000 1.0
C      1  0.3753260000000  0.4999960000000  0.5002460000000 1.0
END
