TITL C-154540-3291-2 -150.500879762379 125000 -486.673833958829 0 0 71 (C1) n - 1
REM
REM in /rds/project/t2_vol4/rds-t2-cs072/BORA/CARBON/from-Arr/AIRSS/Generating-Clusters/GAP-ML-2020/Higher-Symm/SD-CG/HFTN-CG
REM
REM
REM
REM
REM
REM ./C.cell (b20cbc046b6831c77cfcea5457e17084)
REM AIRSS Version 0.9.1 bugfix July 2018 build 013d7b7c2542+ Fri, 06 Jul 2018 19:26:36 +0100
REM compiler GCC version 9.3.0
REM options -cpp -mtune=generic -march=x86-64 -g -O0
REM seed -2115365528 1567806501 487704699 -1426010113 -1755889881 -1528318381 1305701567 1130587076 -363978159 991875340 1964135218 242743177 -1509920879 18646601 -825996841 -1898059008 1368411895 12030068 775904600 -1656925179 1558837557 -1542131030 937889829 1088626485 -1135825008 1212858369 694879880 738558199 2007659835 -488788768 1496267924 -66307775 -887359746
REM
CELL 1.54180   50.00000   50.00000   50.00000   90.00000   90.00000   90.00000
LATT -1
SFAC C  
C      1  0.4886910000000  0.5418820000000  0.5478170000000 1.0
C      1  0.4597890000000  0.5465800000000  0.5434930000000 1.0
C      1  0.4370590000000  0.5305120000000  0.5470880000000 1.0
C      1  0.4309080000000  0.5012410000000  0.5525300000000 1.0
C      1  0.4407910000000  0.4776120000000  0.5604080000000 1.0
C      1  0.4952560000000  0.4468140000000  0.5605530000000 1.0
C      1  0.5208660000000  0.4434610000000  0.5474930000000 1.0
C      1  0.5468140000000  0.4550550000000  0.5457490000000 1.0
C      1  0.5555420000000  0.4846730000000  0.5431180000000 1.0
C      1  0.5564720000000  0.5101560000000  0.5552740000000 1.0
C      1  0.5324220000000  0.5261520000000  0.5555690000000 1.0
C      1  0.4182160000000  0.5293100000000  0.5241450000000 1.0
C      1  0.4138240000000  0.5013030000000  0.5282460000000 1.0
C      1  0.4470860000000  0.4569810000000  0.5426950000000 1.0
C      1  0.4710660000000  0.4407490000000  0.5463590000000 1.0
C      1  0.5111170000000  0.4315060000000  0.5229460000000 1.0
C      1  0.5683730000000  0.4488860000000  0.5268340000000 1.0
C      1  0.5803480000000  0.4767790000000  0.5288900000000 1.0
C      1  0.5686490000000  0.5294510000000  0.5367690000000 1.0
C      1  0.5456960000000  0.5475480000000  0.5397360000000 1.0
C      1  0.4841660000000  0.5764880000000  0.5164830000000 1.0
C      1  0.4584770000000  0.5654690000000  0.5202300000000 1.0
C      1  0.5650610000000  0.4564360000000  0.4884930000000 1.0
C      1  0.5778220000000  0.4818750000000  0.4826300000000 1.0
C      1  0.5626270000000  0.5336620000000  0.4892430000000 1.0
C      1  0.5431680000000  0.5547210000000  0.4805830000000 1.0
C      1  0.4841590000000  0.5681740000000  0.4693440000000 1.0
C      1  0.4560590000000  0.5624860000000  0.4721010000000 1.0
C      1  0.4196560000000  0.5217420000000  0.4778340000000 1.0
C      1  0.4190530000000  0.4933010000000  0.4824070000000 1.0
C      1  0.4506850000000  0.4515780000000  0.4911440000000 1.0
C      1  0.4737180000000  0.4382470000000  0.4987690000000 1.0
C      1  0.5218880000000  0.4321890000000  0.4691860000000 1.0
C      1  0.5590760000000  0.4932810000000  0.4639740000000 1.0
C      1  0.5587000000000  0.5208600000000  0.4622020000000 1.0
C      1  0.5352140000000  0.5369060000000  0.4580830000000 1.0
C      1  0.4874440000000  0.5439130000000  0.4516170000000 1.0
C      1  0.4581280000000  0.5398810000000  0.4529760000000 1.0
C      1  0.4397410000000  0.5189110000000  0.4566370000000 1.0
C      1  0.4403240000000  0.4894630000000  0.4618920000000 1.0
C      1  0.4592360000000  0.4695940000000  0.4676420000000 1.0
C      1  0.4900560000000  0.4723790000000  0.4669360000000 1.0
C      1  0.5143910000000  0.4582410000000  0.4563220000000 1.0
C      1  0.5321220000000  0.4800900000000  0.4678430000000 1.0
C      1  0.5283460000000  0.5641800000000  0.5255680000000 1.0
C      1  0.5014190000000  0.5648800000000  0.5359410000000 1.0
C      1  0.4860650000000  0.5301260000000  0.4993650000000 1.0
C      1  0.4638740000000  0.5152730000000  0.5022910000000 1.0
C      1  0.4648680000000  0.4935110000000  0.5169120000000 1.0
C      1  0.4881050000000  0.4783280000000  0.5189050000000 1.0
C      1  0.4938120000000  0.4599550000000  0.4944690000000 1.0
C      1  0.5190490000000  0.4447840000000  0.4981430000000 1.0
C      1  0.5381060000000  0.4677660000000  0.4952450000000 1.0
C      1  0.5382930000000  0.4892530000000  0.5168900000000 1.0
C      1  0.5390450000000  0.5152730000000  0.5025330000000 1.0
C      1  0.4221820000000  0.5406440000000  0.4987220000000 1.0
C      1  0.4177580000000  0.4819660000000  0.5082410000000 1.0
C      1  0.4351320000000  0.4594600000000  0.5139880000000 1.0
C      1  0.4821810000000  0.4284050000000  0.5233730000000 1.0
C      1  0.5376420000000  0.4122170000000  0.4632100000000 1.0
C      1  0.5692070000000  0.4341090000000  0.5040650000000 1.0
C      1  0.5847690000000  0.4947140000000  0.5068890000000 1.0
C      1  0.5790030000000  0.5224810000000  0.5113530000000 1.0
C      1  0.5261310000000  0.5695780000000  0.4970160000000 1.0
C      1  0.4986620000000  0.5770990000000  0.4917240000000 1.0
C      1  0.4429590000000  0.5602920000000  0.4968270000000 1.0
C      1  0.5093590000000  0.5257080000000  0.4528930000000 1.0
C      1  0.5078980000000  0.4989770000000  0.4695060000000 1.0
C      1  0.5094130000000  0.5133300000000  0.4972280000000 1.0
C      1  0.5062750000000  0.5181950000000  0.5481630000000 1.0
C      1  0.5091020000000  0.4963970000000  0.5246990000000 1.0
END
