TITL C-152271-5879-6 0.00218995059905083 125000 -65.1308456706818 0 0 10 (D10) n - 1
REM
REM in /rds/project/t2_vol4/rds-t2-cs072/BORA/CARBON/from-Arr/AIRSS/Generating-Clusters/GAP-ML-2020/Higher-Symm/SD-CG/HFTN-CG
REM
REM
REM
REM
REM
REM ./C.cell (b20cbc046b6831c77cfcea5457e17084)
REM AIRSS Version 0.9.1 bugfix July 2018 build 013d7b7c2542+ Fri, 06 Jul 2018 19:26:36 +0100
REM compiler GCC version 9.3.0
REM options -cpp -mtune=generic -march=x86-64 -g -O0
REM seed -1656210302 1869916140 -1367158395 1014128239 -820342688 1559498041 61294945 -1599287919 -95853052 220606269 1658826302 -179011666 -564824479 1988215074 1635233338 -1484267408 285693168 -1239343593 -1659086205 804899099 -2026923249 -2051103733 -167078676 2107921600 430847854 -55334487 -1042682399 -1209084793 719056313 1502081512 -996654620 470785356 -1132592513
REM
CELL 1.54180   50.00000   50.00000   50.00000   90.00000   90.00000   90.00000
LATT -1
SFAC C  
C      1  0.5000000000000  0.5133250000000  0.4589880000000 1.0
C      1  0.5000000000000  0.5431220000000  0.5000000000000 1.0
C      1  0.5000000000000  0.5133250000000  0.5410120000000 1.0
C      1  0.5000000000000  0.4651140000000  0.5253470000000 1.0
C      1  0.5000000000000  0.4651130000000  0.4746530000000 1.0
C      1  0.5000000000000  0.4866750000000  0.4589880000000 1.0
C      1  0.5000000000000  0.4568780000000  0.5000000000000 1.0
C      1  0.5000000000000  0.4866750000000  0.5410120000000 1.0
C      1  0.5000000000000  0.5348870000000  0.5253460000000 1.0
C      1  0.5000000000000  0.5348860000000  0.4746530000000 1.0
END
