TITL C-15917-645-7 0.0190395882118393 125000 -177.12706201705 0 0 27 (C3) n - 1
REM
REM in /rds/project/t2_vol4/rds-t2-cs072/BORA/CARBON/from-Arr/AIRSS/Generating-Clusters/GAP-ML-2020/Higher-Symm/SD-CG/HFTN-CG
REM
REM
REM
REM
REM
REM ./C.cell (b20cbc046b6831c77cfcea5457e17084)
REM AIRSS Version 0.9.1 bugfix July 2018 build 013d7b7c2542+ Fri, 06 Jul 2018 19:26:36 +0100
REM compiler GCC version 9.3.0
REM options -cpp -mtune=generic -march=x86-64 -g -O0
REM seed 1849767911 525958655 -848709234 -1886567100 -722175376 1271855304 -1511785513 189307981 167293866 998662258 -1092679498 1522536649 -542749588 -384699263 123993168 151176417 -1388721872 -148438199 -1059817941 -624549167 1932452607 -46662242 -808685936 906415470 -1129125723 1322033045 1711021517 1480739984 -693457313 1109419567 -982630069 -1341956266 579591013
REM
CELL 1.54180   50.00000   50.00000   50.00000   90.00000   90.00000   90.00000
LATT -1
SFAC C  
C      1  0.5506320000000  0.5145160000000  0.4737870000000 1.0
C      1  0.4621830000000  0.5365410000000  0.4736140000000 1.0
C      1  0.4873340000000  0.4489300000000  0.4736770000000 1.0
C      1  0.5578950000000  0.5034080000000  0.5310520000000 1.0
C      1  0.4680150000000  0.5484940000000  0.5308720000000 1.0
C      1  0.4739100000000  0.4481130000000  0.5309000000000 1.0
C      1  0.4937850000000  0.4373400000000  0.5192050000000 1.0
C      1  0.5573200000000  0.5259850000000  0.5193120000000 1.0
C      1  0.4487830000000  0.5366850000000  0.5191030000000 1.0
C      1  0.5042450000000  0.4399480000000  0.4936310000000 1.0
C      1  0.5499010000000  0.5336900000000  0.4937030000000 1.0
C      1  0.4458890000000  0.5263590000000  0.4935050000000 1.0
C      1  0.4844180000000  0.5461490000000  0.4676480000000 1.0
C      1  0.4679120000000  0.4633700000000  0.4676300000000 1.0
C      1  0.5478540000000  0.4904640000000  0.4677790000000 1.0
C      1  0.4927710000000  0.5565170000000  0.5300200000000 1.0
C      1  0.4545860000000  0.4655390000000  0.5299620000000 1.0
C      1  0.5524680000000  0.4779590000000  0.5301470000000 1.0
C      1  0.5050130000000  0.5575140000000  0.4809340000000 1.0
C      1  0.4477360000000  0.4755490000000  0.4808380000000 1.0
C      1  0.5473580000000  0.4669280000000  0.4810300000000 1.0
C      1  0.5085670000000  0.5606020000000  0.5088260000000 1.0
C      1  0.4432090000000  0.4771360000000  0.5087150000000 1.0
C      1  0.5481710000000  0.4622670000000  0.5089180000000 1.0
C      1  0.5321350000000  0.4463210000000  0.4919480000000 1.0
C      1  0.4374690000000  0.4990210000000  0.4917580000000 1.0
C      1  0.5304410000000  0.5546540000000  0.4919260000000 1.0
END
