TITL C-15928-794-3 0.0562203262388178 125000 -555.792500205206 0 0 82 (Cs) n - 1
REM
REM in /rds/project/t2_vol4/rds-t2-cs072/BORA/CARBON/from-Arr/AIRSS/Generating-Clusters/GAP-ML-2020/Higher-Symm/SD-CG/HFTN-CG
REM
REM
REM
REM
REM
REM ./C.cell (b20cbc046b6831c77cfcea5457e17084)
REM AIRSS Version 0.9.1 bugfix July 2018 build 013d7b7c2542+ Fri, 06 Jul 2018 19:26:36 +0100
REM compiler GCC version 9.3.0
REM options -cpp -mtune=generic -march=x86-64 -g -O0
REM seed -402594971 -139048312 925361690 311275159 -993425237 -2117289936 1308232049 1411924361 1735600721 1937061953 -943436367 239911817 -1988603304 -410758806 1052086405 721969800 -479647856 -1374769573 1331562794 823572769 1079966811 1493609893 1331994624 517026159 1330696063 1173985599 1712593339 355379504 -680649627 -293762871 77143013 633333969 -1499096428
REM
CELL 1.54180   50.00000   50.00000   50.00000   90.00000   90.00000   90.00000
LATT -1
SFAC C  
C      1  0.5265750000000  0.4319690000000  0.4837910000000 1.0
C      1  0.5264880000000  0.5685030000000  0.4857550000000 1.0
C      1  0.5420290000000  0.5291720000000  0.5690460000000 1.0
C      1  0.5420670000000  0.4689070000000  0.5681790000000 1.0
C      1  0.4673340000000  0.5152280000000  0.5062570000000 1.0
C      1  0.4673530000000  0.4845570000000  0.5058160000000 1.0
C      1  0.4274820000000  0.4858020000000  0.4705720000000 1.0
C      1  0.4274640000000  0.5149460000000  0.4709910000000 1.0
C      1  0.5473090000000  0.4674580000000  0.4623200000000 1.0
C      1  0.5472670000000  0.5336720000000  0.4632720000000 1.0
C      1  0.4739530000000  0.4851400000000  0.4759530000000 1.0
C      1  0.4739330000000  0.5155130000000  0.4763900000000 1.0
C      1  0.4992910000000  0.4722000000000  0.4704860000000 1.0
C      1  0.4992560000000  0.5286370000000  0.4712980000000 1.0
C      1  0.4458760000000  0.5143720000000  0.5450300000000 1.0
C      1  0.4458950000000  0.4842700000000  0.5445970000000 1.0
C      1  0.5307650000000  0.5580060000000  0.4598580000000 1.0
C      1  0.5308370000000  0.4432110000000  0.4582070000000 1.0
C      1  0.5758810000000  0.4840310000000  0.5060920000000 1.0
C      1  0.5758610000000  0.5158830000000  0.5065500000000 1.0
C      1  0.4984680000000  0.5734000000000  0.4923130000000 1.0
C      1  0.4985600000000  0.4268490000000  0.4902050000000 1.0
C      1  0.5342210000000  0.5147460000000  0.5030390000000 1.0
C      1  0.5342400000000  0.4852160000000  0.5026140000000 1.0
C      1  0.5433340000000  0.5596660000000  0.5059070000000 1.0
C      1  0.5434100000000  0.4402440000000  0.5041890000000 1.0
C      1  0.5340290000000  0.5514760000000  0.5557180000000 1.0
C      1  0.5340960000000  0.4469860000000  0.5542150000000 1.0
C      1  0.5236760000000  0.5574870000000  0.5306430000000 1.0
C      1  0.5237490000000  0.4416850000000  0.5289780000000 1.0
C      1  0.4576490000000  0.4435060000000  0.4654470000000 1.0
C      1  0.4575770000000  0.5574110000000  0.4670860000000 1.0
C      1  0.5244770000000  0.4844080000000  0.5845650000000 1.0
C      1  0.5244590000000  0.5131840000000  0.5849790000000 1.0
C      1  0.5007070000000  0.5448330000000  0.4948510000000 1.0
C      1  0.5007630000000  0.4553350000000  0.4935640000000 1.0
C      1  0.5044100000000  0.5320590000000  0.4259890000000 1.0
C      1  0.5044500000000  0.4700880000000  0.4250980000000 1.0
C      1  0.4918060000000  0.4855440000000  0.5252180000000 1.0
C      1  0.4917880000000  0.5137140000000  0.5256230000000 1.0
C      1  0.5244180000000  0.4861720000000  0.4721540000000 1.0
C      1  0.5244000000000  0.5146540000000  0.4725640000000 1.0
C      1  0.4211520000000  0.4854090000000  0.4988590000000 1.0
C      1  0.4211330000000  0.5145180000000  0.4992780000000 1.0
C      1  0.5640280000000  0.5135440000000  0.5596540000000 1.0
C      1  0.5640460000000  0.4848270000000  0.5592410000000 1.0
C      1  0.4758370000000  0.5324370000000  0.5812910000000 1.0
C      1  0.4758800000000  0.4652080000000  0.5803240000000 1.0
C      1  0.4817580000000  0.4865360000000  0.4198640000000 1.0
C      1  0.4817400000000  0.5157400000000  0.4202840000000 1.0
C      1  0.5509980000000  0.5160260000000  0.4408050000000 1.0
C      1  0.5510170000000  0.4857470000000  0.4403700000000 1.0
C      1  0.4510290000000  0.4733090000000  0.4583710000000 1.0
C      1  0.4509950000000  0.5278150000000  0.4591550000000 1.0
C      1  0.5036580000000  0.5510660000000  0.4499300000000 1.0
C      1  0.5037220000000  0.4504000000000  0.4484820000000 1.0
C      1  0.4402010000000  0.5256360000000  0.5182740000000 1.0
C      1  0.4402340000000  0.4737740000000  0.5175280000000 1.0
C      1  0.4630070000000  0.5366930000000  0.5571310000000 1.0
C      1  0.4630550000000  0.4616320000000  0.5560510000000 1.0
C      1  0.4952930000000  0.5142280000000  0.5879790000000 1.0
C      1  0.4953120000000  0.4832420000000  0.5875330000000 1.0
C      1  0.4705410000000  0.5582020000000  0.5350820000000 1.0
C      1  0.4706160000000  0.4407760000000  0.5333930000000 1.0
C      1  0.5278320000000  0.4863020000000  0.4228270000000 1.0
C      1  0.5278130000000  0.5159470000000  0.4232530000000 1.0
C      1  0.4476830000000  0.5634550000000  0.4910640000000 1.0
C      1  0.4477630000000  0.4367620000000  0.4892420000000 1.0
C      1  0.5134050000000  0.4699870000000  0.5159100000000 1.0
C      1  0.5133670000000  0.5295600000000  0.5167670000000 1.0
C      1  0.5788010000000  0.4841830000000  0.5342810000000 1.0
C      1  0.5787810000000  0.5149240000000  0.5347230000000 1.0
C      1  0.5566800000000  0.4662980000000  0.4936600000000 1.0
C      1  0.5566380000000  0.5339420000000  0.4946330000000 1.0
C      1  0.4556700000000  0.5153740000000  0.4328970000000 1.0
C      1  0.4556880000000  0.4865060000000  0.4324820000000 1.0
C      1  0.4493720000000  0.5544970000000  0.5161880000000 1.0
C      1  0.4494420000000  0.4449960000000  0.5146130000000 1.0
C      1  0.4954330000000  0.4287780000000  0.5223550000000 1.0
C      1  0.4953430000000  0.5705440000000  0.5243950000000 1.0
C      1  0.4837620000000  0.4327590000000  0.4622310000000 1.0
C      1  0.4836760000000  0.5682790000000  0.4641800000000 1.0
END
