TITL C-15932-658-6 -80.5327409030669 125000 -133.117760865073 0 0 21 (C1) n - 1
REM
REM in /rds/project/t2_vol4/rds-t2-cs072/BORA/CARBON/from-Arr/AIRSS/Generating-Clusters/GAP-ML-2020/Higher-Symm/SD-CG/HFTN-CG
REM
REM
REM
REM
REM
REM ./C.cell (b20cbc046b6831c77cfcea5457e17084)
REM AIRSS Version 0.9.1 bugfix July 2018 build 013d7b7c2542+ Fri, 06 Jul 2018 19:26:36 +0100
REM compiler GCC version 9.3.0
REM options -cpp -mtune=generic -march=x86-64 -g -O0
REM seed 1322089650 1433795568 -1579852964 607044875 -111337618 2081959832 474787188 1851844509 -22540319 1956362325 -1005746161 -991806582 -2020876162 -551523961 952211120 431625797 1409633561 -519027951 -194754396 539945013 1997270288 774583105 -1581790715 1096796154 -1998628645 -1530524820 -213492161 51772634 -1149170454 1578420054 1876945917 1078974570 940661080
REM
CELL 1.54180   50.00000   50.00000   50.00000   90.00000   90.00000   90.00000
LATT -1
SFAC C  
C      1  0.5230100000000  0.5315770000000  0.4785780000000 1.0
C      1  0.4614950000000  0.5053460000000  0.4788500000000 1.0
C      1  0.5163560000000  0.4633850000000  0.4812830000000 1.0
C      1  0.4545810000000  0.5319790000000  0.5090980000000 1.0
C      1  0.4923700000000  0.4437940000000  0.5080700000000 1.0
C      1  0.5507310000000  0.5243640000000  0.5079350000000 1.0
C      1  0.4410840000000  0.5063970000000  0.5003240000000 1.0
C      1  0.5249470000000  0.4469300000000  0.5048130000000 1.0
C      1  0.5349810000000  0.5487970000000  0.4995780000000 1.0
C      1  0.4979830000000  0.5410370000000  0.4883290000000 1.0
C      1  0.4666090000000  0.4786840000000  0.4878570000000 1.0
C      1  0.5374660000000  0.4820390000000  0.4863140000000 1.0
C      1  0.4716730000000  0.5306250000000  0.4869890000000 1.0
C      1  0.4884560000000  0.4604740000000  0.4864240000000 1.0
C      1  0.5396700000000  0.5098950000000  0.4865040000000 1.0
C      1  0.4482450000000  0.4802380000000  0.5092130000000 1.0
C      1  0.5456580000000  0.4656110000000  0.5076660000000 1.0
C      1  0.5090960000000  0.5556900000000  0.5096110000000 1.0
C      1  0.5095290000000  0.4392830000000  0.5276130000000 1.0
C      1  0.5391510000000  0.5400860000000  0.5270800000000 1.0
C      1  0.4469100000000  0.5137700000000  0.5278720000000 1.0
END
