TITL C-152265-5838-9 0.00228224540589626 125000 -220.439872890363 0 0 34 (C3) n - 1
REM
REM in /rds/project/t2_vol4/rds-t2-cs072/BORA/CARBON/from-Arr/AIRSS/Generating-Clusters/GAP-ML-2020/Higher-Symm/SD-CG/HFTN-CG
REM
REM
REM
REM
REM
REM ./C.cell (b20cbc046b6831c77cfcea5457e17084)
REM AIRSS Version 0.9.1 bugfix July 2018 build 013d7b7c2542+ Fri, 06 Jul 2018 19:26:36 +0100
REM compiler GCC version 9.3.0
REM options -cpp -mtune=generic -march=x86-64 -g -O0
REM seed 293069930 709077272 1828219389 510833629 810304513 1062398064 1540342838 -751931560 34705722 1207366479 -42944303 731477419 -131386046 1737338294 -1390365431 -1806033604 857815866 632946831 1455174472 250097002 598805491 -1137646312 -1593012582 840193893 -1664187482 23199049 1508430039 123196832 1946925503 -549663599 597144967 1300825999 -916150395
REM
CELL 1.54180   50.00000   50.00000   50.00000   90.00000   90.00000   90.00000
LATT -1
SFAC C  
C      1  0.4847590000000  0.4976730000000  0.5670040000000 1.0
C      1  0.4523720000000  0.5094260000000  0.4536080000000 1.0
C      1  0.5663710000000  0.4924740000000  0.4812240000000 1.0
C      1  0.5359820000000  0.5304250000000  0.4777410000000 1.0
C      1  0.5116390000000  0.5294570000000  0.5416460000000 1.0
C      1  0.4690110000000  0.5385810000000  0.4889500000000 1.0
C      1  0.5432860000000  0.5036480000000  0.4679120000000 1.0
C      1  0.5097440000000  0.5024890000000  0.5533110000000 1.0
C      1  0.4532910000000  0.5146710000000  0.4820090000000 1.0
C      1  0.5521880000000  0.5015530000000  0.5046730000000 1.0
C      1  0.4739760000000  0.5094220000000  0.5429400000000 1.0
C      1  0.4807430000000  0.5142440000000  0.4559090000000 1.0
C      1  0.4595580000000  0.4909430000000  0.4974120000000 1.0
C      1  0.5213560000000  0.4847910000000  0.4661680000000 1.0
C      1  0.5168770000000  0.4808330000000  0.5354300000000 1.0
C      1  0.5650770000000  0.4644560000000  0.4815400000000 1.0
C      1  0.4780680000000  0.4704440000000  0.5662070000000 1.0
C      1  0.4493770000000  0.4819800000000  0.4486540000000 1.0
C      1  0.5332970000000  0.5377010000000  0.5282440000000 1.0
C      1  0.4721220000000  0.5467430000000  0.5142540000000 1.0
C      1  0.5152040000000  0.5440750000000  0.4678140000000 1.0
C      1  0.4829660000000  0.5362530000000  0.5363630000000 1.0
C      1  0.4887710000000  0.5400730000000  0.4665090000000 1.0
C      1  0.5459250000000  0.5298900000000  0.5059740000000 1.0
C      1  0.4950900000000  0.4934290000000  0.4724430000000 1.0
C      1  0.5262050000000  0.4868720000000  0.5093460000000 1.0
C      1  0.4786650000000  0.4925960000000  0.5182950000000 1.0
C      1  0.4795350000000  0.4512160000000  0.5492460000000 1.0
C      1  0.4581640000000  0.4600090000000  0.4586350000000 1.0
C      1  0.5469690000000  0.4465090000000  0.4846320000000 1.0
C      1  0.4734240000000  0.4724890000000  0.4782990000000 1.0
C      1  0.5262750000000  0.4648360000000  0.4879780000000 1.0
C      1  0.4911270000000  0.4667880000000  0.5292850000000 1.0
C      1  0.5014240000000  0.5017900000000  0.5007390000000 1.0
END
