TITL C-154523-3086-2 -211.69191006868 125000 -888.955239765674 0 0 127 (C1) n - 1
REM
REM in /rds/project/t2_vol4/rds-t2-cs072/BORA/CARBON/from-Arr/AIRSS/Generating-Clusters/GAP-ML-2020/Higher-Symm/SD-CG/HFTN-CG
REM
REM
REM
REM
REM
REM ./C.cell (b20cbc046b6831c77cfcea5457e17084)
REM AIRSS Version 0.9.1 bugfix July 2018 build 013d7b7c2542+ Fri, 06 Jul 2018 19:26:36 +0100
REM compiler GCC version 9.3.0
REM options -cpp -mtune=generic -march=x86-64 -g -O0
REM seed 1719881242 -508614627 1650366950 1123955450 1152104376 -243563163 2040558367 1390554849 -767322591 1317378737 598539728 1880477403 -1461213156 -1953431032 445090377 -884305400 -2077734137 -541480237 -1638486000 -1261054109 135594331 -1046125711 1393713593 95644913 2067450657 2145570156 2071999480 705838361 -1658041352 -381062176 870720497 653419855 -556747121
REM
CELL 1.54180   50.00000   50.00000   50.00000   90.00000   90.00000   90.00000
LATT -1
SFAC C  
C      1  0.5315970000000  0.5470300000000  0.4225890000000 1.0
C      1  0.5846380000000  0.5481540000000  0.4728550000000 1.0
C      1  0.5831780000000  0.5512760000000  0.5186060000000 1.0
C      1  0.5408330000000  0.5486580000000  0.5745230000000 1.0
C      1  0.4960200000000  0.5517610000000  0.5843080000000 1.0
C      1  0.4335280000000  0.5502340000000  0.5531620000000 1.0
C      1  0.4182040000000  0.5522390000000  0.5054810000000 1.0
C      1  0.4338230000000  0.5511450000000  0.4471740000000 1.0
C      1  0.4777400000000  0.5511800000000  0.4235870000000 1.0
C      1  0.5797020000000  0.5016990000000  0.4567180000000 1.0
C      1  0.5695070000000  0.5048790000000  0.5250930000000 1.0
C      1  0.5578720000000  0.5015380000000  0.5702700000000 1.0
C      1  0.4876280000000  0.5050400000000  0.5737390000000 1.0
C      1  0.4417230000000  0.5023120000000  0.5682310000000 1.0
C      1  0.4272830000000  0.5042220000000  0.5004860000000 1.0
C      1  0.4199340000000  0.5013960000000  0.4536090000000 1.0
C      1  0.4826400000000  0.5039300000000  0.4287370000000 1.0
C      1  0.5377440000000  0.5068740000000  0.4404290000000 1.0
C      1  0.5188830000000  0.5718360000000  0.4304380000000 1.0
C      1  0.5682790000000  0.5711620000000  0.4799620000000 1.0
C      1  0.5688060000000  0.5734790000000  0.5076810000000 1.0
C      1  0.5296300000000  0.5729630000000  0.5604410000000 1.0
C      1  0.5023900000000  0.5746110000000  0.5684680000000 1.0
C      1  0.4475010000000  0.5729300000000  0.5469190000000 1.0
C      1  0.4306210000000  0.5745280000000  0.4930790000000 1.0
C      1  0.4406320000000  0.5733580000000  0.4647900000000 1.0
C      1  0.4903220000000  0.5755310000000  0.4298160000000 1.0
C      1  0.4836860000000  0.5305140000000  0.4819240000000 1.0
C      1  0.5026270000000  0.5389500000000  0.4612960000000 1.0
C      1  0.5312370000000  0.5456690000000  0.4689680000000 1.0
C      1  0.5402260000000  0.5305840000000  0.4914100000000 1.0
C      1  0.5383540000000  0.5436390000000  0.5175550000000 1.0
C      1  0.5133980000000  0.5309710000000  0.5276780000000 1.0
C      1  0.4889780000000  0.5442100000000  0.5400770000000 1.0
C      1  0.4673330000000  0.5318450000000  0.5239310000000 1.0
C      1  0.4615450000000  0.5438910000000  0.4978690000000 1.0
C      1  0.4225220000000  0.5291710000000  0.4610310000000 1.0
C      1  0.4544260000000  0.5110510000000  0.4236120000000 1.0
C      1  0.5204330000000  0.5186580000000  0.4189240000000 1.0
C      1  0.5754390000000  0.5301210000000  0.4533920000000 1.0
C      1  0.5888510000000  0.5082750000000  0.5026450000000 1.0
C      1  0.5591210000000  0.5297500000000  0.5636440000000 1.0
C      1  0.5137520000000  0.5086370000000  0.5880490000000 1.0
C      1  0.4478100000000  0.5301320000000  0.5688500000000 1.0
C      1  0.4180850000000  0.5108980000000  0.5277980000000 1.0
C      1  0.4307600000000  0.4645100000000  0.5377500000000 1.0
C      1  0.4209230000000  0.4600290000000  0.4809590000000 1.0
C      1  0.4482400000000  0.4633630000000  0.4372440000000 1.0
C      1  0.5067110000000  0.4654060000000  0.4187910000000 1.0
C      1  0.5563860000000  0.4602660000000  0.4419480000000 1.0
C      1  0.5788450000000  0.4630740000000  0.4884060000000 1.0
C      1  0.5677180000000  0.4597470000000  0.5441440000000 1.0
C      1  0.5259690000000  0.4636430000000  0.5755260000000 1.0
C      1  0.4684450000000  0.4598200000000  0.5741340000000 1.0
C      1  0.4804350000000  0.4520110000000  0.4326050000000 1.0
C      1  0.5281820000000  0.4521110000000  0.4355970000000 1.0
C      1  0.5625060000000  0.4486550000000  0.4688020000000 1.0
C      1  0.5678900000000  0.4512870000000  0.5146140000000 1.0
C      1  0.5420610000000  0.4491340000000  0.5556020000000 1.0
C      1  0.4977880000000  0.4512330000000  0.5693860000000 1.0
C      1  0.4525370000000  0.4495020000000  0.5508850000000 1.0
C      1  0.4320420000000  0.4515730000000  0.5089760000000 1.0
C      1  0.4360590000000  0.4487730000000  0.4588630000000 1.0
C      1  0.4734930000000  0.4526240000000  0.5282870000000 1.0
C      1  0.4618470000000  0.4618700000000  0.5034120000000 1.0
C      1  0.4726980000000  0.4486510000000  0.4805350000000 1.0
C      1  0.4881040000000  0.4619910000000  0.4606870000000 1.0
C      1  0.5180570000000  0.4637000000000  0.4632560000000 1.0
C      1  0.5341590000000  0.4527060000000  0.4829540000000 1.0
C      1  0.5381660000000  0.4626120000000  0.5097240000000 1.0
C      1  0.5230650000000  0.4529430000000  0.5311730000000 1.0
C      1  0.4973920000000  0.4621500000000  0.5397980000000 1.0
C      1  0.5413340000000  0.4047590000000  0.5099860000000 1.0
C      1  0.5259020000000  0.4036100000000  0.5332610000000 1.0
C      1  0.4974660000000  0.4044610000000  0.5419150000000 1.0
C      1  0.4717990000000  0.4031660000000  0.5306220000000 1.0
C      1  0.4586660000000  0.4040670000000  0.5043230000000 1.0
C      1  0.4651880000000  0.4047460000000  0.4760780000000 1.0
C      1  0.4888060000000  0.4053290000000  0.4593860000000 1.0
C      1  0.5179780000000  0.4056060000000  0.4610290000000 1.0
C      1  0.5384010000000  0.4035390000000  0.4803140000000 1.0
C      1  0.5344460000000  0.4895590000000  0.5832160000000 1.0
C      1  0.4641360000000  0.4871260000000  0.5782250000000 1.0
C      1  0.4253750000000  0.4910190000000  0.5470500000000 1.0
C      1  0.4157890000000  0.4870740000000  0.4781280000000 1.0
C      1  0.4373830000000  0.4901220000000  0.4335880000000 1.0
C      1  0.5043150000000  0.4919890000000  0.4122590000000 1.0
C      1  0.5607920000000  0.4878940000000  0.4406380000000 1.0
C      1  0.5877100000000  0.4893280000000  0.4817340000000 1.0
C      1  0.5711040000000  0.4868690000000  0.5495220000000 1.0
C      1  0.5199150000000  0.5853800000000  0.4575550000000 1.0
C      1  0.5375470000000  0.5738090000000  0.4777960000000 1.0
C      1  0.5384550000000  0.5737310000000  0.5103000000000 1.0
C      1  0.5223250000000  0.5831340000000  0.5326860000000 1.0
C      1  0.4932220000000  0.5757540000000  0.5395580000000 1.0
C      1  0.4662360000000  0.5832350000000  0.5295040000000 1.0
C      1  0.4598460000000  0.5758920000000  0.5011560000000 1.0
C      1  0.4665240000000  0.5855940000000  0.4728460000000 1.0
C      1  0.4902290000000  0.5882960000000  0.4575060000000 1.0
C      1  0.5207550000000  0.5042490000000  0.5361680000000 1.0
C      1  0.4945430000000  0.4924560000000  0.5418140000000 1.0
C      1  0.4777280000000  0.5048960000000  0.5196970000000 1.0
C      1  0.4594570000000  0.4923670000000  0.4999470000000 1.0
C      1  0.4707120000000  0.5051970000000  0.4759410000000 1.0
C      1  0.4875080000000  0.4921200000000  0.4576900000000 1.0
C      1  0.5183960000000  0.4952990000000  0.4635600000000 1.0
C      1  0.5255160000000  0.5062540000000  0.4910710000000 1.0
C      1  0.5384630000000  0.4928030000000  0.5145960000000 1.0
C      1  0.5185460000000  0.4244920000000  0.4378400000000 1.0
C      1  0.5619620000000  0.4212950000000  0.4780160000000 1.0
C      1  0.5643460000000  0.4231190000000  0.5069360000000 1.0
C      1  0.5323060000000  0.4219360000000  0.5556830000000 1.0
C      1  0.5046850000000  0.4229130000000  0.5641250000000 1.0
C      1  0.4512080000000  0.4223760000000  0.5406310000000 1.0
C      1  0.4376800000000  0.4228780000000  0.5154440000000 1.0
C      1  0.4530000000000  0.4289190000000  0.4683960000000 1.0
C      1  0.4898870000000  0.4239490000000  0.4355650000000 1.0
C      1  0.5193470000000  0.5365420000000  0.5894480000000 1.0
C      1  0.4774410000000  0.5334790000000  0.5702530000000 1.0
C      1  0.4181650000000  0.5395500000000  0.5312570000000 1.0
C      1  0.4294680000000  0.5312960000000  0.4887600000000 1.0
C      1  0.4515160000000  0.5400450000000  0.4274930000000 1.0
C      1  0.4965100000000  0.5301990000000  0.4314640000000 1.0
C      1  0.5477590000000  0.5352880000000  0.4449650000000 1.0
C      1  0.5937670000000  0.5358570000000  0.4973440000000 1.0
C      1  0.5647370000000  0.5333580000000  0.5345640000000 1.0
C      1  0.5008590000000  0.5187040000000  0.5031540000000 1.0
END
