TITL C-15931-774-9 -0.0331987254831795 125000 -663.675873123524 0 0 97 (C2) n - 1
REM
REM in /rds/project/t2_vol4/rds-t2-cs072/BORA/CARBON/from-Arr/AIRSS/Generating-Clusters/GAP-ML-2020/Higher-Symm/SD-CG/HFTN-CG
REM
REM
REM
REM
REM
REM ./C.cell (b20cbc046b6831c77cfcea5457e17084)
REM AIRSS Version 0.9.1 bugfix July 2018 build 013d7b7c2542+ Fri, 06 Jul 2018 19:26:36 +0100
REM compiler GCC version 9.3.0
REM options -cpp -mtune=generic -march=x86-64 -g -O0
REM seed -872695921 1803841563 712609288 -2011932067 -128892687 -965514880 -1590868006 1440415549 466181596 -111799862 -973541937 1384929276 -1740905518 92681260 -158819326 -2034569654 194717187 -338550433 -1877804488 148841735 1066010441 -1047105956 412350021 124151047 -1598535664 -1700119757 -767318898 -1780575014 329303548 758786985 1542041677 -625474774 1182489552
REM
CELL 1.54180   50.00000   50.00000   50.00000   90.00000   90.00000   90.00000
LATT -1
SFAC C  
C      1  0.4903200000000  0.4512860000000  0.4863250000000 1.0
C      1  0.4962130000000  0.5497820000000  0.5151030000000 1.0
C      1  0.5857010000000  0.4589710000000  0.4541460000000 1.0
C      1  0.5942030000000  0.5344300000000  0.5339270000000 1.0
C      1  0.4040540000000  0.5167830000000  0.5096370000000 1.0
C      1  0.4026730000000  0.4914120000000  0.5042090000000 1.0
C      1  0.5091210000000  0.4726300000000  0.4965400000000 1.0
C      1  0.5116920000000  0.5270790000000  0.5025210000000 1.0
C      1  0.4695990000000  0.4738840000000  0.5204810000000 1.0
C      1  0.4692840000000  0.5290720000000  0.4842380000000 1.0
C      1  0.4489710000000  0.4936550000000  0.4351490000000 1.0
C      1  0.4590710000000  0.5105240000000  0.5717010000000 1.0
C      1  0.5600920000000  0.5090950000000  0.4849560000000 1.0
C      1  0.5607380000000  0.4866490000000  0.5071970000000 1.0
C      1  0.5582690000000  0.5752880000000  0.4885340000000 1.0
C      1  0.5532320000000  0.4208260000000  0.5042640000000 1.0
C      1  0.5517440000000  0.4954160000000  0.4596070000000 1.0
C      1  0.5570520000000  0.5008050000000  0.5333780000000 1.0
C      1  0.4738320000000  0.4729760000000  0.4689430000000 1.0
C      1  0.4806090000000  0.5293640000000  0.5347020000000 1.0
C      1  0.5391190000000  0.5321800000000  0.4942810000000 1.0
C      1  0.5369310000000  0.4653390000000  0.5009650000000 1.0
C      1  0.5214920000000  0.4715500000000  0.5455650000000 1.0
C      1  0.5172640000000  0.5274470000000  0.4522570000000 1.0
C      1  0.5406560000000  0.5599400000000  0.5363150000000 1.0
C      1  0.5304920000000  0.4377730000000  0.4592700000000 1.0
C      1  0.4211800000000  0.4724740000000  0.4950450000000 1.0
C      1  0.4250770000000  0.5341550000000  0.5160710000000 1.0
C      1  0.4651790000000  0.4640000000000  0.5687770000000 1.0
C      1  0.4590690000000  0.5395360000000  0.4369530000000 1.0
C      1  0.4543440000000  0.4275510000000  0.4688660000000 1.0
C      1  0.4649560000000  0.5761820000000  0.5372050000000 1.0
C      1  0.4608760000000  0.4419830000000  0.4436710000000 1.0
C      1  0.4737270000000  0.5611440000000  0.5613440000000 1.0
C      1  0.5823410000000  0.5420170000000  0.5108220000000 1.0
C      1  0.5765620000000  0.4522170000000  0.4787020000000 1.0
C      1  0.4508480000000  0.5180500000000  0.5267420000000 1.0
C      1  0.4464300000000  0.4865550000000  0.4808510000000 1.0
C      1  0.5239120000000  0.4976170000000  0.4516280000000 1.0
C      1  0.5304930000000  0.5007600000000  0.5451130000000 1.0
C      1  0.4729020000000  0.4442790000000  0.5096740000000 1.0
C      1  0.4763610000000  0.5582670000000  0.4943280000000 1.0
C      1  0.5352010000000  0.5464030000000  0.4660420000000 1.0
C      1  0.5358180000000  0.4513160000000  0.5295520000000 1.0
C      1  0.5158920000000  0.4290300000000  0.5286200000000 1.0
C      1  0.5174100000000  0.5701840000000  0.4695780000000 1.0
C      1  0.4492780000000  0.4326620000000  0.4961680000000 1.0
C      1  0.4558040000000  0.5716340000000  0.5108860000000 1.0
C      1  0.4791960000000  0.5320400000000  0.5660880000000 1.0
C      1  0.4679180000000  0.4705910000000  0.4380630000000 1.0
C      1  0.4772460000000  0.4225520000000  0.4547670000000 1.0
C      1  0.4898990000000  0.5792840000000  0.5480010000000 1.0
C      1  0.4444050000000  0.5012400000000  0.5502530000000 1.0
C      1  0.4381650000000  0.5039490000000  0.4583550000000 1.0
C      1  0.5616830000000  0.4715930000000  0.4478340000000 1.0
C      1  0.5703590000000  0.5237060000000  0.5435450000000 1.0
C      1  0.4273620000000  0.4472390000000  0.5078190000000 1.0
C      1  0.4314160000000  0.5588930000000  0.5024330000000 1.0
C      1  0.4307640000000  0.4517740000000  0.5349890000000 1.0
C      1  0.4306890000000  0.5542520000000  0.4750780000000 1.0
C      1  0.5032550000000  0.4280650000000  0.4693540000000 1.0
C      1  0.5131430000000  0.5718180000000  0.5300120000000 1.0
C      1  0.5040060000000  0.5095580000000  0.5261300000000 1.0
C      1  0.4996710000000  0.4908300000000  0.4741140000000 1.0
C      1  0.4450580000000  0.5333770000000  0.4618630000000 1.0
C      1  0.4484100000000  0.4713800000000  0.5459920000000 1.0
C      1  0.4976600000000  0.4950040000000  0.5911710000000 1.0
C      1  0.4856240000000  0.5061920000000  0.4104820000000 1.0
C      1  0.4982810000000  0.4810820000000  0.5234400000000 1.0
C      1  0.4966310000000  0.5196530000000  0.4774100000000 1.0
C      1  0.4602750000000  0.5152070000000  0.4213350000000 1.0
C      1  0.4704300000000  0.4880740000000  0.5839490000000 1.0
C      1  0.4915590000000  0.4800560000000  0.4211320000000 1.0
C      1  0.5041180000000  0.5206500000000  0.5796650000000 1.0
C      1  0.4858750000000  0.4462910000000  0.5612550000000 1.0
C      1  0.4819320000000  0.5555190000000  0.4414670000000 1.0
C      1  0.5260140000000  0.4108060000000  0.5095660000000 1.0
C      1  0.5314550000000  0.5874500000000  0.4869630000000 1.0
C      1  0.5182820000000  0.4775540000000  0.4311300000000 1.0
C      1  0.5293290000000  0.5210920000000  0.5660800000000 1.0
C      1  0.5645710000000  0.5549090000000  0.4691580000000 1.0
C      1  0.5637200000000  0.4405390000000  0.5224800000000 1.0
C      1  0.5485390000000  0.4407610000000  0.4823780000000 1.0
C      1  0.5550690000000  0.5556660000000  0.5109650000000 1.0
C      1  0.5039370000000  0.5407400000000  0.4291970000000 1.0
C      1  0.5104510000000  0.4592240000000  0.5703080000000 1.0
C      1  0.4894160000000  0.5671900000000  0.4671530000000 1.0
C      1  0.4888200000000  0.4342070000000  0.5348480000000 1.0
C      1  0.5086990000000  0.4075910000000  0.4893640000000 1.0
C      1  0.5173850000000  0.5919090000000  0.5093330000000 1.0
C      1  0.5364830000000  0.4571880000000  0.4400460000000 1.0
C      1  0.5476800000000  0.5400090000000  0.5546400000000 1.0
C      1  0.5131900000000  0.4727620000000  0.5941640000000 1.0
C      1  0.5023000000000  0.5271580000000  0.4052640000000 1.0
C      1  0.5785640000000  0.4611950000000  0.5064480000000 1.0
C      1  0.5798010000000  0.5330610000000  0.4831130000000 1.0
C      1  0.4602360000000  0.5018430000000  0.5029950000000 1.0
END
