TITL C-156514-8916-2 0.127134729365315 125000 -1164.92787207899 0 0 164 (C1) n - 1
REM
REM in /rds/project/t2_vol4/rds-t2-cs072/BORA/CARBON/from-Arr/AIRSS/Generating-Clusters/GAP-ML-2020/Higher-Symm/SD-CG/HFTN-CG/C160-200
REM
REM
REM
REM
REM
REM ./C.cell (6b4489405718ea1b717e0baf1da4c2d9)
REM AIRSS Version 0.9.1 bugfix July 2018 build 013d7b7c2542+ Fri, 06 Jul 2018 19:26:36 +0100
REM compiler GCC version 9.3.0
REM options -cpp -mtune=generic -march=x86-64 -g -O0
REM seed 714512661 757455719 1689266660 1472757978 -659473709 -1410698681 -485325646 -1954412862 -11050977 1235767827 -467347923 1697667187 -2094014925 181220752 1686086667 995651576 -476959880 464330903 -763481584 -350619136 204902234 603511804 1992190025 -929290030 -2089062251 1766949717 -1086763908 -1053717452 -2017657650 -1610836141 -1486986596 -331061029 -301473346
REM
CELL 1.54180   50.00000   50.00000   50.00000   90.00000   90.00000   90.00000
LATT -1
SFAC C  
C      1  0.5744190000000  0.5706560000000  0.4662610000000 1.0
C      1  0.5723990000000  0.4362820000000  0.4664720000000 1.0
C      1  0.4955290000000  0.4456610000000  0.4649770000000 1.0
C      1  0.4964850000000  0.5418130000000  0.4619930000000 1.0
C      1  0.5060250000000  0.4687680000000  0.5537180000000 1.0
C      1  0.5158020000000  0.5363230000000  0.5552120000000 1.0
C      1  0.5011110000000  0.5701120000000  0.5904320000000 1.0
C      1  0.4978070000000  0.4320290000000  0.5861540000000 1.0
C      1  0.4704320000000  0.3984070000000  0.4758630000000 1.0
C      1  0.4724910000000  0.5985420000000  0.4767040000000 1.0
C      1  0.5048700000000  0.5683710000000  0.4164980000000 1.0
C      1  0.5019900000000  0.4383860000000  0.4180570000000 1.0
C      1  0.4766470000000  0.4062420000000  0.4488540000000 1.0
C      1  0.4793990000000  0.5939380000000  0.4482260000000 1.0
C      1  0.4529050000000  0.4187270000000  0.4400610000000 1.0
C      1  0.4561720000000  0.5813180000000  0.4374250000000 1.0
C      1  0.5298870000000  0.4003230000000  0.5136430000000 1.0
C      1  0.5305850000000  0.6012570000000  0.5147110000000 1.0
C      1  0.4927240000000  0.3953300000000  0.4928990000000 1.0
C      1  0.4931520000000  0.6037740000000  0.4954690000000 1.0
C      1  0.4521410000000  0.5709340000000  0.5661560000000 1.0
C      1  0.4502600000000  0.4279370000000  0.5629860000000 1.0
C      1  0.5364610000000  0.4674330000000  0.5188720000000 1.0
C      1  0.5432770000000  0.5340140000000  0.5116760000000 1.0
C      1  0.5893430000000  0.5454930000000  0.4700970000000 1.0
C      1  0.5889990000000  0.4593520000000  0.4706070000000 1.0
C      1  0.4597230000000  0.4637820000000  0.5342650000000 1.0
C      1  0.4695450000000  0.5373500000000  0.5404950000000 1.0
C      1  0.4896680000000  0.5513250000000  0.5569070000000 1.0
C      1  0.4833300000000  0.4507290000000  0.5507290000000 1.0
C      1  0.5346640000000  0.4734090000000  0.4735280000000 1.0
C      1  0.5384440000000  0.5214330000000  0.4651050000000 1.0
C      1  0.4913840000000  0.4208870000000  0.5410340000000 1.0
C      1  0.4937630000000  0.5830800000000  0.5474740000000 1.0
C      1  0.5159320000000  0.4523680000000  0.5943170000000 1.0
C      1  0.5197370000000  0.5499520000000  0.5960560000000 1.0
C      1  0.4361590000000  0.4726930000000  0.5737760000000 1.0
C      1  0.4377300000000  0.5262810000000  0.5745930000000 1.0
C      1  0.4177650000000  0.4398390000000  0.5254780000000 1.0
C      1  0.4229610000000  0.5556710000000  0.5249960000000 1.0
C      1  0.4632000000000  0.4524420000000  0.5077500000000 1.0
C      1  0.4711200000000  0.5506560000000  0.5136820000000 1.0
C      1  0.5625440000000  0.5896670000000  0.4851600000000 1.0
C      1  0.5554300000000  0.4249200000000  0.4880160000000 1.0
C      1  0.5570700000000  0.5912330000000  0.5140340000000 1.0
C      1  0.5550650000000  0.4128670000000  0.5157810000000 1.0
C      1  0.5102840000000  0.4716590000000  0.4598230000000 1.0
C      1  0.5130410000000  0.5191900000000  0.4514810000000 1.0
C      1  0.5061760000000  0.5893820000000  0.4357840000000 1.0
C      1  0.5027920000000  0.4224830000000  0.4425020000000 1.0
C      1  0.4709660000000  0.5326620000000  0.4650200000000 1.0
C      1  0.4666560000000  0.4500410000000  0.4613630000000 1.0
C      1  0.5368140000000  0.5437640000000  0.4839720000000 1.0
C      1  0.5355820000000  0.4520200000000  0.4938290000000 1.0
C      1  0.4813600000000  0.5164890000000  0.6012680000000 1.0
C      1  0.4821660000000  0.4880770000000  0.5929700000000 1.0
C      1  0.4584960000000  0.5324040000000  0.4916660000000 1.0
C      1  0.4489860000000  0.4616080000000  0.4818000000000 1.0
C      1  0.5338350000000  0.5912090000000  0.4465440000000 1.0
C      1  0.5319370000000  0.4160230000000  0.4479360000000 1.0
C      1  0.5031330000000  0.4159810000000  0.5133290000000 1.0
C      1  0.5039190000000  0.5859150000000  0.5196700000000 1.0
C      1  0.4806690000000  0.5529150000000  0.4103050000000 1.0
C      1  0.4780990000000  0.4538220000000  0.4143860000000 1.0
C      1  0.5078720000000  0.4777900000000  0.6026980000000 1.0
C      1  0.5086620000000  0.5249830000000  0.6032140000000 1.0
C      1  0.4350380000000  0.4504630000000  0.5510730000000 1.0
C      1  0.4400920000000  0.5467730000000  0.5520560000000 1.0
C      1  0.5976730000000  0.5288470000000  0.4936610000000 1.0
C      1  0.5951200000000  0.4757560000000  0.4947840000000 1.0
C      1  0.5347290000000  0.4541520000000  0.5708790000000 1.0
C      1  0.5387940000000  0.5499410000000  0.5707280000000 1.0
C      1  0.5688010000000  0.5275130000000  0.4261850000000 1.0
C      1  0.5681390000000  0.4765380000000  0.4262000000000 1.0
C      1  0.5106350000000  0.4755010000000  0.5263890000000 1.0
C      1  0.5165840000000  0.5332560000000  0.5251250000000 1.0
C      1  0.5916140000000  0.5291570000000  0.5219530000000 1.0
C      1  0.5847280000000  0.4761330000000  0.5236160000000 1.0
C      1  0.5627000000000  0.4630530000000  0.5677060000000 1.0
C      1  0.5592510000000  0.5330680000000  0.5580820000000 1.0
C      1  0.5004690000000  0.5557520000000  0.5099010000000 1.0
C      1  0.4912210000000  0.4634850000000  0.5052290000000 1.0
C      1  0.4711740000000  0.4425300000000  0.5780090000000 1.0
C      1  0.4732680000000  0.5588080000000  0.5830300000000 1.0
C      1  0.4124810000000  0.5367080000000  0.5060830000000 1.0
C      1  0.4071860000000  0.4604810000000  0.5092100000000 1.0
C      1  0.4165180000000  0.4430760000000  0.4574800000000 1.0
C      1  0.4257920000000  0.5504750000000  0.4545870000000 1.0
C      1  0.4541460000000  0.4235680000000  0.5159560000000 1.0
C      1  0.4572860000000  0.5790680000000  0.5217460000000 1.0
C      1  0.4283430000000  0.4177930000000  0.5083980000000 1.0
C      1  0.4332750000000  0.5791380000000  0.5090360000000 1.0
C      1  0.4548710000000  0.5586580000000  0.4197170000000 1.0
C      1  0.4555330000000  0.4469730000000  0.4320140000000 1.0
C      1  0.4422260000000  0.4079270000000  0.4833600000000 1.0
C      1  0.4453980000000  0.5870910000000  0.4826960000000 1.0
C      1  0.4609650000000  0.5333760000000  0.5915170000000 1.0
C      1  0.4602190000000  0.4681100000000  0.5878180000000 1.0
C      1  0.5065550000000  0.4412520000000  0.4931070000000 1.0
C      1  0.5106740000000  0.5535310000000  0.4826820000000 1.0
C      1  0.5884380000000  0.5273650000000  0.4473270000000 1.0
C      1  0.5879850000000  0.4770980000000  0.4473130000000 1.0
C      1  0.5376050000000  0.4058130000000  0.4731380000000 1.0
C      1  0.5403250000000  0.6029380000000  0.4716970000000 1.0
C      1  0.5101480000000  0.4182230000000  0.5636570000000 1.0
C      1  0.5133820000000  0.5856910000000  0.5687170000000 1.0
C      1  0.5247160000000  0.4543140000000  0.4109310000000 1.0
C      1  0.5264230000000  0.5501460000000  0.4144610000000 1.0
C      1  0.4172420000000  0.4567950000000  0.4822210000000 1.0
C      1  0.4277760000000  0.5348530000000  0.4801140000000 1.0
C      1  0.5206000000000  0.3897280000000  0.4885660000000 1.0
C      1  0.5204480000000  0.6111200000000  0.4900030000000 1.0
C      1  0.5546550000000  0.4327620000000  0.4421770000000 1.0
C      1  0.5561690000000  0.5728960000000  0.4422820000000 1.0
C      1  0.4358500000000  0.5385840000000  0.4292640000000 1.0
C      1  0.4283130000000  0.4594890000000  0.4354120000000 1.0
C      1  0.4628960000000  0.4144190000000  0.5420010000000 1.0
C      1  0.4647540000000  0.5869750000000  0.5473200000000 1.0
C      1  0.5591850000000  0.4277250000000  0.5399310000000 1.0
C      1  0.5601250000000  0.5746980000000  0.5375790000000 1.0
C      1  0.5366440000000  0.4279710000000  0.5588670000000 1.0
C      1  0.5409800000000  0.5766510000000  0.5603590000000 1.0
C      1  0.4367940000000  0.5765050000000  0.4576190000000 1.0
C      1  0.4314190000000  0.4177310000000  0.4585350000000 1.0
C      1  0.5530730000000  0.5517220000000  0.4237370000000 1.0
C      1  0.5513460000000  0.4530630000000  0.4224590000000 1.0
C      1  0.5747420000000  0.4519810000000  0.5442460000000 1.0
C      1  0.5673000000000  0.5452930000000  0.5330530000000 1.0
C      1  0.4220390000000  0.4876530000000  0.4314270000000 1.0
C      1  0.4242120000000  0.4994340000000  0.5701470000000 1.0
C      1  0.4687270000000  0.5041670000000  0.4545530000000 1.0
C      1  0.4863800000000  0.5256220000000  0.4103080000000 1.0
C      1  0.4389760000000  0.5103560000000  0.4216140000000 1.0
C      1  0.4588120000000  0.4927560000000  0.5281040000000 1.0
C      1  0.5206070000000  0.5087390000000  0.5670270000000 1.0
C      1  0.4073110000000  0.4936140000000  0.5490200000000 1.0
C      1  0.5683880000000  0.4904290000000  0.5756310000000 1.0
C      1  0.5976290000000  0.5020500000000  0.4558430000000 1.0
C      1  0.4056430000000  0.5088840000000  0.5038970000000 1.0
C      1  0.4951870000000  0.4942060000000  0.5639720000000 1.0
C      1  0.4196960000000  0.5059530000000  0.4766050000000 1.0
C      1  0.5148230000000  0.5234390000000  0.4167380000000 1.0
C      1  0.4484160000000  0.4910370000000  0.4762910000000 1.0
C      1  0.4848780000000  0.4805500000000  0.4084460000000 1.0
C      1  0.4894600000000  0.4941230000000  0.4946860000000 1.0
C      1  0.4961460000000  0.4961980000000  0.4637750000000 1.0
C      1  0.5532440000000  0.5004670000000  0.5985600000000 1.0
C      1  0.5580830000000  0.5018460000000  0.4173480000000 1.0
C      1  0.5512780000000  0.5069360000000  0.5054370000000 1.0
C      1  0.6025010000000  0.5018150000000  0.4837370000000 1.0
C      1  0.5926040000000  0.5016630000000  0.5631760000000 1.0
C      1  0.5496140000000  0.5041350000000  0.5546360000000 1.0
C      1  0.5256330000000  0.5017670000000  0.5980690000000 1.0
C      1  0.5310960000000  0.5016550000000  0.4075830000000 1.0
C      1  0.4024010000000  0.4873880000000  0.5224860000000 1.0
C      1  0.4790570000000  0.5080680000000  0.5411590000000 1.0
C      1  0.5451410000000  0.4985320000000  0.4796960000000 1.0
C      1  0.5960550000000  0.5033250000000  0.5366950000000 1.0
C      1  0.4614820000000  0.5027410000000  0.4998160000000 1.0
C      1  0.4688980000000  0.5042300000000  0.4203560000000 1.0
C      1  0.5139970000000  0.4797480000000  0.4037970000000 1.0
C      1  0.5553880000000  0.4887470000000  0.5265920000000 1.0
C      1  0.4081440000000  0.4963330000000  0.4530670000000 1.0
C      1  0.5021530000000  0.5059980000000  0.5205400000000 1.0
END
