TITL C-152283-5767-2 -4.57186697487328 125000 -746.985748416612 0 0 109 (C1) n - 1
REM
REM in /rds/project/t2_vol4/rds-t2-cs072/BORA/CARBON/from-Arr/AIRSS/Generating-Clusters/GAP-ML-2020/Higher-Symm/SD-CG/HFTN-CG
REM
REM
REM
REM
REM
REM ./C.cell (b20cbc046b6831c77cfcea5457e17084)
REM AIRSS Version 0.9.1 bugfix July 2018 build 013d7b7c2542+ Fri, 06 Jul 2018 19:26:36 +0100
REM compiler GCC version 9.3.0
REM options -cpp -mtune=generic -march=x86-64 -g -O0
REM seed 2032958211 1748476164 1688219710 879990721 -1076654053 -318906580 1135516644 -872637654 -2041294614 2141398747 -1210096236 1260399775 878320801 1418531933 938051407 1672735349 -1213041966 433256036 267054275 1128894978 -1477955640 2127200540 -166177939 -789075723 -2113666643 1015026846 -172069863 767373739 -1772533231 -1824758977 450307436 -1616833996 -1878206747
REM
CELL 1.54180   50.00000   50.00000   50.00000   90.00000   90.00000   90.00000
LATT -1
SFAC C  
C      1  0.4764840000000  0.4675930000000  0.4752560000000 1.0
C      1  0.4890800000000  0.5339570000000  0.4689970000000 1.0
C      1  0.5063680000000  0.4689530000000  0.4659870000000 1.0
C      1  0.5184630000000  0.5338740000000  0.4752560000000 1.0
C      1  0.5299320000000  0.4686660000000  0.4875730000000 1.0
C      1  0.5195070000000  0.5263340000000  0.5057930000000 1.0
C      1  0.5242310000000  0.4663290000000  0.5179250000000 1.0
C      1  0.5064270000000  0.5334470000000  0.5348770000000 1.0
C      1  0.4945500000000  0.4648720000000  0.5243800000000 1.0
C      1  0.4765700000000  0.5325820000000  0.5281320000000 1.0
C      1  0.4708880000000  0.4645830000000  0.5048930000000 1.0
C      1  0.4770190000000  0.5253050000000  0.4968770000000 1.0
C      1  0.4545360000000  0.4893340000000  0.5132580000000 1.0
C      1  0.4565540000000  0.5070520000000  0.4917700000000 1.0
C      1  0.4616910000000  0.4937000000000  0.4671030000000 1.0
C      1  0.4816010000000  0.5093530000000  0.4519900000000 1.0
C      1  0.5075950000000  0.4952130000000  0.4496910000000 1.0
C      1  0.5306120000000  0.5095500000000  0.4613160000000 1.0
C      1  0.5447080000000  0.4946610000000  0.4829330000000 1.0
C      1  0.5404800000000  0.5083940000000  0.5083950000000 1.0
C      1  0.5365660000000  0.4922780000000  0.5317890000000 1.0
C      1  0.5135360000000  0.5058000000000  0.5471090000000 1.0
C      1  0.4924410000000  0.4931190000000  0.5313230000000 1.0
C      1  0.4662240000000  0.5046030000000  0.5359540000000 1.0
C      1  0.5093910000000  0.4984430000000  0.4179620000000 1.0
C      1  0.5490430000000  0.5108520000000  0.4359900000000 1.0
C      1  0.5765270000000  0.4974600000000  0.4724910000000 1.0
C      1  0.5922030000000  0.4990950000000  0.4972190000000 1.0
C      1  0.5659280000000  0.4930910000000  0.5460160000000 1.0
C      1  0.5582640000000  0.4927840000000  0.5742920000000 1.0
C      1  0.5076590000000  0.5015860000000  0.5766980000000 1.0
C      1  0.4492340000000  0.5034840000000  0.5623940000000 1.0
C      1  0.4118990000000  0.4934210000000  0.5367340000000 1.0
C      1  0.4047590000000  0.4951010000000  0.5091740000000 1.0
C      1  0.4323910000000  0.4962060000000  0.4580970000000 1.0
C      1  0.4650680000000  0.5095940000000  0.4250830000000 1.0
C      1  0.4175530000000  0.4737030000000  0.4660290000000 1.0
C      1  0.4461090000000  0.5298640000000  0.4291450000000 1.0
C      1  0.4933940000000  0.4774840000000  0.4085650000000 1.0
C      1  0.5394460000000  0.5331860000000  0.4220580000000 1.0
C      1  0.5764040000000  0.4766570000000  0.4520600000000 1.0
C      1  0.5878000000000  0.5281470000000  0.4986330000000 1.0
C      1  0.5808070000000  0.4703390000000  0.5362880000000 1.0
C      1  0.5553760000000  0.5220770000000  0.5733390000000 1.0
C      1  0.5137000000000  0.4743460000000  0.5833300000000 1.0
C      1  0.4620530000000  0.5224450000000  0.5803930000000 1.0
C      1  0.4230910000000  0.4686250000000  0.5458560000000 1.0
C      1  0.4091300000000  0.5205580000000  0.4991500000000 1.0
C      1  0.4549120000000  0.5542130000000  0.4422830000000 1.0
C      1  0.4947520000000  0.4522380000000  0.4229800000000 1.0
C      1  0.5305170000000  0.5565850000000  0.4367830000000 1.0
C      1  0.5624200000000  0.4515880000000  0.4564070000000 1.0
C      1  0.5710000000000  0.5521470000000  0.5001430000000 1.0
C      1  0.5664840000000  0.4460340000000  0.5291030000000 1.0
C      1  0.5409770000000  0.5462320000000  0.5641490000000 1.0
C      1  0.5065060000000  0.4497640000000  0.5685480000000 1.0
C      1  0.4654480000000  0.5494340000000  0.5693570000000 1.0
C      1  0.4387370000000  0.4455500000000  0.5371190000000 1.0
C      1  0.4237050000000  0.5428640000000  0.5080800000000 1.0
C      1  0.4330410000000  0.4484580000000  0.4662430000000 1.0
C      1  0.5123500000000  0.5274780000000  0.4139470000000 1.0
C      1  0.5570610000000  0.4835360000000  0.4319210000000 1.0
C      1  0.5790350000000  0.5278090000000  0.4695570000000 1.0
C      1  0.5888810000000  0.4741430000000  0.5090710000000 1.0
C      1  0.5720090000000  0.5236580000000  0.5487600000000 1.0
C      1  0.5419770000000  0.4701200000000  0.5778400000000 1.0
C      1  0.4901990000000  0.5213360000000  0.5863870000000 1.0
C      1  0.4441340000000  0.4738360000000  0.5647490000000 1.0
C      1  0.4253340000000  0.5158960000000  0.5484770000000 1.0
C      1  0.4091030000000  0.4707720000000  0.4934510000000 1.0
C      1  0.4278950000000  0.5240170000000  0.4508950000000 1.0
C      1  0.4659930000000  0.4816130000000  0.4165160000000 1.0
C      1  0.5210030000000  0.4238590000000  0.5158510000000 1.0
C      1  0.5050430000000  0.5725910000000  0.5312820000000 1.0
C      1  0.4934570000000  0.4236190000000  0.5234020000000 1.0
C      1  0.4765420000000  0.5718210000000  0.5238650000000 1.0
C      1  0.4731160000000  0.4240150000000  0.5029500000000 1.0
C      1  0.4673020000000  0.5734500000000  0.4966010000000 1.0
C      1  0.4805170000000  0.4256960000000  0.4750550000000 1.0
C      1  0.4889080000000  0.5745000000000  0.4769280000000 1.0
C      1  0.5081750000000  0.4270500000000  0.4678470000000 1.0
C      1  0.5169680000000  0.5751270000000  0.4843040000000 1.0
C      1  0.5284350000000  0.4256000000000  0.4881010000000 1.0
C      1  0.5259520000000  0.5750650000000  0.5117690000000 1.0
C      1  0.5343010000000  0.4472280000000  0.5615050000000 1.0
C      1  0.4931910000000  0.5487800000000  0.5761560000000 1.0
C      1  0.4597050000000  0.4505240000000  0.5559570000000 1.0
C      1  0.4312800000000  0.5410710000000  0.5351850000000 1.0
C      1  0.4262620000000  0.4463620000000  0.4936760000000 1.0
C      1  0.4362380000000  0.5500170000000  0.4639060000000 1.0
C      1  0.4672580000000  0.4546850000000  0.4310180000000 1.0
C      1  0.5030580000000  0.5523320000000  0.4290460000000 1.0
C      1  0.5423080000000  0.4570990000000  0.4367550000000 1.0
C      1  0.5630070000000  0.5512640000000  0.4725810000000 1.0
C      1  0.5733020000000  0.4498900000000  0.5016810000000 1.0
C      1  0.5587530000000  0.5486420000000  0.5417650000000 1.0
C      1  0.4826470000000  0.5584570000000  0.4510940000000 1.0
C      1  0.5142770000000  0.4475200000000  0.4447340000000 1.0
C      1  0.5348190000000  0.5587020000000  0.4656790000000 1.0
C      1  0.5515320000000  0.4450380000000  0.4825720000000 1.0
C      1  0.5527140000000  0.5634300000000  0.5186410000000 1.0
C      1  0.5383150000000  0.4416440000000  0.5331030000000 1.0
C      1  0.5128220000000  0.5547460000000  0.5560020000000 1.0
C      1  0.4872860000000  0.4439530000000  0.5471060000000 1.0
C      1  0.4586950000000  0.5534330000000  0.5413810000000 1.0
C      1  0.4493680000000  0.4407230000000  0.5103760000000 1.0
C      1  0.4407260000000  0.5595520000000  0.4899490000000 1.0
C      1  0.4616260000000  0.4451400000000  0.4590660000000 1.0
C      1  0.4986870000000  0.5062120000000  0.5035450000000 1.0
END
