TITL C-152270-6472-1 195.664254921597 125000 -245.709390732272 0 0 38 (C1) n - 1
REM
REM in /rds/project/t2_vol4/rds-t2-cs072/BORA/CARBON/from-Arr/AIRSS/Generating-Clusters/GAP-ML-2020/Higher-Symm/SD-CG/HFTN-CG
REM
REM
REM
REM
REM
REM ./C.cell (b20cbc046b6831c77cfcea5457e17084)
REM AIRSS Version 0.9.1 bugfix July 2018 build 013d7b7c2542+ Fri, 06 Jul 2018 19:26:36 +0100
REM compiler GCC version 9.3.0
REM options -cpp -mtune=generic -march=x86-64 -g -O0
REM seed 1857720742 -1199207577 -716756855 -1592145635 1511119375 772104714 1004667460 814831796 1490162487 -1368852164 -218311581 1125524349 216581510 -1575034690 -1323195589 -852603228 984754673 654026171 1966783474 727944403 1462358259 650564341 -1795687151 741199592 -118062898 -1652857503 456745686 480354187 536755615 -998186344 -347483188 1549087526 1345017886
REM
CELL 1.54180   50.00000   50.00000   50.00000   90.00000   90.00000   90.00000
LATT -1
SFAC C  
C      1  0.4382310000000  0.4629570000000  0.4896040000000 1.0
C      1  0.4488310000000  0.5459240000000  0.4923980000000 1.0
C      1  0.5291180000000  0.5690760000000  0.4997520000000 1.0
C      1  0.5693480000000  0.4900380000000  0.4817250000000 1.0
C      1  0.5184820000000  0.4275840000000  0.4962000000000 1.0
C      1  0.5288870000000  0.4473970000000  0.4789310000000 1.0
C      1  0.4557960000000  0.4532500000000  0.4695300000000 1.0
C      1  0.4469170000000  0.5279630000000  0.4709240000000 1.0
C      1  0.5105090000000  0.5662470000000  0.4784580000000 1.0
C      1  0.5560950000000  0.5116770000000  0.4689810000000 1.0
C      1  0.4925360000000  0.5245990000000  0.4985430000000 1.0
C      1  0.5218670000000  0.5207650000000  0.5049340000000 1.0
C      1  0.5289770000000  0.4907790000000  0.5109550000000 1.0
C      1  0.5113350000000  0.4765040000000  0.5300550000000 1.0
C      1  0.4783420000000  0.4981490000000  0.4914190000000 1.0
C      1  0.5044040000000  0.4334100000000  0.4731820000000 1.0
C      1  0.4414060000000  0.4782540000000  0.4657280000000 1.0
C      1  0.4639270000000  0.5506200000000  0.4685940000000 1.0
C      1  0.5380130000000  0.5578850000000  0.4751130000000 1.0
C      1  0.5466100000000  0.4855240000000  0.4655500000000 1.0
C      1  0.5568910000000  0.4866870000000  0.5162460000000 1.0
C      1  0.5139040000000  0.4497370000000  0.5298490000000 1.0
C      1  0.4646630000000  0.4875740000000  0.5175840000000 1.0
C      1  0.4745890000000  0.5385240000000  0.5183340000000 1.0
C      1  0.5306380000000  0.5420280000000  0.5240500000000 1.0
C      1  0.4832430000000  0.4540560000000  0.4719380000000 1.0
C      1  0.4556340000000  0.5017880000000  0.4724560000000 1.0
C      1  0.4908570000000  0.5466540000000  0.4783810000000 1.0
C      1  0.5398550000000  0.5298860000000  0.4816520000000 1.0
C      1  0.5238830000000  0.4764320000000  0.4832460000000 1.0
C      1  0.5162350000000  0.4245380000000  0.5237470000000 1.0
C      1  0.4417370000000  0.4725100000000  0.5143280000000 1.0
C      1  0.4523840000000  0.5526260000000  0.5183580000000 1.0
C      1  0.5376160000000  0.5671960000000  0.5256120000000 1.0
C      1  0.5809270000000  0.4841260000000  0.5063710000000 1.0
C      1  0.4949220000000  0.4775750000000  0.4795620000000 1.0
C      1  0.4854250000000  0.4894190000000  0.5402320000000 1.0
C      1  0.4818150000000  0.5002390000000  0.5646690000000 1.0
END
