TITL C-154540-3291-5 0.00636859566211121 125000 -203.203763108377 0 0 31 (Cs) n - 1
REM
REM in /rds/project/t2_vol4/rds-t2-cs072/BORA/CARBON/from-Arr/AIRSS/Generating-Clusters/GAP-ML-2020/Higher-Symm/SD-CG/HFTN-CG
REM
REM
REM
REM
REM
REM ./C.cell (b20cbc046b6831c77cfcea5457e17084)
REM AIRSS Version 0.9.1 bugfix July 2018 build 013d7b7c2542+ Fri, 06 Jul 2018 19:26:36 +0100
REM compiler GCC version 9.3.0
REM options -cpp -mtune=generic -march=x86-64 -g -O0
REM seed -736571814 -990136408 -1705149329 1191040231 -316716045 -1662045375 -1176963752 505196077 -698139912 -1923721574 1401132377 1552029835 -335769328 1758142858 526970621 -2096067989 -719281482 -850289596 1264359804 -775273165 -1892857095 856745166 -172823526 530149549 1191904448 45462607 1787960907 1752427613 -1326565972 -1456939222 -1071965870 1346235142 1419594064
REM
CELL 1.54180   50.00000   50.00000   50.00000   90.00000   90.00000   90.00000
LATT -1
SFAC C  
C      1  0.5464690000000  0.4895270000000  0.5316140000000 1.0
C      1  0.5256030000000  0.5387940000000  0.5296710000000 1.0
C      1  0.4727010000000  0.5415960000000  0.5300790000000 1.0
C      1  0.4597730000000  0.4884760000000  0.5295060000000 1.0
C      1  0.5044820000000  0.4555930000000  0.5356580000000 1.0
C      1  0.5425270000000  0.5173920000000  0.5311950000000 1.0
C      1  0.5328970000000  0.4654750000000  0.5354990000000 1.0
C      1  0.4783960000000  0.4649260000000  0.5311830000000 1.0
C      1  0.4564860000000  0.5162870000000  0.5313360000000 1.0
C      1  0.4994610000000  0.5489710000000  0.5273810000000 1.0
C      1  0.5603910000000  0.4934060000000  0.5061320000000 1.0
C      1  0.5332670000000  0.5445690000000  0.5010980000000 1.0
C      1  0.4568150000000  0.5504610000000  0.5069850000000 1.0
C      1  0.4481610000000  0.4762850000000  0.5055920000000 1.0
C      1  0.5128640000000  0.4360320000000  0.5148290000000 1.0
C      1  0.5518880000000  0.5210210000000  0.5027740000000 1.0
C      1  0.5393910000000  0.4460390000000  0.5144200000000 1.0
C      1  0.4655180000000  0.4543360000000  0.5071550000000 1.0
C      1  0.4409020000000  0.5270320000000  0.5083500000000 1.0
C      1  0.5082270000000  0.5593710000000  0.5014350000000 1.0
C      1  0.4500460000000  0.5179110000000  0.4824060000000 1.0
C      1  0.4812160000000  0.4528770000000  0.4828760000000 1.0
C      1  0.5347060000000  0.4569340000000  0.4871650000000 1.0
C      1  0.5382270000000  0.5100130000000  0.4781020000000 1.0
C      1  0.4960160000000  0.5449060000000  0.4793180000000 1.0
C      1  0.4520790000000  0.4897230000000  0.4802520000000 1.0
C      1  0.4681750000000  0.5410660000000  0.4811740000000 1.0
C      1  0.5211110000000  0.5316580000000  0.4765600000000 1.0
C      1  0.5450440000000  0.4829080000000  0.4837330000000 1.0
C      1  0.5079380000000  0.4447030000000  0.4876190000000 1.0
C      1  0.4707950000000  0.4735440000000  0.4670260000000 1.0
END
