TITL C-15946-755-8 -0.00293485184148023 125000 -194.714980758098 0 0 30 (C2v) n - 1
REM
REM in /rds/project/t2_vol4/rds-t2-cs072/BORA/CARBON/from-Arr/AIRSS/Generating-Clusters/GAP-ML-2020/Higher-Symm/SD-CG/HFTN-CG
REM
REM
REM
REM
REM
REM ./C.cell (b20cbc046b6831c77cfcea5457e17084)
REM AIRSS Version 0.9.1 bugfix July 2018 build 013d7b7c2542+ Fri, 06 Jul 2018 19:26:36 +0100
REM compiler GCC version 9.3.0
REM options -cpp -mtune=generic -march=x86-64 -g -O0
REM seed -1255774238 -881758074 -1811726845 647342914 -2116526728 992243100 1349688631 -1560703495 1519764982 -664176298 2138494400 247070776 -1536203144 418830324 -2111430698 -951734597 1357252417 1406760448 995508807 -1580453015 -1822014307 -25679200 728871236 -1594821320 -1700024641 1578937820 811254299 -1470025387 -1643776983 225426839 1273765629 -121435601 -1363489026
REM
CELL 1.54180   50.00000   50.00000   50.00000   90.00000   90.00000   90.00000
LATT -1
SFAC C  
C      1  0.5148210000000  0.5150430000000  0.5283040000000 1.0
C      1  0.4851740000000  0.4849480000000  0.5282970000000 1.0
C      1  0.5149950000000  0.5148520000000  0.4712710000000 1.0
C      1  0.4850090000000  0.4851560000000  0.4712640000000 1.0
C      1  0.5148190000000  0.4849460000000  0.5283000000000 1.0
C      1  0.4851760000000  0.5150450000000  0.5283020000000 1.0
C      1  0.5149930000000  0.4851540000000  0.4712670000000 1.0
C      1  0.4850110000000  0.5148540000000  0.4712690000000 1.0
C      1  0.4630660000000  0.4697290000000  0.4692320000000 1.0
C      1  0.5369390000000  0.5302800000000  0.4692470000000 1.0
C      1  0.4628980000000  0.4703790000000  0.5262660000000 1.0
C      1  0.5370970000000  0.5296130000000  0.5262810000000 1.0
C      1  0.4630700000000  0.5302850000000  0.4692410000000 1.0
C      1  0.5369340000000  0.4697240000000  0.4692380000000 1.0
C      1  0.4629020000000  0.5296180000000  0.5262750000000 1.0
C      1  0.5370930000000  0.4703740000000  0.5262720000000 1.0
C      1  0.5608940000000  0.5216620000000  0.4747860000000 1.0
C      1  0.4391100000000  0.4783460000000  0.4747690000000 1.0
C      1  0.5621280000000  0.5239120000000  0.5292620000000 1.0
C      1  0.4378670000000  0.4760780000000  0.5292440000000 1.0
C      1  0.5608910000000  0.4783370000000  0.4747790000000 1.0
C      1  0.4391130000000  0.5216700000000  0.4747760000000 1.0
C      1  0.5621250000000  0.4760700000000  0.5292540000000 1.0
C      1  0.4378700000000  0.5239210000000  0.5292510000000 1.0
C      1  0.5762560000000  0.4999990000000  0.4689170000000 1.0
C      1  0.4237490000000  0.5000100000000  0.4689040000000 1.0
C      1  0.5716070000000  0.4999920000000  0.5218590000000 1.0
C      1  0.4283900000000  0.5000010000000  0.5218470000000 1.0
C      1  0.5466380000000  0.4999970000000  0.4990400000000 1.0
C      1  0.4533620000000  0.5000030000000  0.4990330000000 1.0
END
