TITL C-150278-3241-12 0.122237755157092 125000 -659.379802727281 0 0 95 (C1) n - 1
REM
REM in /rds/project/t2_vol4/rds-t2-cs072/BORA/CARBON/from-Arr/AIRSS/Generating-Clusters/GAP-ML-2020/Higher-Symm/SD-CG/HFTN-CG
REM
REM
REM
REM
REM
REM ./C.cell (b20cbc046b6831c77cfcea5457e17084)
REM AIRSS Version 0.9.1 bugfix July 2018 build 013d7b7c2542+ Fri, 06 Jul 2018 19:26:36 +0100
REM compiler GCC version 9.3.0
REM options -cpp -mtune=generic -march=x86-64 -g -O0
REM seed 414354873 1730394858 1125520122 -186357538 -827858647 1773745801 -857619180 1553010560 1450693346 374942916 -926727997 -2105997308 929449417 1770092474 -403563982 -296352016 -228801318 -439676761 909520581 -1362510570 135590375 838462194 35449473 -802280991 1222423 -352512551 -1382879967 -695733567 -879325103 1594932788 650790967 2024353728 175689387
REM
CELL 1.54180   50.00000   50.00000   50.00000   90.00000   90.00000   90.00000
LATT -1
SFAC C  
C      1  0.5783820000000  0.5383860000000  0.4941760000000 1.0
C      1  0.5768450000000  0.4606950000000  0.5040500000000 1.0
C      1  0.4170180000000  0.5394170000000  0.4980590000000 1.0
C      1  0.4180920000000  0.4594870000000  0.5006580000000 1.0
C      1  0.4428900000000  0.5773720000000  0.5110490000000 1.0
C      1  0.4428590000000  0.4206040000000  0.4886900000000 1.0
C      1  0.5593100000000  0.5806570000000  0.5062380000000 1.0
C      1  0.5596730000000  0.4177550000000  0.4936100000000 1.0
C      1  0.5499990000000  0.4956250000000  0.5533060000000 1.0
C      1  0.5506810000000  0.5051060000000  0.4454580000000 1.0
C      1  0.4477410000000  0.4901840000000  0.5492110000000 1.0
C      1  0.4461460000000  0.5079700000000  0.4500090000000 1.0
C      1  0.5087040000000  0.5279030000000  0.5230750000000 1.0
C      1  0.5106230000000  0.4698480000000  0.4928590000000 1.0
C      1  0.4910310000000  0.5354320000000  0.5046480000000 1.0
C      1  0.4838570000000  0.4736830000000  0.4983230000000 1.0
C      1  0.5319160000000  0.4100400000000  0.4870120000000 1.0
C      1  0.5314980000000  0.5879010000000  0.5135590000000 1.0
C      1  0.4705500000000  0.4135670000000  0.4830680000000 1.0
C      1  0.4698960000000  0.5855770000000  0.5174560000000 1.0
C      1  0.4511470000000  0.5182000000000  0.5543510000000 1.0
C      1  0.4498130000000  0.4805860000000  0.4437850000000 1.0
C      1  0.5505880000000  0.5243440000000  0.5554320000000 1.0
C      1  0.5461670000000  0.4766290000000  0.4491190000000 1.0
C      1  0.5136590000000  0.4375180000000  0.5774350000000 1.0
C      1  0.5103740000000  0.5601880000000  0.4231520000000 1.0
C      1  0.4884620000000  0.4349650000000  0.5779380000000 1.0
C      1  0.4850550000000  0.5613800000000  0.4234620000000 1.0
C      1  0.5362880000000  0.5647890000000  0.5507330000000 1.0
C      1  0.5348650000000  0.4347980000000  0.4488460000000 1.0
C      1  0.4709300000000  0.5558520000000  0.5519120000000 1.0
C      1  0.4725720000000  0.4442140000000  0.4490150000000 1.0
C      1  0.5299600000000  0.5415610000000  0.5665420000000 1.0
C      1  0.5248260000000  0.4586050000000  0.4371720000000 1.0
C      1  0.4751630000000  0.5289040000000  0.5656080000000 1.0
C      1  0.4761060000000  0.4710480000000  0.4371720000000 1.0
C      1  0.5555950000000  0.4156860000000  0.5219780000000 1.0
C      1  0.5545480000000  0.5833150000000  0.4780580000000 1.0
C      1  0.4453620000000  0.4156570000000  0.5167690000000 1.0
C      1  0.4452500000000  0.5826260000000  0.4831570000000 1.0
C      1  0.4244370000000  0.4537060000000  0.5287000000000 1.0
C      1  0.4235680000000  0.5450030000000  0.4699330000000 1.0
C      1  0.5748600000000  0.4565360000000  0.5331440000000 1.0
C      1  0.5752870000000  0.5438000000000  0.4652020000000 1.0
C      1  0.5573700000000  0.4362560000000  0.5414100000000 1.0
C      1  0.5566020000000  0.5635620000000  0.4579210000000 1.0
C      1  0.4416950000000  0.4340510000000  0.5378290000000 1.0
C      1  0.4416850000000  0.5643860000000  0.4619000000000 1.0
C      1  0.5279470000000  0.5547420000000  0.4493300000000 1.0
C      1  0.5289080000000  0.4456110000000  0.5500500000000 1.0
C      1  0.4689200000000  0.5562860000000  0.4512710000000 1.0
C      1  0.4685890000000  0.4428370000000  0.5489820000000 1.0
C      1  0.5582100000000  0.5482980000000  0.5399250000000 1.0
C      1  0.5572300000000  0.4509160000000  0.4596640000000 1.0
C      1  0.4451080000000  0.5443840000000  0.5422450000000 1.0
C      1  0.4455240000000  0.4542380000000  0.4564810000000 1.0
C      1  0.4130120000000  0.4875640000000  0.5074110000000 1.0
C      1  0.4122170000000  0.5111690000000  0.4916910000000 1.0
C      1  0.5632380000000  0.4869190000000  0.5073220000000 1.0
C      1  0.5667140000000  0.5114920000000  0.4893530000000 1.0
C      1  0.4699300000000  0.4953950000000  0.4969270000000 1.0
C      1  0.4734200000000  0.5215680000000  0.4894430000000 1.0
C      1  0.5292770000000  0.4828870000000  0.5122870000000 1.0
C      1  0.5368750000000  0.5211000000000  0.4850630000000 1.0
C      1  0.4707670000000  0.4718800000000  0.5521580000000 1.0
C      1  0.4722070000000  0.5259200000000  0.4568970000000 1.0
C      1  0.5238410000000  0.4762540000000  0.5443420000000 1.0
C      1  0.5256290000000  0.5246370000000  0.4558510000000 1.0
C      1  0.4726380000000  0.5902670000000  0.4878730000000 1.0
C      1  0.4732360000000  0.4099080000000  0.5126220000000 1.0
C      1  0.5271610000000  0.5901080000000  0.4844710000000 1.0
C      1  0.5280040000000  0.4093650000000  0.5162420000000 1.0
C      1  0.4972660000000  0.4875450000000  0.4449140000000 1.0
C      1  0.4954640000000  0.5091540000000  0.5670710000000 1.0
C      1  0.5162210000000  0.4743840000000  0.4615730000000 1.0
C      1  0.5108920000000  0.5271440000000  0.5535330000000 1.0
C      1  0.5699370000000  0.4843650000000  0.5373870000000 1.0
C      1  0.5726680000000  0.5156880000000  0.4594650000000 1.0
C      1  0.4245790000000  0.4815440000000  0.5349140000000 1.0
C      1  0.4231370000000  0.5169570000000  0.4638690000000 1.0
C      1  0.4862930000000  0.4246780000000  0.5328420000000 1.0
C      1  0.4856240000000  0.5758640000000  0.4673530000000 1.0
C      1  0.5132230000000  0.4252700000000  0.5336190000000 1.0
C      1  0.5126390000000  0.5755320000000  0.4658300000000 1.0
C      1  0.5700570000000  0.5556750000000  0.5150410000000 1.0
C      1  0.5696900000000  0.4426130000000  0.4837350000000 1.0
C      1  0.4301420000000  0.5536140000000  0.5194980000000 1.0
C      1  0.4310710000000  0.4448510000000  0.4794140000000 1.0
C      1  0.4870190000000  0.5765050000000  0.5386940000000 1.0
C      1  0.4879030000000  0.4235850000000  0.4628240000000 1.0
C      1  0.5165490000000  0.5798980000000  0.5364880000000 1.0
C      1  0.5171420000000  0.4184530000000  0.4643240000000 1.0
C      1  0.4983730000000  0.5148340000000  0.4483790000000 1.0
C      1  0.4964490000000  0.4833620000000  0.5561170000000 1.0
C      1  0.5241190000000  0.5114330000000  0.5075210000000 1.0
END
