TITL C-15917-645-2 0.137744093035699 125000 -22.9478493922157 0 0 4 (D(inf)h) n - 1
REM
REM in /rds/project/t2_vol4/rds-t2-cs072/BORA/CARBON/from-Arr/AIRSS/Generating-Clusters/GAP-ML-2020/Higher-Symm/SD-CG/HFTN-CG
REM
REM
REM
REM
REM
REM ./C.cell (b20cbc046b6831c77cfcea5457e17084)
REM AIRSS Version 0.9.1 bugfix July 2018 build 013d7b7c2542+ Fri, 06 Jul 2018 19:26:36 +0100
REM compiler GCC version 9.3.0
REM options -cpp -mtune=generic -march=x86-64 -g -O0
REM seed 274102092 996564038 1391862556 -1707194241 1110084845 726816843 1777805139 -172508601 1396187223 -772467919 2025517484 95348147 -748558316 -1255945393 -1707404865 1636221832 -386599240 1131554989 389379850 -1880776283 -1311523478 -178001746 1600891586 -1729827367 443712962 1142381045 26078852 -936952802 809226931 1018874856 1671592814 -2105326307 -65059851
REM
CELL 1.54180   50.00000   50.00000   50.00000   90.00000   90.00000   90.00000
LATT -1
SFAC C  
C      1  0.5134660000000  0.4991490000000  0.5003770000000 1.0
C      1  0.4611370000000  0.4991490000000  0.5003770000000 1.0
C      1  0.5388630000000  0.4991490000000  0.5003770000000 1.0
C      1  0.4865340000000  0.4991490000000  0.5003770000000 1.0
END
