TITL C-150252-3405-1 -815.927055588225 125000 -945.4547321544 0 0 135 (C3) n - 1
REM
REM in /rds/project/t2_vol4/rds-t2-cs072/BORA/CARBON/from-Arr/AIRSS/Generating-Clusters/GAP-ML-2020/Higher-Symm/SD-CG/HFTN-CG
REM
REM
REM
REM
REM
REM ./C.cell (b20cbc046b6831c77cfcea5457e17084)
REM AIRSS Version 0.9.1 bugfix July 2018 build 013d7b7c2542+ Fri, 06 Jul 2018 19:26:36 +0100
REM compiler GCC version 9.3.0
REM options -cpp -mtune=generic -march=x86-64 -g -O0
REM seed 1949342202 569391655 -474080589 914207488 1971499832 -830939434 -1753226721 1399212442 941298642 -517711842 1638167178 -939137013 -989845436 -99581379 903125811 -693835169 529359271 -595179837 -192529001 -1056927883 485413280 -1656343088 1849732178 -1858173224 -1753519702 2057561074 1763939732 -134142966 1122408293 -1648172554 1286642302 1775638068 1439704235
REM
CELL 1.54180   50.00000   50.00000   50.00000   90.00000   90.00000   90.00000
LATT -1
SFAC C  
C      1  0.5181340000000  0.4741970000000  0.5810970000000 1.0
C      1  0.5181320000000  0.4426700000000  0.4371050000000 1.0
C      1  0.5181310000000  0.5831340000000  0.4817970000000 1.0
C      1  0.5010310000000  0.5337380000000  0.4619670000000 1.0
C      1  0.5010330000000  0.5160680000000  0.5482350000000 1.0
C      1  0.5010330000000  0.4501930000000  0.4897980000000 1.0
C      1  0.5218610000000  0.4551710000000  0.4098570000000 1.0
C      1  0.5218610000000  0.6004810000000  0.5062470000000 1.0
C      1  0.5218650000000  0.4443490000000  0.5838950000000 1.0
C      1  0.4184020000000  0.4764850000000  0.5479610000000 1.0
C      1  0.4184010000000  0.4702220000000  0.4556580000000 1.0
C      1  0.4184000000000  0.5532900000000  0.4963860000000 1.0
C      1  0.5535880000000  0.5515320000000  0.5668660000000 1.0
C      1  0.5535880000000  0.4163270000000  0.5111920000000 1.0
C      1  0.5535850000000  0.5321440000000  0.4219380000000 1.0
C      1  0.4912610000000  0.4852190000000  0.5857610000000 1.0
C      1  0.4912580000000  0.4331200000000  0.4443190000000 1.0
C      1  0.4912570000000  0.5816610000000  0.4699210000000 1.0
C      1  0.4351880000000  0.4833690000000  0.4361640000000 1.0
C      1  0.4351880000000  0.5635980000000  0.5175180000000 1.0
C      1  0.4351900000000  0.4530300000000  0.5463220000000 1.0
C      1  0.5123480000000  0.5431510000000  0.5417860000000 1.0
C      1  0.5123490000000  0.4422360000000  0.5164760000000 1.0
C      1  0.5123470000000  0.5146130000000  0.4417360000000 1.0
C      1  0.5218320000000  0.5648280000000  0.4366730000000 1.0
C      1  0.5218360000000  0.5224290000000  0.5878050000000 1.0
C      1  0.5218350000000  0.4127450000000  0.4755210000000 1.0
C      1  0.5943300000000  0.4410690000000  0.5050230000000 1.0
C      1  0.5943280000000  0.5251150000000  0.4464480000000 1.0
C      1  0.5943300000000  0.5338200000000  0.5485220000000 1.0
C      1  0.4067270000000  0.5131410000000  0.4752010000000 1.0
C      1  0.4067280000000  0.5149050000000  0.5237840000000 1.0
C      1  0.4067280000000  0.4719500000000  0.5010210000000 1.0
C      1  0.5437550000000  0.5125410000000  0.4425040000000 1.0
C      1  0.5437560000000  0.5435230000000  0.5396070000000 1.0
C      1  0.5437570000000  0.4439380000000  0.5178860000000 1.0
C      1  0.5207540000000  0.4149530000000  0.5531100000000 1.0
C      1  0.5207500000000  0.4965290000000  0.3997910000000 1.0
C      1  0.5207520000000  0.5885190000000  0.5470980000000 1.0
C      1  0.4797920000000  0.5156200000000  0.4131120000000 1.0
C      1  0.4797950000000  0.5674370000000  0.5569720000000 1.0
C      1  0.4797960000000  0.4169420000000  0.5299170000000 1.0
C      1  0.4656160000000  0.5572830000000  0.4382660000000 1.0
C      1  0.4656200000000  0.5248220000000  0.5804770000000 1.0
C      1  0.4656190000000  0.4178940000000  0.4812590000000 1.0
C      1  0.5379480000000  0.5032820000000  0.5169920000000 1.0
C      1  0.5379480000000  0.4836440000000  0.4943450000000 1.0
C      1  0.5379480000000  0.5130760000000  0.4886610000000 1.0
C      1  0.4581040000000  0.5234450000000  0.5238590000000 1.0
C      1  0.4581040000000  0.4676150000000  0.5083760000000 1.0
C      1  0.4581030000000  0.5089380000000  0.4677680000000 1.0
C      1  0.4978900000000  0.4580310000000  0.5375630000000 1.0
C      1  0.4978880000000  0.4884540000000  0.4448720000000 1.0
C      1  0.4978880000000  0.5535150000000  0.5175650000000 1.0
C      1  0.5093510000000  0.5655530000000  0.5624320000000 1.0
C      1  0.5093520000000  0.4131560000000  0.5255540000000 1.0
C      1  0.5093490000000  0.5212910000000  0.4120130000000 1.0
C      1  0.4779370000000  0.5261290000000  0.4786470000000 1.0
C      1  0.4779390000000  0.5054280000000  0.5333060000000 1.0
C      1  0.4779380000000  0.4684420000000  0.4880480000000 1.0
C      1  0.5855690000000  0.4849060000000  0.5270600000000 1.0
C      1  0.5855680000000  0.4841120000000  0.4733940000000 1.0
C      1  0.5855680000000  0.5309850000000  0.4995400000000 1.0
C      1  0.4596650000000  0.5313950000000  0.4248260000000 1.0
C      1  0.4596680000000  0.5494050000000  0.5647780000000 1.0
C      1  0.4596690000000  0.4191980000000  0.5103990000000 1.0
C      1  0.5554300000000  0.4598700000000  0.4961350000000 1.0
C      1  0.5554290000000  0.5234130000000  0.4671770000000 1.0
C      1  0.5554300000000  0.5167190000000  0.5366850000000 1.0
C      1  0.5813830000000  0.5333830000000  0.4253960000000 1.0
C      1  0.5813860000000  0.5479170000000  0.5662090000000 1.0
C      1  0.5813860000000  0.4187030000000  0.5083890000000 1.0
C      1  0.5687110000000  0.4703340000000  0.4546640000000 1.0
C      1  0.5687110000000  0.5540950000000  0.4969730000000 1.0
C      1  0.5687130000000  0.4755740000000  0.5483580000000 1.0
C      1  0.5403760000000  0.4775840000000  0.4100100000000 1.0
C      1  0.5403770000000  0.5891420000000  0.5255810000000 1.0
C      1  0.5403800000000  0.4332760000000  0.5644080000000 1.0
C      1  0.4351170000000  0.5107220000000  0.5127580000000 1.0
C      1  0.4351170000000  0.4835900000000  0.5029090000000 1.0
C      1  0.4351160000000  0.5056850000000  0.4843370000000 1.0
C      1  0.5473780000000  0.4832420000000  0.4388560000000 1.0
C      1  0.5473790000000  0.5613320000000  0.5160570000000 1.0
C      1  0.5473810000000  0.4554280000000  0.5450840000000 1.0
C      1  0.5191700000000  0.4972340000000  0.5367800000000 1.0
C      1  0.5191700000000  0.4695300000000  0.4792140000000 1.0
C      1  0.5191690000000  0.5332370000000  0.4840050000000 1.0
C      1  0.4650190000000  0.5815100000000  0.4807910000000 1.0
C      1  0.4650220000000  0.4758800000000  0.5801960000000 1.0
C      1  0.4650200000000  0.4426090000000  0.4390150000000 1.0
C      1  0.4575690000000  0.4520370000000  0.5643750000000 1.0
C      1  0.4575660000000  0.4682310000000  0.4262770000000 1.0
C      1  0.4575660000000  0.5797310000000  0.5093510000000 1.0
C      1  0.4396320000000  0.5449640000000  0.5432280000000 1.0
C      1  0.4396330000000  0.4400810000000  0.5173280000000 1.0
C      1  0.4396310000000  0.5149520000000  0.4394470000000 1.0
C      1  0.4808250000000  0.4364140000000  0.5540620000000 1.0
C      1  0.4808210000000  0.4849740000000  0.4179030000000 1.0
C      1  0.4808220000000  0.5786110000000  0.5280370000000 1.0
C      1  0.5852220000000  0.5145010000000  0.4727790000000 1.0
C      1  0.5852230000000  0.5163240000000  0.5261650000000 1.0
C      1  0.5852230000000  0.4691790000000  0.5010510000000 1.0
C      1  0.5374760000000  0.4980140000000  0.5826960000000 1.0
C      1  0.5374740000000  0.4293770000000  0.4569310000000 1.0
C      1  0.5374730000000  0.5726110000000  0.4603720000000 1.0
C      1  0.5203740000000  0.4717900000000  0.5501250000000 1.0
C      1  0.5203720000000  0.4706950000000  0.4505060000000 1.0
C      1  0.5203720000000  0.5575160000000  0.4993670000000 1.0
C      1  0.5291950000000  0.5492040000000  0.5813440000000 1.0
C      1  0.5291950000000  0.4049530000000  0.5019390000000 1.0
C      1  0.5291920000000  0.5458450000000  0.4167160000000 1.0
C      1  0.4494800000000  0.5675540000000  0.4598650000000 1.0
C      1  0.4494830000000  0.5009800000000  0.5785730000000 1.0
C      1  0.4494810000000  0.4314640000000  0.4615650000000 1.0
C      1  0.5578980000000  0.5545200000000  0.4702410000000 1.0
C      1  0.5579010000000  0.4985120000000  0.5620930000000 1.0
C      1  0.5578990000000  0.4469700000000  0.4676630000000 1.0
C      1  0.4775930000000  0.4778480000000  0.5265780000000 1.0
C      1  0.4775920000000  0.4880590000000  0.4675280000000 1.0
C      1  0.4775920000000  0.5340930000000  0.5058960000000 1.0
C      1  0.4177550000000  0.5298070000000  0.4538040000000 1.0
C      1  0.4177570000000  0.5251030000000  0.5489150000000 1.0
C      1  0.4177570000000  0.4450860000000  0.4972860000000 1.0
C      1  0.4262860000000  0.5535900000000  0.4681110000000 1.0
C      1  0.4262890000000  0.5008220000000  0.5623580000000 1.0
C      1  0.4262870000000  0.4455850000000  0.4695360000000 1.0
C      1  0.4937110000000  0.5630160000000  0.4474790000000 1.0
C      1  0.4937140000000  0.5139760000000  0.5808350000000 1.0
C      1  0.4937130000000  0.4230070000000  0.4716870000000 1.0
C      1  0.5021540000000  0.4266720000000  0.5716450000000 1.0
C      1  0.5021500000000  0.4746180000000  0.4006730000000 1.0
C      1  0.5021500000000  0.5987110000000  0.5276820000000 1.0
C      1  0.4011590000000  0.4851240000000  0.5259780000000 1.0
C      1  0.4011580000000  0.4849400000000  0.4741320000000 1.0
C      1  0.4011580000000  0.5299320000000  0.4998960000000 1.0
END
