TITL C-15921-844-5 0.00228668070581881 125000 -325.143485456079 0 0 47 (C1) n - 1
REM
REM in /rds/project/t2_vol4/rds-t2-cs072/BORA/CARBON/from-Arr/AIRSS/Generating-Clusters/GAP-ML-2020/Higher-Symm/SD-CG/HFTN-CG
REM
REM
REM
REM
REM
REM ./C.cell (b20cbc046b6831c77cfcea5457e17084)
REM AIRSS Version 0.9.1 bugfix July 2018 build 013d7b7c2542+ Fri, 06 Jul 2018 19:26:36 +0100
REM compiler GCC version 9.3.0
REM options -cpp -mtune=generic -march=x86-64 -g -O0
REM seed -2019123000 -949985491 2027497049 1811242988 -1647365472 -674179486 -583006100 892089480 384260584 740228493 26867524 -604250760 2107912847 -441010046 1208899146 868438286 -1150359279 -1990373362 2068677376 2003733909 -349180047 -851487069 -149877641 -1057003288 2053687034 -1757299990 -247880685 336352458 -1848023806 -396194577 1358120999 1969160274 -1805557933
REM
CELL 1.54180   50.00000   50.00000   50.00000   90.00000   90.00000   90.00000
LATT -1
SFAC C  
C      1  0.4333270000000  0.4653120000000  0.4920770000000 1.0
C      1  0.4439630000000  0.4687760000000  0.5360220000000 1.0
C      1  0.4804560000000  0.4682890000000  0.5633500000000 1.0
C      1  0.5259390000000  0.4640870000000  0.5615640000000 1.0
C      1  0.5577220000000  0.4657910000000  0.5296310000000 1.0
C      1  0.5641820000000  0.4601350000000  0.4850490000000 1.0
C      1  0.5387610000000  0.4652230000000  0.4480460000000 1.0
C      1  0.4959700000000  0.4632110000000  0.4339770000000 1.0
C      1  0.4553460000000  0.4684810000000  0.4529250000000 1.0
C      1  0.4857830000000  0.5217520000000  0.4638840000000 1.0
C      1  0.4658870000000  0.5224310000000  0.4827320000000 1.0
C      1  0.4597890000000  0.5224800000000  0.5111420000000 1.0
C      1  0.4723830000000  0.5204290000000  0.5356330000000 1.0
C      1  0.4990150000000  0.5188680000000  0.5408190000000 1.0
C      1  0.5258850000000  0.5255060000000  0.5268930000000 1.0
C      1  0.5405990000000  0.5170840000000  0.5039550000000 1.0
C      1  0.5365500000000  0.5186370000000  0.4755580000000 1.0
C      1  0.5145960000000  0.5211600000000  0.4597730000000 1.0
C      1  0.4560390000000  0.5091880000000  0.5576150000000 1.0
C      1  0.5113460000000  0.5060900000000  0.5628330000000 1.0
C      1  0.5379400000000  0.5075570000000  0.5506760000000 1.0
C      1  0.5659800000000  0.5026230000000  0.4997200000000 1.0
C      1  0.5607120000000  0.5027470000000  0.4702780000000 1.0
C      1  0.5120590000000  0.5052420000000  0.4353040000000 1.0
C      1  0.4827260000000  0.5065110000000  0.4381360000000 1.0
C      1  0.4398790000000  0.5081020000000  0.4777620000000 1.0
C      1  0.4347100000000  0.5079180000000  0.5066730000000 1.0
C      1  0.4363440000000  0.4814530000000  0.4688220000000 1.0
C      1  0.4292990000000  0.4812660000000  0.5152350000000 1.0
C      1  0.4562930000000  0.4821220000000  0.5578500000000 1.0
C      1  0.5048560000000  0.4798990000000  0.5720510000000 1.0
C      1  0.5474250000000  0.4805850000000  0.5513540000000 1.0
C      1  0.5713360000000  0.4760000000000  0.5074680000000 1.0
C      1  0.5608250000000  0.4758880000000  0.4614480000000 1.0
C      1  0.5200050000000  0.4782650000000  0.4316670000000 1.0
C      1  0.4731290000000  0.4800770000000  0.4346950000000 1.0
C      1  0.5155070000000  0.4479500000000  0.5397360000000 1.0
C      1  0.5361400000000  0.4480570000000  0.5195830000000 1.0
C      1  0.5397640000000  0.4457420000000  0.4909490000000 1.0
C      1  0.5240870000000  0.4475850000000  0.4668440000000 1.0
C      1  0.4966520000000  0.4470100000000  0.4581450000000 1.0
C      1  0.4704470000000  0.4495140000000  0.4699630000000 1.0
C      1  0.4571110000000  0.4488230000000  0.4955670000000 1.0
C      1  0.4635760000000  0.4507180000000  0.5238600000000 1.0
C      1  0.4864210000000  0.4502440000000  0.5412590000000 1.0
C      1  0.5197190000000  0.5549690000000  0.5207630000000 1.0
C      1  0.5027980000000  0.5585520000000  0.5018040000000 1.0
END
