TITL C-150278-3241-5 12.2035489103103 125000 -438.411983047599 0 0 65 (C1) n - 1
REM
REM in /rds/project/t2_vol4/rds-t2-cs072/BORA/CARBON/from-Arr/AIRSS/Generating-Clusters/GAP-ML-2020/Higher-Symm/SD-CG/HFTN-CG
REM
REM
REM
REM
REM
REM ./C.cell (b20cbc046b6831c77cfcea5457e17084)
REM AIRSS Version 0.9.1 bugfix July 2018 build 013d7b7c2542+ Fri, 06 Jul 2018 19:26:36 +0100
REM compiler GCC version 9.3.0
REM options -cpp -mtune=generic -march=x86-64 -g -O0
REM seed -1485613093 -375308205 -382335328 -956774895 405620677 -1169215543 1135490609 -1969210276 -1024462126 -852701622 -623161023 382196262 -948681105 1095166060 -961953714 626802208 1668228313 67662569 936134297 1087421137 -2095781384 111671333 -1357543478 879297720 -502353641 1245385749 -1359150527 416994089 -1221652364 1220181194 -111677106 892517079 710374290
REM
CELL 1.54180   50.00000   50.00000   50.00000   90.00000   90.00000   90.00000
LATT -1
SFAC C  
C      1  0.5257340000000  0.4672410000000  0.5673000000000 1.0
C      1  0.5698650000000  0.4860210000000  0.4709870000000 1.0
C      1  0.4363500000000  0.5339680000000  0.4822440000000 1.0
C      1  0.5532510000000  0.5269780000000  0.4924920000000 1.0
C      1  0.5328360000000  0.5364440000000  0.5509640000000 1.0
C      1  0.4921630000000  0.5003160000000  0.5497400000000 1.0
C      1  0.4866680000000  0.4385970000000  0.5338180000000 1.0
C      1  0.4793620000000  0.5172660000000  0.4671780000000 1.0
C      1  0.5414620000000  0.4702350000000  0.5442640000000 1.0
C      1  0.4990750000000  0.5684240000000  0.5419670000000 1.0
C      1  0.4491450000000  0.5246570000000  0.4430060000000 1.0
C      1  0.5381100000000  0.4492200000000  0.5244670000000 1.0
C      1  0.4919360000000  0.5442380000000  0.5232570000000 1.0
C      1  0.4410800000000  0.5343050000000  0.5078750000000 1.0
C      1  0.5514650000000  0.4536870000000  0.5002140000000 1.0
C      1  0.4460200000000  0.4995890000000  0.5604690000000 1.0
C      1  0.4777920000000  0.4575660000000  0.5529550000000 1.0
C      1  0.4744880000000  0.4997270000000  0.5231480000000 1.0
C      1  0.4685800000000  0.4463030000000  0.4623710000000 1.0
C      1  0.5069980000000  0.5259300000000  0.5433690000000 1.0
C      1  0.4634400000000  0.5294000000000  0.5252360000000 1.0
C      1  0.5425180000000  0.4997600000000  0.5042830000000 1.0
C      1  0.5290040000000  0.5638290000000  0.5425930000000 1.0
C      1  0.4443310000000  0.4669290000000  0.4981630000000 1.0
C      1  0.5155940000000  0.4323610000000  0.4727340000000 1.0
C      1  0.4501900000000  0.4802440000000  0.5231790000000 1.0
C      1  0.5143510000000  0.4342450000000  0.5235030000000 1.0
C      1  0.4923150000000  0.5587820000000  0.4445510000000 1.0
C      1  0.5620450000000  0.5138900000000  0.4661590000000 1.0
C      1  0.4904010000000  0.4892730000000  0.5010120000000 1.0
C      1  0.4606900000000  0.5422990000000  0.4668160000000 1.0
C      1  0.5441090000000  0.5617260000000  0.5188510000000 1.0
C      1  0.4809090000000  0.5674260000000  0.5617640000000 1.0
C      1  0.5552480000000  0.5218920000000  0.5402450000000 1.0
C      1  0.4586360000000  0.4705590000000  0.4514810000000 1.0
C      1  0.4775970000000  0.4307400000000  0.5068630000000 1.0
C      1  0.4524910000000  0.5264030000000  0.5537560000000 1.0
C      1  0.5631990000000  0.4799330000000  0.4976060000000 1.0
C      1  0.4997670000000  0.4743580000000  0.5613400000000 1.0
C      1  0.5331030000000  0.5514260000000  0.4947500000000 1.0
C      1  0.4700030000000  0.5424290000000  0.5692490000000 1.0
C      1  0.4439830000000  0.4849670000000  0.4729090000000 1.0
C      1  0.5629500000000  0.5386440000000  0.5178250000000 1.0
C      1  0.5431240000000  0.5121840000000  0.4445700000000 1.0
C      1  0.5393230000000  0.4494850000000  0.4742180000000 1.0
C      1  0.5068270000000  0.5230230000000  0.4752160000000 1.0
C      1  0.5498220000000  0.4950010000000  0.5327080000000 1.0
C      1  0.5553530000000  0.4666070000000  0.4551380000000 1.0
C      1  0.4702120000000  0.4951140000000  0.4815850000000 1.0
C      1  0.5360270000000  0.4834810000000  0.4425410000000 1.0
C      1  0.4785840000000  0.4837860000000  0.4358910000000 1.0
C      1  0.4956520000000  0.4435490000000  0.4544350000000 1.0
C      1  0.4753010000000  0.5136400000000  0.4364100000000 1.0
C      1  0.5047890000000  0.4255890000000  0.4976900000000 1.0
C      1  0.5036590000000  0.5478040000000  0.4933160000000 1.0
C      1  0.5195610000000  0.4765870000000  0.4663430000000 1.0
C      1  0.4594280000000  0.4437990000000  0.4897350000000 1.0
C      1  0.5154040000000  0.4969890000000  0.4889840000000 1.0
C      1  0.4975540000000  0.5351890000000  0.4319360000000 1.0
C      1  0.4890730000000  0.5227820000000  0.5670210000000 1.0
C      1  0.5026670000000  0.4691710000000  0.4426620000000 1.0
C      1  0.4506800000000  0.4741330000000  0.5508840000000 1.0
C      1  0.4841100000000  0.5601320000000  0.4701780000000 1.0
C      1  0.5204900000000  0.5287240000000  0.4477750000000 1.0
C      1  0.4331050000000  0.5110020000000  0.4638100000000 1.0
END
