TITL C-152284-5779-3 0.0122600064234618 125000 -284.830967755958 0 0 43 (C3) n - 1
REM
REM in /rds/project/t2_vol4/rds-t2-cs072/BORA/CARBON/from-Arr/AIRSS/Generating-Clusters/GAP-ML-2020/Higher-Symm/SD-CG/HFTN-CG
REM
REM
REM
REM
REM
REM ./C.cell (b20cbc046b6831c77cfcea5457e17084)
REM AIRSS Version 0.9.1 bugfix July 2018 build 013d7b7c2542+ Fri, 06 Jul 2018 19:26:36 +0100
REM compiler GCC version 9.3.0
REM options -cpp -mtune=generic -march=x86-64 -g -O0
REM seed 1934246588 249011354 -1532484034 -1741268456 762259680 -1052756003 566798005 203915364 -1644662264 -338448117 -364027749 1209093894 974617307 727096944 -792237656 1020983951 -421539799 -1532710520 -1895280895 1354475462 -678778831 8249899 362003368 594254511 308339709 821178716 -47394935 512482873 -1683154527 -764659950 228592608 -289889645 -774984686
REM
CELL 1.54180   50.00000   50.00000   50.00000   90.00000   90.00000   90.00000
LATT -1
SFAC C  
C      1  0.4951650000000  0.5073400000000  0.5679270000000 1.0
C      1  0.4951970000000  0.4376860000000  0.4740220000000 1.0
C      1  0.4950950000000  0.5538370000000  0.4606520000000 1.0
C      1  0.5384840000000  0.4559290000000  0.4783720000000 1.0
C      1  0.5384110000000  0.5409920000000  0.4742250000000 1.0
C      1  0.5384660000000  0.5020520000000  0.5499660000000 1.0
C      1  0.5104220000000  0.5375560000000  0.5442030000000 1.0
C      1  0.5104930000000  0.4431390000000  0.5120340000000 1.0
C      1  0.5104100000000  0.5182070000000  0.4463510000000 1.0
C      1  0.5218550000000  0.4344790000000  0.4864750000000 1.0
C      1  0.5217520000000  0.5446830000000  0.4516180000000 1.0
C      1  0.5218060000000  0.5197690000000  0.5644850000000 1.0
C      1  0.4836900000000  0.5273740000000  0.4530670000000 1.0
C      1  0.4837180000000  0.5271290000000  0.5488150000000 1.0
C      1  0.4837740000000  0.4443320000000  0.5007290000000 1.0
C      1  0.5462880000000  0.4716760000000  0.5011370000000 1.0
C      1  0.5462450000000  0.5134110000000  0.4764710000000 1.0
C      1  0.5462590000000  0.5139050000000  0.5249480000000 1.0
C      1  0.4268430000000  0.4867490000000  0.4827040000000 1.0
C      1  0.4268180000000  0.5217170000000  0.4988810000000 1.0
C      1  0.4268510000000  0.4902240000000  0.5210760000000 1.0
C      1  0.5246330000000  0.4690820000000  0.4562820000000 1.0
C      1  0.5245730000000  0.5535330000000  0.4966780000000 1.0
C      1  0.5246540000000  0.4763230000000  0.5496160000000 1.0
C      1  0.4956740000000  0.5547680000000  0.4886470000000 1.0
C      1  0.4957540000000  0.4826310000000  0.5547340000000 1.0
C      1  0.4957440000000  0.4614660000000  0.4592190000000 1.0
C      1  0.4684360000000  0.5126520000000  0.4739820000000 1.0
C      1  0.4684480000000  0.5163620000000  0.5256260000000 1.0
C      1  0.4684800000000  0.4697820000000  0.5030160000000 1.0
C      1  0.5065550000000  0.4899270000000  0.5151960000000 1.0
C      1  0.5065450000000  0.4920710000000  0.4852940000000 1.0
C      1  0.5065290000000  0.5168940000000  0.5021020000000 1.0
C      1  0.5248850000000  0.5341970000000  0.5191270000000 1.0
C      1  0.5249430000000  0.4665500000000  0.5216450000000 1.0
C      1  0.5248990000000  0.4981920000000  0.4618030000000 1.0
C      1  0.4390360000000  0.5106910000000  0.4758970000000 1.0
C      1  0.4390460000000  0.5156540000000  0.5230040000000 1.0
C      1  0.4390770000000  0.4723760000000  0.5037490000000 1.0
C      1  0.4802090000000  0.4871310000000  0.5261550000000 1.0
C      1  0.4801970000000  0.4839510000000  0.4774230000000 1.0
C      1  0.4801670000000  0.5277440000000  0.4990350000000 1.0
C      1  0.5529790000000  0.4996700000000  0.5008500000000 1.0
END
