TITL C-152269-5962-7 -34.9396259528248 125000 -555.84982861196 0 0 82 (C1) n - 1
REM
REM in /rds/project/t2_vol4/rds-t2-cs072/BORA/CARBON/from-Arr/AIRSS/Generating-Clusters/GAP-ML-2020/Higher-Symm/SD-CG/HFTN-CG
REM
REM
REM
REM
REM
REM ./C.cell (b20cbc046b6831c77cfcea5457e17084)
REM AIRSS Version 0.9.1 bugfix July 2018 build 013d7b7c2542+ Fri, 06 Jul 2018 19:26:36 +0100
REM compiler GCC version 9.3.0
REM options -cpp -mtune=generic -march=x86-64 -g -O0
REM seed 256396595 -1993087777 -1970076016 1679547688 277726538 -1019429126 322404534 1676992501 499858538 -1946760466 -1728099085 -1790135410 -2028216722 616934226 1311057291 -1310388869 -2014749594 1607988523 228102584 653155742 1182524440 -218343013 -994414730 -1821798471 -782116336 -1938900014 1574736002 -2144674637 1228981674 -469478928 -380135906 605497322 1013083349
REM
CELL 1.54180   50.00000   50.00000   50.00000   90.00000   90.00000   90.00000
LATT -1
SFAC C  
C      1  0.4567320000000  0.5425650000000  0.4508470000000 1.0
C      1  0.5115650000000  0.5315520000000  0.5186210000000 1.0
C      1  0.5091910000000  0.5265280000000  0.4477780000000 1.0
C      1  0.4848800000000  0.5237910000000  0.4117420000000 1.0
C      1  0.4937110000000  0.4496340000000  0.4469090000000 1.0
C      1  0.4312970000000  0.5020140000000  0.4740930000000 1.0
C      1  0.5012610000000  0.4262030000000  0.4917220000000 1.0
C      1  0.5640320000000  0.4589380000000  0.4755090000000 1.0
C      1  0.5095120000000  0.5119390000000  0.4203170000000 1.0
C      1  0.4166070000000  0.5060290000000  0.4992100000000 1.0
C      1  0.5202380000000  0.4409490000000  0.4473400000000 1.0
C      1  0.5244940000000  0.4300860000000  0.4733350000000 1.0
C      1  0.5201480000000  0.4435860000000  0.5511930000000 1.0
C      1  0.5359310000000  0.4653780000000  0.4341280000000 1.0
C      1  0.5154790000000  0.4849750000000  0.4250120000000 1.0
C      1  0.4983950000000  0.5558800000000  0.5613010000000 1.0
C      1  0.4974840000000  0.5717470000000  0.5371780000000 1.0
C      1  0.4648100000000  0.5370050000000  0.4221270000000 1.0
C      1  0.4829050000000  0.5610800000000  0.4913230000000 1.0
C      1  0.4781120000000  0.5258740000000  0.4854680000000 1.0
C      1  0.4597210000000  0.5487780000000  0.5359380000000 1.0
C      1  0.4708400000000  0.5141330000000  0.5718320000000 1.0
C      1  0.5200150000000  0.5622880000000  0.5216120000000 1.0
C      1  0.5335330000000  0.4286990000000  0.5302690000000 1.0
C      1  0.4281800000000  0.5334040000000  0.4976640000000 1.0
C      1  0.5137070000000  0.5555320000000  0.4484300000000 1.0
C      1  0.4248730000000  0.4862330000000  0.5207420000000 1.0
C      1  0.5569570000000  0.5584260000000  0.4754100000000 1.0
C      1  0.5767750000000  0.5492820000000  0.4887560000000 1.0
C      1  0.5218240000000  0.4751100000000  0.4974780000000 1.0
C      1  0.4943020000000  0.4336250000000  0.5405300000000 1.0
C      1  0.5130670000000  0.5144630000000  0.5419000000000 1.0
C      1  0.5233070000000  0.5129000000000  0.4704970000000 1.0
C      1  0.5521780000000  0.4807540000000  0.5395200000000 1.0
C      1  0.5028740000000  0.4870580000000  0.5381230000000 1.0
C      1  0.5360530000000  0.5173000000000  0.5199640000000 1.0
C      1  0.4979850000000  0.4784390000000  0.4487220000000 1.0
C      1  0.5188500000000  0.4913720000000  0.5776200000000 1.0
C      1  0.5498680000000  0.4366290000000  0.4858190000000 1.0
C      1  0.5208790000000  0.4832270000000  0.4695410000000 1.0
C      1  0.4700310000000  0.4459220000000  0.4617280000000 1.0
C      1  0.4261190000000  0.4874540000000  0.5497590000000 1.0
C      1  0.4749820000000  0.4381030000000  0.4884890000000 1.0
C      1  0.5590670000000  0.5306110000000  0.5321840000000 1.0
C      1  0.5667700000000  0.5012570000000  0.4936600000000 1.0
C      1  0.5500140000000  0.4764010000000  0.4569700000000 1.0
C      1  0.4911230000000  0.5704680000000  0.4458210000000 1.0
C      1  0.5028920000000  0.5162450000000  0.4962180000000 1.0
C      1  0.5260580000000  0.4718170000000  0.5536120000000 1.0
C      1  0.5680370000000  0.4613690000000  0.5228640000000 1.0
C      1  0.5417320000000  0.5536890000000  0.5418830000000 1.0
C      1  0.4614620000000  0.4547670000000  0.5113910000000 1.0
C      1  0.4737940000000  0.5409870000000  0.5612130000000 1.0
C      1  0.4688370000000  0.4841220000000  0.5060550000000 1.0
C      1  0.4724990000000  0.4917110000000  0.4544530000000 1.0
C      1  0.5756330000000  0.4735910000000  0.4970450000000 1.0
C      1  0.5079060000000  0.4212050000000  0.5184730000000 1.0
C      1  0.4543160000000  0.4949110000000  0.5548120000000 1.0
C      1  0.4320710000000  0.4600640000000  0.5074040000000 1.0
C      1  0.4724370000000  0.4502620000000  0.5391530000000 1.0
C      1  0.5432860000000  0.4910860000000  0.5110950000000 1.0
C      1  0.4901200000000  0.4931400000000  0.5775800000000 1.0
C      1  0.5326370000000  0.5151600000000  0.5668830000000 1.0
C      1  0.5543220000000  0.4374540000000  0.5149340000000 1.0
C      1  0.5300740000000  0.5642190000000  0.4706940000000 1.0
C      1  0.4281610000000  0.4739400000000  0.4628210000000 1.0
C      1  0.4524090000000  0.5019150000000  0.5250380000000 1.0
C      1  0.4778500000000  0.4763220000000  0.5547770000000 1.0
C      1  0.4539910000000  0.4685120000000  0.4533670000000 1.0
C      1  0.4345440000000  0.5314180000000  0.4686660000000 1.0
C      1  0.4985620000000  0.4877650000000  0.5084600000000 1.0
C      1  0.4752210000000  0.5661820000000  0.5201770000000 1.0
C      1  0.4716030000000  0.5666450000000  0.4638680000000 1.0
C      1  0.5571040000000  0.5081180000000  0.5512400000000 1.0
C      1  0.5526970000000  0.5040870000000  0.4679490000000 1.0
C      1  0.4794080000000  0.5226930000000  0.4559210000000 1.0
C      1  0.4211040000000  0.4556460000000  0.4829020000000 1.0
C      1  0.5125260000000  0.5676710000000  0.4931840000000 1.0
C      1  0.5260560000000  0.5441540000000  0.5634290000000 1.0
C      1  0.5748410000000  0.5275980000000  0.5063540000000 1.0
C      1  0.4606260000000  0.4973380000000  0.4812300000000 1.0
C      1  0.4445060000000  0.5305760000000  0.5207260000000 1.0
END
