TITL C-152273-5832-10 236.744917543752 125000 -692.255037562022 0 0 99 (C1) n - 1
REM
REM in /rds/project/t2_vol4/rds-t2-cs072/BORA/CARBON/from-Arr/AIRSS/Generating-Clusters/GAP-ML-2020/Higher-Symm/SD-CG/HFTN-CG
REM
REM
REM
REM
REM
REM ./C.cell (b20cbc046b6831c77cfcea5457e17084)
REM AIRSS Version 0.9.1 bugfix July 2018 build 013d7b7c2542+ Fri, 06 Jul 2018 19:26:36 +0100
REM compiler GCC version 9.3.0
REM options -cpp -mtune=generic -march=x86-64 -g -O0
REM seed -2076382800 -112928656 -351353066 -585170082 2134666303 1787144412 -72168408 2006598230 -251941884 151232487 1127133216 913833333 -833261346 -2139881125 -370462211 222519974 1380851881 1732143313 -1331368350 1241075934 1451490317 -1281604119 950625664 1867474020 1575867850 211958360 534335085 736361101 -319609779 -1165044805 -1754947804 110923362 1663461521
REM
CELL 1.54180   50.00000   50.00000   50.00000   90.00000   90.00000   90.00000
LATT -1
SFAC C  
C      1  0.5558510000000  0.5325240000000  0.5598440000000 1.0
C      1  0.5563720000000  0.5599610000000  0.4674000000000 1.0
C      1  0.5535130000000  0.4688680000000  0.4407590000000 1.0
C      1  0.5553150000000  0.4399730000000  0.5322060000000 1.0
C      1  0.4403480000000  0.5304860000000  0.4450500000000 1.0
C      1  0.4440460000000  0.5631070000000  0.5319130000000 1.0
C      1  0.4438200000000  0.4687060000000  0.5570690000000 1.0
C      1  0.4431270000000  0.4380810000000  0.4668240000000 1.0
C      1  0.5690690000000  0.4598110000000  0.5439830000000 1.0
C      1  0.5670980000000  0.5464340000000  0.5399650000000 1.0
C      1  0.5734060000000  0.5415200000000  0.4562460000000 1.0
C      1  0.5658300000000  0.4561710000000  0.4607060000000 1.0
C      1  0.4289460000000  0.4568330000000  0.4538170000000 1.0
C      1  0.4244790000000  0.5369560000000  0.4692770000000 1.0
C      1  0.4280710000000  0.5420760000000  0.5398790000000 1.0
C      1  0.4316400000000  0.4555140000000  0.5375400000000 1.0
C      1  0.4866180000000  0.4800250000000  0.4788300000000 1.0
C      1  0.4836050000000  0.4743530000000  0.5253530000000 1.0
C      1  0.4867830000000  0.5212450000000  0.5209300000000 1.0
C      1  0.4826500000000  0.5244030000000  0.4727630000000 1.0
C      1  0.5119040000000  0.4811720000000  0.5211770000000 1.0
C      1  0.5147560000000  0.4734440000000  0.4749170000000 1.0
C      1  0.5115740000000  0.5202340000000  0.4785660000000 1.0
C      1  0.5156890000000  0.5252530000000  0.5264000000000 1.0
C      1  0.4859990000000  0.4712380000000  0.4229970000000 1.0
C      1  0.4860310000000  0.4230410000000  0.5271510000000 1.0
C      1  0.4875530000000  0.5295830000000  0.5772090000000 1.0
C      1  0.4877380000000  0.5794720000000  0.4728730000000 1.0
C      1  0.5109130000000  0.4712880000000  0.5761940000000 1.0
C      1  0.5128030000000  0.4232860000000  0.4717770000000 1.0
C      1  0.5083650000000  0.5297800000000  0.4222520000000 1.0
C      1  0.5146340000000  0.5781780000000  0.5282820000000 1.0
C      1  0.4423820000000  0.5026300000000  0.4389210000000 1.0
C      1  0.4431220000000  0.4325420000000  0.4954590000000 1.0
C      1  0.4482460000000  0.4990110000000  0.5564320000000 1.0
C      1  0.4456300000000  0.5712680000000  0.5026490000000 1.0
C      1  0.5546190000000  0.5035790000000  0.5617260000000 1.0
C      1  0.5554600000000  0.4341500000000  0.5034520000000 1.0
C      1  0.5482860000000  0.4990550000000  0.4411060000000 1.0
C      1  0.5561580000000  0.5643310000000  0.4962980000000 1.0
C      1  0.5299520000000  0.5674510000000  0.4567240000000 1.0
C      1  0.5292910000000  0.4573650000000  0.4308130000000 1.0
C      1  0.5294150000000  0.4319600000000  0.5429370000000 1.0
C      1  0.5310880000000  0.5439990000000  0.5687180000000 1.0
C      1  0.4701660000000  0.5697320000000  0.5432830000000 1.0
C      1  0.4679260000000  0.4571810000000  0.5673700000000 1.0
C      1  0.4690800000000  0.4308410000000  0.4560620000000 1.0
C      1  0.4648990000000  0.5438100000000  0.4360110000000 1.0
C      1  0.4694850000000  0.4214980000000  0.5029860000000 1.0
C      1  0.4713890000000  0.5050710000000  0.5746110000000 1.0
C      1  0.4724020000000  0.5823930000000  0.4972860000000 1.0
C      1  0.4704730000000  0.4964480000000  0.4305250000000 1.0
C      1  0.5295160000000  0.4222170000000  0.4959510000000 1.0
C      1  0.5249350000000  0.5051880000000  0.4228510000000 1.0
C      1  0.5308370000000  0.5776890000000  0.5038650000000 1.0
C      1  0.5264950000000  0.4965990000000  0.5697610000000 1.0
C      1  0.4143130000000  0.4756070000000  0.5016560000000 1.0
C      1  0.4230430000000  0.5029230000000  0.5125010000000 1.0
C      1  0.4142040000000  0.5146870000000  0.4853620000000 1.0
C      1  0.4109380000000  0.4881600000000  0.4754760000000 1.0
C      1  0.5831180000000  0.4785620000000  0.4966750000000 1.0
C      1  0.5749400000000  0.5041330000000  0.4824030000000 1.0
C      1  0.5831470000000  0.5200740000000  0.5067190000000 1.0
C      1  0.5847710000000  0.4947290000000  0.5213940000000 1.0
C      1  0.5721550000000  0.5147260000000  0.4537810000000 1.0
C      1  0.5722550000000  0.4530290000000  0.4869170000000 1.0
C      1  0.5738840000000  0.4864250000000  0.5472860000000 1.0
C      1  0.5732280000000  0.5465630000000  0.5137620000000 1.0
C      1  0.4254210000000  0.5154630000000  0.5420190000000 1.0
C      1  0.4253300000000  0.4505750000000  0.5116370000000 1.0
C      1  0.4236640000000  0.4830350000000  0.4500710000000 1.0
C      1  0.4296030000000  0.5598690000000  0.4835400000000 1.0
C      1  0.5132750000000  0.4782660000000  0.4192940000000 1.0
C      1  0.5144520000000  0.4205390000000  0.5213530000000 1.0
C      1  0.5150640000000  0.5231660000000  0.5790830000000 1.0
C      1  0.5160960000000  0.5798760000000  0.4783340000000 1.0
C      1  0.4834360000000  0.4781860000000  0.5790400000000 1.0
C      1  0.4845440000000  0.4198400000000  0.4775820000000 1.0
C      1  0.4807450000000  0.5238770000000  0.4227160000000 1.0
C      1  0.4865230000000  0.5820060000000  0.5228350000000 1.0
C      1  0.4684750000000  0.4752520000000  0.5000190000000 1.0
C      1  0.4701200000000  0.4998450000000  0.5340260000000 1.0
C      1  0.4694890000000  0.5243710000000  0.4982430000000 1.0
C      1  0.4760290000000  0.4991510000000  0.4604770000000 1.0
C      1  0.5300230000000  0.4754050000000  0.5001530000000 1.0
C      1  0.5279670000000  0.4989930000000  0.4654660000000 1.0
C      1  0.5294420000000  0.5246650000000  0.5008750000000 1.0
C      1  0.5224180000000  0.5007020000000  0.5393640000000 1.0
C      1  0.4851000000000  0.4372980000000  0.5540210000000 1.0
C      1  0.4875640000000  0.5561320000000  0.5625730000000 1.0
C      1  0.4843830000000  0.5641340000000  0.4469410000000 1.0
C      1  0.4863410000000  0.4444390000000  0.4369470000000 1.0
C      1  0.5128920000000  0.4374880000000  0.4446670000000 1.0
C      1  0.5104080000000  0.5556840000000  0.4376650000000 1.0
C      1  0.5145100000000  0.5638760000000  0.5551700000000 1.0
C      1  0.5115230000000  0.4447810000000  0.5620830000000 1.0
C      1  0.4531530000000  0.5006060000000  0.5065360000000 1.0
C      1  0.5454070000000  0.5003580000000  0.4917830000000 1.0
C      1  0.4992720000000  0.5005200000000  0.4998460000000 1.0
END
