TITL C-152278-5864-2 -0.00315199618951335 125000 -469.83126954304 0 0 69 (C1) n - 1
REM
REM in /rds/project/t2_vol4/rds-t2-cs072/BORA/CARBON/from-Arr/AIRSS/Generating-Clusters/GAP-ML-2020/Higher-Symm/SD-CG/HFTN-CG
REM
REM
REM
REM
REM
REM ./C.cell (b20cbc046b6831c77cfcea5457e17084)
REM AIRSS Version 0.9.1 bugfix July 2018 build 013d7b7c2542+ Fri, 06 Jul 2018 19:26:36 +0100
REM compiler GCC version 9.3.0
REM options -cpp -mtune=generic -march=x86-64 -g -O0
REM seed -57742732 -996188468 1837924899 -1200321569 46622481 1138662711 530489788 -808406980 -1013253553 591159433 335024726 -251413182 275051986 -1952365834 933260138 844361002 -631873600 -1099762669 1404087390 -889069793 567020166 -939743257 -2019543394 -1374652039 -87422795 1212382392 -706382520 1969901819 922262498 -368507952 2042762704 -1472738424 924562553
REM
CELL 1.54180   50.00000   50.00000   50.00000   90.00000   90.00000   90.00000
LATT -1
SFAC C  
C      1  0.5625580000000  0.5270160000000  0.4725570000000 1.0
C      1  0.5413120000000  0.5233590000000  0.5433600000000 1.0
C      1  0.4710250000000  0.5270010000000  0.5594680000000 1.0
C      1  0.4354270000000  0.5363300000000  0.4914540000000 1.0
C      1  0.4894070000000  0.5235800000000  0.4443610000000 1.0
C      1  0.5429710000000  0.4747740000000  0.5467780000000 1.0
C      1  0.4682460000000  0.4788880000000  0.5453940000000 1.0
C      1  0.4386280000000  0.4661350000000  0.4710220000000 1.0
C      1  0.5015540000000  0.4753330000000  0.4482900000000 1.0
C      1  0.5650910000000  0.4767150000000  0.4776050000000 1.0
C      1  0.5150350000000  0.5857640000000  0.4803190000000 1.0
C      1  0.5270170000000  0.5857090000000  0.5068380000000 1.0
C      1  0.5058170000000  0.5857610000000  0.5261450000000 1.0
C      1  0.4813300000000  0.5876960000000  0.5118150000000 1.0
C      1  0.4868520000000  0.5884720000000  0.4836890000000 1.0
C      1  0.5410210000000  0.4999420000000  0.4408260000000 1.0
C      1  0.5714820000000  0.5002680000000  0.5154950000000 1.0
C      1  0.5082540000000  0.4971080000000  0.5678470000000 1.0
C      1  0.4357320000000  0.5104480000000  0.5295830000000 1.0
C      1  0.4588410000000  0.4892300000000  0.4374860000000 1.0
C      1  0.5118670000000  0.5015740000000  0.4379100000000 1.0
C      1  0.5718570000000  0.5028820000000  0.4867650000000 1.0
C      1  0.5359590000000  0.4991590000000  0.5595940000000 1.0
C      1  0.4530340000000  0.5060780000000  0.5524640000000 1.0
C      1  0.4397170000000  0.4919480000000  0.4583180000000 1.0
C      1  0.5483510000000  0.4746140000000  0.4540890000000 1.0
C      1  0.5624760000000  0.4751010000000  0.5253580000000 1.0
C      1  0.4967940000000  0.4739270000000  0.5558970000000 1.0
C      1  0.4370370000000  0.4680830000000  0.4997930000000 1.0
C      1  0.4746280000000  0.4653910000000  0.4432210000000 1.0
C      1  0.4609260000000  0.4510520000000  0.4641380000000 1.0
C      1  0.5249990000000  0.4590410000000  0.4565790000000 1.0
C      1  0.5599730000000  0.4601070000000  0.5011370000000 1.0
C      1  0.5187000000000  0.4587360000000  0.5439700000000 1.0
C      1  0.4540170000000  0.4546620000000  0.5389050000000 1.0
C      1  0.5202560000000  0.5622620000000  0.4660290000000 1.0
C      1  0.5426570000000  0.5624700000000  0.5115240000000 1.0
C      1  0.5063920000000  0.5612110000000  0.5411750000000 1.0
C      1  0.4654280000000  0.5653670000000  0.5172420000000 1.0
C      1  0.4730000000000  0.5674680000000  0.4703010000000 1.0
C      1  0.5218800000000  0.4991070000000  0.4824810000000 1.0
C      1  0.5200900000000  0.4867510000000  0.5084770000000 1.0
C      1  0.4748740000000  0.4920190000000  0.5178920000000 1.0
C      1  0.4469530000000  0.4947310000000  0.5063490000000 1.0
C      1  0.4937760000000  0.4895290000000  0.4748240000000 1.0
C      1  0.5177990000000  0.5127090000000  0.5214740000000 1.0
C      1  0.4880570000000  0.5193660000000  0.5201690000000 1.0
C      1  0.4479130000000  0.5106900000000  0.4799540000000 1.0
C      1  0.4786330000000  0.5140830000000  0.4727510000000 1.0
C      1  0.5203450000000  0.5255900000000  0.4940060000000 1.0
C      1  0.5411290000000  0.5458170000000  0.4852440000000 1.0
C      1  0.5331960000000  0.5513680000000  0.5381820000000 1.0
C      1  0.4805250000000  0.5453350000000  0.5365630000000 1.0
C      1  0.4529240000000  0.5584880000000  0.4913310000000 1.0
C      1  0.4938220000000  0.5530280000000  0.4542390000000 1.0
C      1  0.4696490000000  0.4333270000000  0.4910640000000 1.0
C      1  0.5208180000000  0.4434570000000  0.4792380000000 1.0
C      1  0.5390980000000  0.4420370000000  0.5012150000000 1.0
C      1  0.5178080000000  0.4418500000000  0.5210070000000 1.0
C      1  0.4496190000000  0.4469690000000  0.5133220000000 1.0
C      1  0.5659860000000  0.5213460000000  0.5303290000000 1.0
C      1  0.4923880000000  0.5184210000000  0.5740200000000 1.0
C      1  0.4232820000000  0.5309540000000  0.5169700000000 1.0
C      1  0.4695970000000  0.5118070000000  0.4276250000000 1.0
C      1  0.5586100000000  0.5198230000000  0.4466450000000 1.0
C      1  0.4975620000000  0.4461410000000  0.4986670000000 1.0
C      1  0.4915470000000  0.5303690000000  0.4931010000000 1.0
C      1  0.4676840000000  0.4052540000000  0.4882380000000 1.0
C      1  0.4927910000000  0.4762350000000  0.5009070000000 1.0
END
