TITL C-15915-680-10 0.0160668930912315 125000 -825.795832941859 0 0 119 (C2v) n - 1
REM
REM in /rds/project/t2_vol4/rds-t2-cs072/BORA/CARBON/from-Arr/AIRSS/Generating-Clusters/GAP-ML-2020/Higher-Symm/SD-CG/HFTN-CG
REM
REM
REM
REM
REM
REM ./C.cell (b20cbc046b6831c77cfcea5457e17084)
REM AIRSS Version 0.9.1 bugfix July 2018 build 013d7b7c2542+ Fri, 06 Jul 2018 19:26:36 +0100
REM compiler GCC version 9.3.0
REM options -cpp -mtune=generic -march=x86-64 -g -O0
REM seed -2002642842 -486513777 921110191 -2068944216 280933339 1002799296 885210479 960846385 -90374057 -885833271 -1674561741 1457722856 471031284 77040786 -2035180218 -2005265212 -1280428748 718583580 -813923125 -1403624576 413131676 1117426834 1323348616 -798548091 -195011434 1801953394 -1937144024 -250774808 -637660738 1315693877 590348990 -972001136 1076785473
REM
CELL 1.54180   50.00000   50.00000   50.00000   90.00000   90.00000   90.00000
LATT -1
SFAC C  
C      1  0.5312860000000  0.5794810000000  0.5274430000000 1.0
C      1  0.4687050000000  0.5794610000000  0.4729270000000 1.0
C      1  0.5313070000000  0.5794870000000  0.4729520000000 1.0
C      1  0.4686840000000  0.5794540000000  0.5274180000000 1.0
C      1  0.4618180000000  0.5253040000000  0.5153620000000 1.0
C      1  0.5382190000000  0.5253400000000  0.4849960000000 1.0
C      1  0.4618300000000  0.5253080000000  0.4849660000000 1.0
C      1  0.5382070000000  0.5253360000000  0.5153920000000 1.0
C      1  0.4548540000000  0.4951300000000  0.5151660000000 1.0
C      1  0.5452080000000  0.4951710000000  0.4851850000000 1.0
C      1  0.4548660000000  0.4951330000000  0.4851490000000 1.0
C      1  0.5451960000000  0.4951680000000  0.5152020000000 1.0
C      1  0.5160160000000  0.5624960000000  0.4555400000000 1.0
C      1  0.4839890000000  0.5624730000000  0.5448260000000 1.0
C      1  0.5159810000000  0.5624860000000  0.5448390000000 1.0
C      1  0.4840240000000  0.5624830000000  0.4555280000000 1.0
C      1  0.5133650000000  0.4889400000000  0.5463630000000 1.0
C      1  0.4867020000000  0.4889400000000  0.4539870000000 1.0
C      1  0.5134010000000  0.4889510000000  0.4539970000000 1.0
C      1  0.4866660000000  0.4889290000000  0.5463530000000 1.0
C      1  0.4856240000000  0.4937370000000  0.6009660000000 1.0
C      1  0.5144400000000  0.4937720000000  0.3993850000000 1.0
C      1  0.4857030000000  0.4937600000000  0.3993730000000 1.0
C      1  0.5143600000000  0.4937490000000  0.6009770000000 1.0
C      1  0.5806740000000  0.5184890000000  0.5141380000000 1.0
C      1  0.4193680000000  0.5184240000000  0.4862180000000 1.0
C      1  0.5806850000000  0.5184920000000  0.4862820000000 1.0
C      1  0.4193570000000  0.5184210000000  0.5140750000000 1.0
C      1  0.4245390000000  0.5015440000000  0.4239330000000 1.0
C      1  0.5755170000000  0.5015910000000  0.5764190000000 1.0
C      1  0.4244800000000  0.5015270000000  0.5763600000000 1.0
C      1  0.5755770000000  0.5016080000000  0.4239930000000 1.0
C      1  0.5346150000000  0.4287360000000  0.5309630000000 1.0
C      1  0.4655030000000  0.4287140000000  0.4693730000000 1.0
C      1  0.5346390000000  0.4287430000000  0.4694010000000 1.0
C      1  0.4654790000000  0.4287070000000  0.5309360000000 1.0
C      1  0.4393290000000  0.4454570000000  0.5346880000000 1.0
C      1  0.5607750000000  0.4455160000000  0.4656520000000 1.0
C      1  0.4393560000000  0.4454650000000  0.4656050000000 1.0
C      1  0.5607480000000  0.4455080000000  0.5347350000000 1.0
C      1  0.4752520000000  0.4777160000000  0.5241460000000 1.0
C      1  0.5248240000000  0.4777420000000  0.4762020000000 1.0
C      1  0.4752710000000  0.4777210000000  0.4761820000000 1.0
C      1  0.5248050000000  0.4777370000000  0.5241650000000 1.0
C      1  0.5143960000000  0.5343430000000  0.4710710000000 1.0
C      1  0.4856330000000  0.5343250000000  0.5292890000000 1.0
C      1  0.5143730000000  0.5343370000000  0.5293000000000 1.0
C      1  0.4856560000000  0.5343310000000  0.4710600000000 1.0
C      1  0.4854830000000  0.4645500000000  0.4084460000000 1.0
C      1  0.5146050000000  0.4645410000000  0.5918980000000 1.0
C      1  0.4854110000000  0.4645290000000  0.5918870000000 1.0
C      1  0.5146770000000  0.4645620000000  0.4084580000000 1.0
C      1  0.4446390000000  0.5201380000000  0.4208860000000 1.0
C      1  0.5554020000000  0.5201670000000  0.5794710000000 1.0
C      1  0.4445760000000  0.5201200000000  0.5794280000000 1.0
C      1  0.5554640000000  0.5201850000000  0.4209290000000 1.0
C      1  0.5295040000000  0.5177780000000  0.5951750000000 1.0
C      1  0.4705390000000  0.5177750000000  0.4051820000000 1.0
C      1  0.5295790000000  0.5178000000000  0.4052050000000 1.0
C      1  0.4704640000000  0.5177530000000  0.5951520000000 1.0
C      1  0.4623670000000  0.4046520000000  0.5128630000000 1.0
C      1  0.5377710000000  0.4046870000000  0.4874670000000 1.0
C      1  0.4623770000000  0.4046550000000  0.4874380000000 1.0
C      1  0.5377610000000  0.4046840000000  0.5128930000000 1.0
C      1  0.4702990000000  0.5549010000000  0.4319180000000 1.0
C      1  0.5297130000000  0.5549100000000  0.5684470000000 1.0
C      1  0.4702450000000  0.5548850000000  0.5684230000000 1.0
C      1  0.5297660000000  0.5549260000000  0.4319410000000 1.0
C      1  0.4247100000000  0.4626080000000  0.5143720000000 1.0
C      1  0.5753790000000  0.4626750000000  0.4859720000000 1.0
C      1  0.4247210000000  0.4626110000000  0.4859130000000 1.0
C      1  0.5753680000000  0.4626710000000  0.5144310000000 1.0
C      1  0.4272500000000  0.4831980000000  0.5563410000000 1.0
C      1  0.5728220000000  0.4832720000000  0.4440080000000 1.0
C      1  0.4272940000000  0.4832100000000  0.4439500000000 1.0
C      1  0.5727780000000  0.4832590000000  0.5563980000000 1.0
C      1  0.4854950000000  0.5412610000000  0.5892400000000 1.0
C      1  0.5145280000000  0.5412930000000  0.4111220000000 1.0
C      1  0.4855650000000  0.5412810000000  0.4111110000000 1.0
C      1  0.5144580000000  0.5412730000000  0.5892510000000 1.0
C      1  0.4692080000000  0.4495270000000  0.4272430000000 1.0
C      1  0.5308930000000  0.4495360000000  0.5730980000000 1.0
C      1  0.4691500000000  0.4495100000000  0.5730730000000 1.0
C      1  0.5309500000000  0.4495530000000  0.4272670000000 1.0
C      1  0.5739230000000  0.4901570000000  0.4739570000000 1.0
C      1  0.4261430000000  0.4900890000000  0.5263930000000 1.0
C      1  0.5739030000000  0.4901510000000  0.5264510000000 1.0
C      1  0.4261630000000  0.4900950000000  0.4738990000000 1.0
C      1  0.5151850000000  0.4326620000000  0.5558490000000 1.0
C      1  0.4849290000000  0.4326620000000  0.4444880000000 1.0
C      1  0.5152290000000  0.4326740000000  0.4445000000000 1.0
C      1  0.4848860000000  0.4326490000000  0.5558370000000 1.0
C      1  0.4425350000000  0.4580040000000  0.4414020000000 1.0
C      1  0.5575580000000  0.4580390000000  0.5589410000000 1.0
C      1  0.4424890000000  0.4579900000000  0.5588960000000 1.0
C      1  0.5576050000000  0.4580520000000  0.4414470000000 1.0
C      1  0.5149500000000  0.5981330000000  0.4858330000000 1.0
C      1  0.4850250000000  0.5981170000000  0.5145410000000 1.0
C      1  0.5149390000000  0.5981300000000  0.5145530000000 1.0
C      1  0.4850360000000  0.5981210000000  0.4858220000000 1.0
C      1  0.5237160000000  0.4503670000000  0.4857220000000 1.0
C      1  0.4763830000000  0.4503440000000  0.5146190000000 1.0
C      1  0.5237050000000  0.4503630000000  0.5146380000000 1.0
C      1  0.4763950000000  0.4503470000000  0.4857030000000 1.0
C      1  0.4388600000000  0.5399580000000  0.5282540000000 1.0
C      1  0.5611640000000  0.5400160000000  0.4721080000000 1.0
C      1  0.4388820000000  0.5399650000000  0.4720600000000 1.0
C      1  0.5611420000000  0.5400100000000  0.5283020000000 1.0
C      1  0.4469370000000  0.5405640000000  0.4408550000000 1.0
C      1  0.5530870000000  0.5405960000000  0.5595060000000 1.0
C      1  0.4468900000000  0.5405510000000  0.5594650000000 1.0
C      1  0.5531330000000  0.5406090000000  0.4408970000000 1.0
C      1  0.4466330000000  0.5656840000000  0.5144320000000 1.0
C      1  0.5533690000000  0.5657320000000  0.4859350000000 1.0
C      1  0.4466440000000  0.5656870000000  0.4858930000000 1.0
C      1  0.5533580000000  0.5657290000000  0.5144740000000 1.0
C      1  0.5000050000000  0.5147390000000  0.5455010000000 1.0
C      1  0.5000400000000  0.5147490000000  0.4548540000000 1.0
C      1  0.5000540000000  0.4409200000000  0.5001690000000 1.0
END
