TITL C-152269-5962-6 -0.118611892904893 125000 -241.633006036108 0 0 36 (Cs) n - 1
REM
REM in /rds/project/t2_vol4/rds-t2-cs072/BORA/CARBON/from-Arr/AIRSS/Generating-Clusters/GAP-ML-2020/Higher-Symm/SD-CG/HFTN-CG
REM
REM
REM
REM
REM
REM ./C.cell (b20cbc046b6831c77cfcea5457e17084)
REM AIRSS Version 0.9.1 bugfix July 2018 build 013d7b7c2542+ Fri, 06 Jul 2018 19:26:36 +0100
REM compiler GCC version 9.3.0
REM options -cpp -mtune=generic -march=x86-64 -g -O0
REM seed 1828274787 -1074350588 1540599453 2135004304 -1144594919 -1428192855 1932340238 587766859 -351358321 891626018 1405212711 -488123703 -1601829326 -806458461 -1125538846 1187089936 -2046338180 449973263 -794264656 -684092542 -1805193271 -981663567 -628600861 -352172868 -1281099724 -989152784 113246309 -1722784178 892454754 1868050766 1996844432 603238389 1037814162
REM
CELL 1.54180   50.00000   50.00000   50.00000   90.00000   90.00000   90.00000
LATT -1
SFAC C  
C      1  0.5033250000000  0.5605380000000  0.5143620000000 1.0
C      1  0.5033250000000  0.5605370000000  0.4856330000000 1.0
C      1  0.5349780000000  0.5284950000000  0.5281970000000 1.0
C      1  0.5349780000000  0.5284930000000  0.4718000000000 1.0
C      1  0.5403500000000  0.4816370000000  0.4761740000000 1.0
C      1  0.5403510000000  0.4816390000000  0.5238270000000 1.0
C      1  0.4929470000000  0.4436810000000  0.4854270000000 1.0
C      1  0.4929470000000  0.4436820000000  0.5145780000000 1.0
C      1  0.5167740000000  0.4476640000000  0.5291170000000 1.0
C      1  0.5167740000000  0.4476620000000  0.4708870000000 1.0
C      1  0.4787260000000  0.4871080000000  0.5595250000000 1.0
C      1  0.4787250000000  0.4871020000000  0.4404770000000 1.0
C      1  0.5418580000000  0.4548310000000  0.4861250000000 1.0
C      1  0.5418580000000  0.4548320000000  0.5138780000000 1.0
C      1  0.5095500000000  0.5233340000000  0.4578150000000 1.0
C      1  0.5095510000000  0.5233370000000  0.5421830000000 1.0
C      1  0.4659060000000  0.4854840000000  0.4652100000000 1.0
C      1  0.4659070000000  0.4854870000000  0.5347920000000 1.0
C      1  0.4896240000000  0.5392890000000  0.5282640000000 1.0
C      1  0.4896240000000  0.5392860000000  0.4717330000000 1.0
C      1  0.4661210000000  0.5288020000000  0.4852450000000 1.0
C      1  0.4661210000000  0.5288030000000  0.5147530000000 1.0
C      1  0.5040050000000  0.4969230000000  0.5526610000000 1.0
C      1  0.5040040000000  0.4969190000000  0.4473390000000 1.0
C      1  0.5132830000000  0.4774130000000  0.5330640000000 1.0
C      1  0.5132830000000  0.4774100000000  0.4669380000000 1.0
C      1  0.4257710000000  0.5038260000000  0.4873210000000 1.0
C      1  0.4257710000000  0.5038280000000  0.5126800000000 1.0
C      1  0.4861200000000  0.4733810000000  0.5155050000000 1.0
C      1  0.4861200000000  0.4733800000000  0.4844980000000 1.0
C      1  0.5321340000000  0.5531500000000  0.4858580000000 1.0
C      1  0.5321350000000  0.5531520000000  0.5141370000000 1.0
C      1  0.5486670000000  0.5069260000000  0.5145540000000 1.0
C      1  0.5486670000000  0.5069250000000  0.4854450000000 1.0
C      1  0.4498590000000  0.5075190000000  0.4737780000000 1.0
C      1  0.4498600000000  0.5075220000000  0.5262220000000 1.0
END
