TITL C-15919-2000-5 0.0750813562745366 125000 -525.490797506045 0 0 75 (C1) n - 1
REM
REM in /rds/project/t2_vol4/rds-t2-cs072/BORA/CARBON/from-Arr/AIRSS/Generating-Clusters/GAP-ML-2020/Higher-Symm/SD-CG/HFTN-CG
REM
REM
REM
REM
REM
REM ./C.cell (b20cbc046b6831c77cfcea5457e17084)
REM AIRSS Version 0.9.1 bugfix July 2018 build 013d7b7c2542+ Fri, 06 Jul 2018 19:26:36 +0100
REM compiler GCC version 9.3.0
REM options -cpp -mtune=generic -march=x86-64 -g -O0
REM seed 2112594670 47893542 -442441569 -322565814 -460633967 1485927009 286622401 -519614509 1719771064 1636646240 -2086466694 -751068958 1052161331 -220576424 -77891121 -1276950728 1065255640 -571236369 213625256 -1875130214 1972277923 997058405 -860535841 -1844352936 -496176456 475247507 554775986 -1337074160 417434877 -1084501366 -1639490394 7648995 -2031512970
REM
CELL 1.54180   50.00000   50.00000   50.00000   90.00000   90.00000   90.00000
LATT -1
SFAC C  
C      1  0.4676750000000  0.4870340000000  0.5412890000000 1.0
C      1  0.5381030000000  0.4935440000000  0.5477430000000 1.0
C      1  0.5349500000000  0.4719730000000  0.4755130000000 1.0
C      1  0.4637940000000  0.4718380000000  0.4714200000000 1.0
C      1  0.4659070000000  0.5372990000000  0.5498070000000 1.0
C      1  0.5332270000000  0.5413300000000  0.5519180000000 1.0
C      1  0.5323540000000  0.4681980000000  0.5618530000000 1.0
C      1  0.4802730000000  0.4635830000000  0.5553490000000 1.0
C      1  0.5252260000000  0.4482900000000  0.5427970000000 1.0
C      1  0.4971700000000  0.4479100000000  0.5378880000000 1.0
C      1  0.5310310000000  0.5163110000000  0.5655000000000 1.0
C      1  0.4700860000000  0.5108590000000  0.5605270000000 1.0
C      1  0.4399450000000  0.4875900000000  0.5275900000000 1.0
C      1  0.5631340000000  0.4927480000000  0.5326110000000 1.0
C      1  0.4851620000000  0.5844400000000  0.4994080000000 1.0
C      1  0.5128280000000  0.5854080000000  0.4993000000000 1.0
C      1  0.5146710000000  0.4661570000000  0.4191280000000 1.0
C      1  0.4870730000000  0.4665590000000  0.4177540000000 1.0
C      1  0.4479970000000  0.5612060000000  0.5142490000000 1.0
C      1  0.5500020000000  0.5635870000000  0.5149550000000 1.0
C      1  0.4695830000000  0.4877440000000  0.4275820000000 1.0
C      1  0.5320910000000  0.4866890000000  0.4303130000000 1.0
C      1  0.4853310000000  0.5018680000000  0.5828490000000 1.0
C      1  0.5142820000000  0.5049570000000  0.5861290000000 1.0
C      1  0.5205850000000  0.4519520000000  0.4946130000000 1.0
C      1  0.4707230000000  0.4488710000000  0.4902640000000 1.0
C      1  0.4434290000000  0.4190550000000  0.4873760000000 1.0
C      1  0.5415140000000  0.4208970000000  0.5003950000000 1.0
C      1  0.4851930000000  0.5581740000000  0.4562250000000 1.0
C      1  0.5149080000000  0.5583610000000  0.4564680000000 1.0
C      1  0.5159330000000  0.4961500000000  0.4724170000000 1.0
C      1  0.4849960000000  0.4952780000000  0.4707950000000 1.0
C      1  0.4342320000000  0.5147190000000  0.5180840000000 1.0
C      1  0.5667030000000  0.5184500000000  0.5201110000000 1.0
C      1  0.5258550000000  0.4440770000000  0.4361290000000 1.0
C      1  0.4728610000000  0.4445450000000  0.4316810000000 1.0
C      1  0.5122470000000  0.4255820000000  0.4530620000000 1.0
C      1  0.4835270000000  0.4248850000000  0.4495810000000 1.0
C      1  0.5610960000000  0.4710500000000  0.5142160000000 1.0
C      1  0.4325220000000  0.4692040000000  0.5067520000000 1.0
C      1  0.5413430000000  0.4644430000000  0.4475760000000 1.0
C      1  0.4580280000000  0.4654910000000  0.4431870000000 1.0
C      1  0.4714070000000  0.5750900000000  0.5230380000000 1.0
C      1  0.5261630000000  0.5769950000000  0.5233060000000 1.0
C      1  0.4769940000000  0.5077960000000  0.4968490000000 1.0
C      1  0.5251110000000  0.5111270000000  0.4983140000000 1.0
C      1  0.4427370000000  0.4423780000000  0.5023050000000 1.0
C      1  0.5415280000000  0.4471310000000  0.5177870000000 1.0
C      1  0.4415790000000  0.5124510000000  0.4897450000000 1.0
C      1  0.5570500000000  0.5135590000000  0.4928090000000 1.0
C      1  0.4750640000000  0.5090580000000  0.4448930000000 1.0
C      1  0.5267450000000  0.5088690000000  0.4466670000000 1.0
C      1  0.4840020000000  0.5607880000000  0.5444110000000 1.0
C      1  0.5135120000000  0.5622890000000  0.5446830000000 1.0
C      1  0.5122550000000  0.5360150000000  0.5009480000000 1.0
C      1  0.4864000000000  0.5340040000000  0.5009300000000 1.0
C      1  0.4481890000000  0.5602020000000  0.4860590000000 1.0
C      1  0.5508370000000  0.5616950000000  0.4869020000000 1.0
C      1  0.4675380000000  0.5351210000000  0.4523050000000 1.0
C      1  0.5334000000000  0.5355890000000  0.4532940000000 1.0
C      1  0.5233180000000  0.4248500000000  0.4806430000000 1.0
C      1  0.4681550000000  0.4229970000000  0.4742360000000 1.0
C      1  0.4395880000000  0.4842630000000  0.4831220000000 1.0
C      1  0.5579630000000  0.4837990000000  0.4894860000000 1.0
C      1  0.5547330000000  0.5416460000000  0.5317710000000 1.0
C      1  0.4446290000000  0.5380330000000  0.5300480000000 1.0
C      1  0.4457070000000  0.5358620000000  0.4723790000000 1.0
C      1  0.5544030000000  0.5370450000000  0.4738970000000 1.0
C      1  0.5168030000000  0.4953370000000  0.5211540000000 1.0
C      1  0.4887730000000  0.4879220000000  0.5172980000000 1.0
C      1  0.5168990000000  0.4746540000000  0.5843190000000 1.0
C      1  0.4889690000000  0.4715660000000  0.5809600000000 1.0
C      1  0.4718350000000  0.5740840000000  0.4764200000000 1.0
C      1  0.5272750000000  0.5750850000000  0.4765870000000 1.0
C      1  0.4931360000000  0.4567180000000  0.5087940000000 1.0
END
