TITL C-150249-3116-5 -88.3346274872132 125000 -147.12966425881 0 0 23 (C1) n - 1
REM
REM in /rds/project/t2_vol4/rds-t2-cs072/BORA/CARBON/from-Arr/AIRSS/Generating-Clusters/GAP-ML-2020/Higher-Symm/SD-CG/HFTN-CG
REM
REM
REM
REM
REM
REM ./C.cell (b20cbc046b6831c77cfcea5457e17084)
REM AIRSS Version 0.9.1 bugfix July 2018 build 013d7b7c2542+ Fri, 06 Jul 2018 19:26:36 +0100
REM compiler GCC version 9.3.0
REM options -cpp -mtune=generic -march=x86-64 -g -O0
REM seed -1189731971 1552914939 -1968848503 1381765852 9525244 -1022302327 735647086 756426957 1777706879 183013001 2012492909 -1079700779 -702534809 -2007710946 -728627082 1715935596 607109696 651455034 365968419 1609625193 -1873620509 -377385438 -898819599 1540305934 801164409 -1172585727 -1115533984 1014823555 -1403434316 -328110190 686258976 238532664 -2108438070
REM
CELL 1.54180   50.00000   50.00000   50.00000   90.00000   90.00000   90.00000
LATT -1
SFAC C  
C      1  0.5469160000000  0.5092180000000  0.5235430000000 1.0
C      1  0.5053250000000  0.5616450000000  0.4972860000000 1.0
C      1  0.5235770000000  0.5467790000000  0.5113020000000 1.0
C      1  0.4408320000000  0.4711660000000  0.4909580000000 1.0
C      1  0.4969680000000  0.4829230000000  0.4615250000000 1.0
C      1  0.4926780000000  0.4625680000000  0.5263380000000 1.0
C      1  0.4698130000000  0.4521020000000  0.5147690000000 1.0
C      1  0.4745720000000  0.5001870000000  0.4676550000000 1.0
C      1  0.4973300000000  0.4596270000000  0.4749910000000 1.0
C      1  0.5202230000000  0.5008190000000  0.4582740000000 1.0
C      1  0.5014450000000  0.5296340000000  0.5208120000000 1.0
C      1  0.4875510000000  0.5397090000000  0.4960790000000 1.0
C      1  0.5410160000000  0.5262100000000  0.5011000000000 1.0
C      1  0.5069090000000  0.4826060000000  0.5381040000000 1.0
C      1  0.4934910000000  0.4491990000000  0.4983190000000 1.0
C      1  0.4431000000000  0.4525810000000  0.5100490000000 1.0
C      1  0.4850820000000  0.5270380000000  0.4704110000000 1.0
C      1  0.5120690000000  0.5276170000000  0.4570660000000 1.0
C      1  0.5368530000000  0.4858820000000  0.5377260000000 1.0
C      1  0.4519760000000  0.4885180000000  0.4765950000000 1.0
C      1  0.5328010000000  0.5180140000000  0.4757160000000 1.0
C      1  0.5040200000000  0.5127030000000  0.5427540000000 1.0
C      1  0.5354530000000  0.5132540000000  0.5486290000000 1.0
END
