TITL C-154523-3086-9 -0.0379055685942369 125000 -212.809038505619 0 0 33 (C1) n - 1
REM
REM in /rds/project/t2_vol4/rds-t2-cs072/BORA/CARBON/from-Arr/AIRSS/Generating-Clusters/GAP-ML-2020/Higher-Symm/SD-CG/HFTN-CG
REM
REM
REM
REM
REM
REM ./C.cell (b20cbc046b6831c77cfcea5457e17084)
REM AIRSS Version 0.9.1 bugfix July 2018 build 013d7b7c2542+ Fri, 06 Jul 2018 19:26:36 +0100
REM compiler GCC version 9.3.0
REM options -cpp -mtune=generic -march=x86-64 -g -O0
REM seed 709183169 1022581205 -1415444618 -1724885830 -948915244 -458335468 -1657040847 594531135 1171374225 117519953 1770417818 -729744697 -427491696 -1109309981 916216441 -1711861313 291271774 -1576351379 565209311 -1779647955 -766466541 788077457 -421484197 -1975774393 551964350 844283079 -1146768683 910469750 -1073087382 1457666307 -149723568 1172985404 -645185768
REM
CELL 1.54180   50.00000   50.00000   50.00000   90.00000   90.00000   90.00000
LATT -1
SFAC C  
C      1  0.4850840000000  0.5039300000000  0.4519640000000 1.0
C      1  0.5184190000000  0.4991380000000  0.5510280000000 1.0
C      1  0.4855160000000  0.4669480000000  0.5425660000000 1.0
C      1  0.5095100000000  0.5412550000000  0.4608030000000 1.0
C      1  0.4764820000000  0.4778410000000  0.4498720000000 1.0
C      1  0.5307190000000  0.5228700000000  0.5453760000000 1.0
C      1  0.4846730000000  0.5424800000000  0.4758500000000 1.0
C      1  0.5109060000000  0.4547460000000  0.5383930000000 1.0
C      1  0.4703850000000  0.5122300000000  0.5488280000000 1.0
C      1  0.5344720000000  0.5041050000000  0.4453720000000 1.0
C      1  0.5100230000000  0.5176910000000  0.4454050000000 1.0
C      1  0.4897260000000  0.4936990000000  0.5536140000000 1.0
C      1  0.4781160000000  0.4989010000000  0.5018070000000 1.0
C      1  0.5273850000000  0.5075060000000  0.4929020000000 1.0
C      1  0.5359640000000  0.5341740000000  0.4999990000000 1.0
C      1  0.4672590000000  0.4718820000000  0.4967720000000 1.0
C      1  0.5224650000000  0.4793850000000  0.5297700000000 1.0
C      1  0.4753040000000  0.5158900000000  0.4763740000000 1.0
C      1  0.4178320000000  0.5103010000000  0.4952990000000 1.0
C      1  0.5754680000000  0.4725830000000  0.5023160000000 1.0
C      1  0.4876890000000  0.5640700000000  0.4943960000000 1.0
C      1  0.5089270000000  0.4320470000000  0.5229080000000 1.0
C      1  0.5291660000000  0.5529870000000  0.4797510000000 1.0
C      1  0.4699890000000  0.4560350000000  0.5194390000000 1.0
C      1  0.4841680000000  0.4318920000000  0.5136540000000 1.0
C      1  0.5123790000000  0.5733380000000  0.4933060000000 1.0
C      1  0.4614940000000  0.5121640000000  0.5226020000000 1.0
C      1  0.5426430000000  0.4951450000000  0.4704670000000 1.0
C      1  0.5393630000000  0.5390710000000  0.5279790000000 1.0
C      1  0.4714480000000  0.4636770000000  0.4702530000000 1.0
C      1  0.5631810000000  0.4803450000000  0.4818090000000 1.0
C      1  0.4359100000000  0.5140740000000  0.5118930000000 1.0
C      1  0.5086020000000  0.4933300000000  0.5079520000000 1.0
END
