TITL C-150270-3415-1 1011.58088149216 125000 -675.976977066257 0 0 100 (C4) n - 1
REM
REM in /rds/project/t2_vol4/rds-t2-cs072/BORA/CARBON/from-Arr/AIRSS/Generating-Clusters/GAP-ML-2020/Higher-Symm/SD-CG/HFTN-CG
REM
REM
REM
REM
REM
REM ./C.cell (b20cbc046b6831c77cfcea5457e17084)
REM AIRSS Version 0.9.1 bugfix July 2018 build 013d7b7c2542+ Fri, 06 Jul 2018 19:26:36 +0100
REM compiler GCC version 9.3.0
REM options -cpp -mtune=generic -march=x86-64 -g -O0
REM seed 1268742703 -934385035 -1782967804 471293404 1133617145 -2063654043 -318319561 -2033714201 1768643016 -1449453436 -849240544 -374373695 978547116 -1093774458 -1358763922 1691464036 -1236753273 1919083777 2056734692 -1663709826 959272360 -2120520778 2141875985 416715355 -219582843 -292770181 -1613391418 446919803 -2001502016 996976526 -779391755 -721080931 643805350
REM
CELL 1.54180   50.00000   50.00000   50.00000   90.00000   90.00000   90.00000
LATT -1
SFAC C  
C      1  0.4526490000000  0.4704930000000  0.5531240000000 1.0
C      1  0.4568280000000  0.5562090000000  0.5302100000000 1.0
C      1  0.4582280000000  0.5332090000000  0.4444260000000 1.0
C      1  0.4540480000000  0.4474920000000  0.4673400000000 1.0
C      1  0.4561740000000  0.5321630000000  0.5534570000000 1.0
C      1  0.4533220000000  0.4472160000000  0.5291070000000 1.0
C      1  0.4566560000000  0.4714580000000  0.4441470000000 1.0
C      1  0.4595080000000  0.5564050000000  0.4684970000000 1.0
C      1  0.4749030000000  0.4283480000000  0.5365620000000 1.0
C      1  0.4784770000000  0.5380850000000  0.5720260000000 1.0
C      1  0.4829500000000  0.5734070000000  0.4622760000000 1.0
C      1  0.4793760000000  0.4636700000000  0.4268120000000 1.0
C      1  0.4811720000000  0.5717010000000  0.5365980000000 1.0
C      1  0.4757780000000  0.4637920000000  0.5702570000000 1.0
C      1  0.4773400000000  0.4300270000000  0.4622590000000 1.0
C      1  0.4827340000000  0.5379350000000  0.4285990000000 1.0
C      1  0.4597700000000  0.4887900000000  0.5307360000000 1.0
C      1  0.4621380000000  0.5334160000000  0.5117980000000 1.0
C      1  0.4625760000000  0.5144360000000  0.4671290000000 1.0
C      1  0.4602080000000  0.4698100000000  0.4860670000000 1.0
C      1  0.4705640000000  0.5147300000000  0.5315460000000 1.0
C      1  0.4691820000000  0.4688940000000  0.5126890000000 1.0
C      1  0.4712180000000  0.4876900000000  0.4668520000000 1.0
C      1  0.4725990000000  0.5335270000000  0.4857090000000 1.0
C      1  0.4128740000000  0.5393830000000  0.5128220000000 1.0
C      1  0.4134210000000  0.5188540000000  0.4618540000000 1.0
C      1  0.4107490000000  0.4679330000000  0.4823350000000 1.0
C      1  0.4102020000000  0.4884620000000  0.5333030000000 1.0
C      1  0.4105130000000  0.4683350000000  0.5132440000000 1.0
C      1  0.4127240000000  0.4879520000000  0.4622620000000 1.0
C      1  0.4142960000000  0.5389320000000  0.4819470000000 1.0
C      1  0.4120850000000  0.5193150000000  0.5329280000000 1.0
C      1  0.4305460000000  0.5182480000000  0.5553080000000 1.0
C      1  0.4342640000000  0.5599880000000  0.4827710000000 1.0
C      1  0.4324060000000  0.4874390000000  0.4409290000000 1.0
C      1  0.4286870000000  0.4456990000000  0.5134650000000 1.0
C      1  0.4296560000000  0.4881580000000  0.5551290000000 1.0
C      1  0.4298700000000  0.4458380000000  0.4833850000000 1.0
C      1  0.4339980000000  0.5175000000000  0.4411260000000 1.0
C      1  0.4337840000000  0.5598190000000  0.5128700000000 1.0
C      1  0.5254560000000  0.4841820000000  0.4121890000000 1.0
C      1  0.5195790000000  0.4106270000000  0.5153950000000 1.0
C      1  0.5218350000000  0.5138680000000  0.5891020000000 1.0
C      1  0.5277130000000  0.5874210000000  0.4858960000000 1.0
C      1  0.5269250000000  0.5143680000000  0.4121290000000 1.0
C      1  0.5271040000000  0.5875130000000  0.5161110000000 1.0
C      1  0.5207980000000  0.4836640000000  0.5891740000000 1.0
C      1  0.5206190000000  0.4105180000000  0.4851920000000 1.0
C      1  0.5002060000000  0.4865680000000  0.4700920000000 1.0
C      1  0.4983380000000  0.4701330000000  0.5134070000000 1.0
C      1  0.4996800000000  0.5134450000000  0.5298990000000 1.0
C      1  0.5015490000000  0.5298800000000  0.4865840000000 1.0
C      1  0.5126410000000  0.5112560000000  0.4689350000000 1.0
C      1  0.5122720000000  0.5309060000000  0.5120680000000 1.0
C      1  0.5099490000000  0.4878160000000  0.5316790000000 1.0
C      1  0.5103180000000  0.4681660000000  0.4885460000000 1.0
C      1  0.4932700000000  0.5150430000000  0.5830920000000 1.0
C      1  0.4987890000000  0.5833910000000  0.4851170000000 1.0
C      1  0.4966060000000  0.4853850000000  0.4166250000000 1.0
C      1  0.4910880000000  0.4170370000000  0.5146000000000 1.0
C      1  0.4921670000000  0.4847980000000  0.5827710000000 1.0
C      1  0.4920700000000  0.4173220000000  0.4843500000000 1.0
C      1  0.4979910000000  0.5156190000000  0.4169540000000 1.0
C      1  0.4980880000000  0.5830940000000  0.5153740000000 1.0
C      1  0.5407800000000  0.5325050000000  0.5143640000000 1.0
C      1  0.5412140000000  0.5115910000000  0.4669380000000 1.0
C      1  0.5386790000000  0.4642110000000  0.4878090000000 1.0
C      1  0.5382450000000  0.4851260000000  0.5352350000000 1.0
C      1  0.5469570000000  0.4648560000000  0.5161060000000 1.0
C      1  0.5490310000000  0.4831820000000  0.4681710000000 1.0
C      1  0.5505120000000  0.5311140000000  0.4865610000000 1.0
C      1  0.5484390000000  0.5127880000000  0.5344960000000 1.0
C      1  0.5848890000000  0.5109170000000  0.4656960000000 1.0
C      1  0.5821700000000  0.4599700000000  0.4878690000000 1.0
C      1  0.5816930000000  0.4821900000000  0.5388660000000 1.0
C      1  0.5844110000000  0.5331370000000  0.5166930000000 1.0
C      1  0.5795560000000  0.4819240000000  0.4684210000000 1.0
C      1  0.5810460000000  0.5304380000000  0.4874030000000 1.0
C      1  0.5789320000000  0.5115190000000  0.5359190000000 1.0
C      1  0.5774420000000  0.4630050000000  0.5169370000000 1.0
C      1  0.5491820000000  0.4821680000000  0.5820460000000 1.0
C      1  0.5549490000000  0.5784480000000  0.5172040000000 1.0
C      1  0.5549030000000  0.5135280000000  0.4208030000000 1.0
C      1  0.5491360000000  0.4172480000000  0.4856450000000 1.0
C      1  0.5497380000000  0.5139960000000  0.5820020000000 1.0
C      1  0.5475030000000  0.4173380000000  0.5174360000000 1.0
C      1  0.5528220000000  0.4817630000000  0.4208040000000 1.0
C      1  0.5550570000000  0.5784210000000  0.4853710000000 1.0
C      1  0.5571460000000  0.4403980000000  0.5281160000000 1.0
C      1  0.5597690000000  0.5240280000000  0.5588160000000 1.0
C      1  0.5633310000000  0.5546180000000  0.4751820000000 1.0
C      1  0.5607070000000  0.4709890000000  0.4444820000000 1.0
C      1  0.5623330000000  0.5534910000000  0.5250930000000 1.0
C      1  0.5581520000000  0.4741340000000  0.5576610000000 1.0
C      1  0.5589780000000  0.4414910000000  0.4782280000000 1.0
C      1  0.5631580000000  0.5208490000000  0.4456600000000 1.0
C      1  0.4898220000000  0.5608960000000  0.5608400000000 1.0
C      1  0.4931810000000  0.5615070000000  0.4393000000000 1.0
C      1  0.4881680000000  0.4400250000000  0.4385500000000 1.0
C      1  0.4848100000000  0.4394130000000  0.5600910000000 1.0
END
