TITL C-150267-3368-4 0.0687786771519344 125000 -1107.56572863408 0 0 165 (Cs) n - 1
REM
REM in /rds/project/t2_vol4/rds-t2-cs072/BORA/CARBON/from-Arr/AIRSS/Generating-Clusters/GAP-ML-2020/Higher-Symm/SD-CG/HFTN-CG
REM
REM
REM
REM
REM
REM ./C.cell (b20cbc046b6831c77cfcea5457e17084)
REM AIRSS Version 0.9.1 bugfix July 2018 build 013d7b7c2542+ Fri, 06 Jul 2018 19:26:36 +0100
REM compiler GCC version 9.3.0
REM options -cpp -mtune=generic -march=x86-64 -g -O0
REM seed -1723899817 317952285 235284298 639355522 -1874921773 -1226856835 1904804678 -51672646 2000158356 523218942 -508613036 -1065250434 -1872183109 -453236400 1959989993 2029521974 192356593 -592510587 -1518421056 1669687283 -1989480717 1718897352 -1823109788 1383593712 -1698380437 410964343 121040532 1647543475 1505680140 1099149715 -1398069383 137561934 -1019901066
REM
CELL 1.54180   50.00000   50.00000   50.00000   90.00000   90.00000   90.00000
LATT -1
SFAC C  
C      1  0.4854940000000  0.5726380000000  0.5700630000000 1.0
C      1  0.4855980000000  0.5245030000000  0.4020740000000 1.0
C      1  0.4849110000000  0.4044790000000  0.5210300000000 1.0
C      1  0.5143740000000  0.5660080000000  0.5723160000000 1.0
C      1  0.5145400000000  0.5294310000000  0.4066230000000 1.0
C      1  0.5137970000000  0.4029180000000  0.5278480000000 1.0
C      1  0.4849170000000  0.4340520000000  0.5722320000000 1.0
C      1  0.4854740000000  0.4756120000000  0.4020720000000 1.0
C      1  0.4856120000000  0.5970680000000  0.5277140000000 1.0
C      1  0.5138020000000  0.4273630000000  0.5701730000000 1.0
C      1  0.5143550000000  0.4703450000000  0.4066850000000 1.0
C      1  0.5145530000000  0.5955870000000  0.5211680000000 1.0
C      1  0.5285790000000  0.4849660000000  0.5255660000000 1.0
C      1  0.5284680000000  0.5289140000000  0.5001230000000 1.0
C      1  0.5284030000000  0.4850850000000  0.4749580000000 1.0
C      1  0.4711390000000  0.4857760000000  0.5251280000000 1.0
C      1  0.4710300000000  0.5296060000000  0.4998710000000 1.0
C      1  0.4709590000000  0.4856300000000  0.4743580000000 1.0
C      1  0.5284090000000  0.5142350000000  0.5254280000000 1.0
C      1  0.5285760000000  0.4703400000000  0.5002410000000 1.0
C      1  0.5284650000000  0.5143390000000  0.4748880000000 1.0
C      1  0.4709650000000  0.5150330000000  0.5252660000000 1.0
C      1  0.4711360000000  0.4711290000000  0.4997680000000 1.0
C      1  0.4710270000000  0.5149090000000  0.4744250000000 1.0
C      1  0.4835490000000  0.5144610000000  0.5740440000000 1.0
C      1  0.4839570000000  0.5569300000000  0.4503790000000 1.0
C      1  0.4845510000000  0.4287720000000  0.4756870000000 1.0
C      1  0.5147080000000  0.5145610000000  0.5739690000000 1.0
C      1  0.5151040000000  0.5566940000000  0.4504850000000 1.0
C      1  0.5157120000000  0.4285340000000  0.4754460000000 1.0
C      1  0.4845620000000  0.4854670000000  0.5738490000000 1.0
C      1  0.4835350000000  0.4430920000000  0.4504760000000 1.0
C      1  0.4839600000000  0.5714320000000  0.4754880000000 1.0
C      1  0.5157240000000  0.4855540000000  0.5741700000000 1.0
C      1  0.5146940000000  0.4432040000000  0.4504210000000 1.0
C      1  0.5151070000000  0.5712190000000  0.4756340000000 1.0
C      1  0.4660610000000  0.5555710000000  0.5876760000000 1.0
C      1  0.4664210000000  0.5484250000000  0.4080610000000 1.0
C      1  0.4650920000000  0.3956300000000  0.5019960000000 1.0
C      1  0.5340960000000  0.5539180000000  0.5895910000000 1.0
C      1  0.5344350000000  0.5503030000000  0.4084850000000 1.0
C      1  0.5331480000000  0.3961220000000  0.5042130000000 1.0
C      1  0.4651020000000  0.4461190000000  0.5894130000000 1.0
C      1  0.4660400000000  0.4518300000000  0.4080570000000 1.0
C      1  0.4664320000000  0.6038390000000  0.5040050000000 1.0
C      1  0.5331570000000  0.4444370000000  0.5878670000000 1.0
C      1  0.5340750000000  0.4493380000000  0.4085210000000 1.0
C      1  0.5344460000000  0.6044030000000  0.5021540000000 1.0
C      1  0.5287720000000  0.4460250000000  0.5487190000000 1.0
C      1  0.5282020000000  0.5691450000000  0.5225260000000 1.0
C      1  0.5281280000000  0.4846830000000  0.4288680000000 1.0
C      1  0.4712480000000  0.4460940000000  0.5486580000000 1.0
C      1  0.4706750000000  0.5691250000000  0.5222340000000 1.0
C      1  0.4706060000000  0.4849080000000  0.4290000000000 1.0
C      1  0.5281420000000  0.5539570000000  0.5488090000000 1.0
C      1  0.5287690000000  0.4308250000000  0.5224020000000 1.0
C      1  0.5281910000000  0.5150390000000  0.4288460000000 1.0
C      1  0.4706200000000  0.5539600000000  0.5485580000000 1.0
C      1  0.4712450000000  0.4309180000000  0.5223820000000 1.0
C      1  0.4706640000000  0.5152880000000  0.4290190000000 1.0
C      1  0.4382870000000  0.4853170000000  0.4739960000000 1.0
C      1  0.4382710000000  0.4857220000000  0.5256620000000 1.0
C      1  0.4383090000000  0.5302310000000  0.4995840000000 1.0
C      1  0.5612440000000  0.4845470000000  0.4745800000000 1.0
C      1  0.5612320000000  0.4848270000000  0.5261400000000 1.0
C      1  0.5612740000000  0.5293680000000  0.5000280000000 1.0
C      1  0.4383060000000  0.5154730000000  0.4740320000000 1.0
C      1  0.4382940000000  0.5151930000000  0.5257230000000 1.0
C      1  0.4382680000000  0.4706430000000  0.4995550000000 1.0
C      1  0.5612710000000  0.5146450000000  0.4745380000000 1.0
C      1  0.5612500000000  0.5142900000000  0.5260770000000 1.0
C      1  0.5612290000000  0.4697690000000  0.5000690000000 1.0
C      1  0.4849370000000  0.4720540000000  0.5462380000000 1.0
C      1  0.4847380000000  0.5547100000000  0.5012430000000 1.0
C      1  0.4845560000000  0.4738990000000  0.4520060000000 1.0
C      1  0.5148570000000  0.4714740000000  0.5467620000000 1.0
C      1  0.5146600000000  0.5540620000000  0.5012000000000 1.0
C      1  0.5144760000000  0.4737930000000  0.4525850000000 1.0
C      1  0.4845670000000  0.5285300000000  0.5465940000000 1.0
C      1  0.4849320000000  0.4459860000000  0.5011030000000 1.0
C      1  0.4847320000000  0.5262650000000  0.4519920000000 1.0
C      1  0.5144870000000  0.5279720000000  0.5463920000000 1.0
C      1  0.5148510000000  0.4452390000000  0.5013380000000 1.0
C      1  0.5146540000000  0.5259750000000  0.4525700000000 1.0
C      1  0.6026340000000  0.5137650000000  0.5251980000000 1.0
C      1  0.6027700000000  0.5142170000000  0.4754300000000 1.0
C      1  0.6024810000000  0.4708450000000  0.4999900000000 1.0
C      1  0.3969490000000  0.5145810000000  0.5248370000000 1.0
C      1  0.3970880000000  0.5149540000000  0.4750070000000 1.0
C      1  0.3967980000000  0.4716650000000  0.4995250000000 1.0
C      1  0.6024840000000  0.4854290000000  0.5252410000000 1.0
C      1  0.6026280000000  0.4850420000000  0.4754680000000 1.0
C      1  0.6027730000000  0.5283760000000  0.4999460000000 1.0
C      1  0.3968000000000  0.4862630000000  0.5247990000000 1.0
C      1  0.3969430000000  0.4857830000000  0.4749760000000 1.0
C      1  0.3970910000000  0.5291320000000  0.4995540000000 1.0
C      1  0.4339460000000  0.4359980000000  0.4794810000000 1.0
C      1  0.4343850000000  0.5151540000000  0.5659810000000 1.0
C      1  0.4346980000000  0.5499600000000  0.4539950000000 1.0
C      1  0.5649300000000  0.4349980000000  0.4799800000000 1.0
C      1  0.5653810000000  0.5142520000000  0.5660310000000 1.0
C      1  0.5656740000000  0.5496450000000  0.4545220000000 1.0
C      1  0.4347010000000  0.5648220000000  0.4797260000000 1.0
C      1  0.4339560000000  0.4857970000000  0.5657030000000 1.0
C      1  0.4343720000000  0.4504280000000  0.4539130000000 1.0
C      1  0.5656770000000  0.5641940000000  0.4797130000000 1.0
C      1  0.5649400000000  0.4848520000000  0.5662970000000 1.0
C      1  0.5653680000000  0.4499200000000  0.4546470000000 1.0
C      1  0.5786110000000  0.4268190000000  0.5202590000000 1.0
C      1  0.5778850000000  0.5534020000000  0.5528400000000 1.0
C      1  0.5779640000000  0.5184130000000  0.4273090000000 1.0
C      1  0.4214830000000  0.4278740000000  0.5200010000000 1.0
C      1  0.4207570000000  0.5541300000000  0.5528950000000 1.0
C      1  0.4208520000000  0.5193940000000  0.4267020000000 1.0
C      1  0.5779750000000  0.5721570000000  0.5203630000000 1.0
C      1  0.5786150000000  0.4458740000000  0.5532500000000 1.0
C      1  0.5778700000000  0.4809090000000  0.4273250000000 1.0
C      1  0.4208630000000  0.5731900000000  0.5198430000000 1.0
C      1  0.4214870000000  0.4466400000000  0.5524930000000 1.0
C      1  0.4207420000000  0.4812410000000  0.4266940000000 1.0
C      1  0.5142250000000  0.5996290000000  0.4835910000000 1.0
C      1  0.5136380000000  0.4358600000000  0.4219400000000 1.0
C      1  0.5156410000000  0.4651840000000  0.5954000000000 1.0
C      1  0.4841190000000  0.5999610000000  0.4823510000000 1.0
C      1  0.4835160000000  0.4348730000000  0.4222220000000 1.0
C      1  0.4855220000000  0.4644680000000  0.5944530000000 1.0
C      1  0.5156280000000  0.3999660000000  0.4824810000000 1.0
C      1  0.5142180000000  0.5639990000000  0.4219000000000 1.0
C      1  0.5136580000000  0.5355610000000  0.5945630000000 1.0
C      1  0.4855090000000  0.4004310000000  0.4835790000000 1.0
C      1  0.4841120000000  0.5652420000000  0.4222380000000 1.0
C      1  0.4835360000000  0.5348270000000  0.5952830000000 1.0
C      1  0.4456560000000  0.4643290000000  0.4264890000000 1.0
C      1  0.4454990000000  0.4555420000000  0.5680680000000 1.0
C      1  0.4458890000000  0.5816970000000  0.5054620000000 1.0
C      1  0.5538010000000  0.4630350000000  0.4272940000000 1.0
C      1  0.5536370000000  0.4541370000000  0.5679090000000 1.0
C      1  0.5540330000000  0.5812300000000  0.5047230000000 1.0
C      1  0.4458790000000  0.5361000000000  0.4265150000000 1.0
C      1  0.4456730000000  0.5458540000000  0.5676420000000 1.0
C      1  0.4454920000000  0.4188290000000  0.5045030000000 1.0
C      1  0.5540240000000  0.5364960000000  0.4272700000000 1.0
C      1  0.5538180000000  0.5445000000000  0.5683420000000 1.0
C      1  0.5536290000000  0.4182540000000  0.5057810000000 1.0
C      1  0.5835710000000  0.5259220000000  0.4559640000000 1.0
C      1  0.5834210000000  0.4478620000000  0.4995120000000 1.0
C      1  0.5835160000000  0.5248260000000  0.5450770000000 1.0
C      1  0.4160780000000  0.5268240000000  0.4553120000000 1.0
C      1  0.4159310000000  0.4489440000000  0.4991640000000 1.0
C      1  0.4160240000000  0.5256420000000  0.5449630000000 1.0
C      1  0.5835060000000  0.4733520000000  0.4559550000000 1.0
C      1  0.5835760000000  0.5510890000000  0.4995380000000 1.0
C      1  0.5834260000000  0.4743600000000  0.5453910000000 1.0
C      1  0.4160140000000  0.4738760000000  0.4553350000000 1.0
C      1  0.4160830000000  0.5521210000000  0.4991110000000 1.0
C      1  0.4159360000000  0.4752190000000  0.5446570000000 1.0
C      1  0.5917220000000  0.4225590000000  0.5447170000000 1.0
C      1  0.4086260000000  0.4228290000000  0.5445820000000 1.0
C      1  0.5907530000000  0.5772300000000  0.5449810000000 1.0
C      1  0.4076960000000  0.5774350000000  0.5442740000000 1.0
C      1  0.5907370000000  0.4996230000000  0.4106100000000 1.0
C      1  0.4076810000000  0.5003560000000  0.4108190000000 1.0
C      1  0.4848130000000  0.5974780000000  0.5561700000000 1.0
C      1  0.4847940000000  0.5000600000000  0.3874990000000 1.0
C      1  0.5145480000000  0.4025080000000  0.5563060000000 1.0
END
