TITL C-150254-3444-4 0.0346775309574902 125000 -720.521046178404 0 0 105 (C4) n - 1
REM
REM in /rds/project/t2_vol4/rds-t2-cs072/BORA/CARBON/from-Arr/AIRSS/Generating-Clusters/GAP-ML-2020/Higher-Symm/SD-CG/HFTN-CG
REM
REM
REM
REM
REM
REM ./C.cell (b20cbc046b6831c77cfcea5457e17084)
REM AIRSS Version 0.9.1 bugfix July 2018 build 013d7b7c2542+ Fri, 06 Jul 2018 19:26:36 +0100
REM compiler GCC version 9.3.0
REM options -cpp -mtune=generic -march=x86-64 -g -O0
REM seed 943199333 1487519421 -1165163485 337916012 1116729185 -935664317 -539965510 621688151 1292697743 1153201964 115091204 1249468050 1927169018 2034451789 524261822 -660090197 -674568377 604192185 -963922523 -1305314382 1739199881 -438498703 -1097185226 -1866465981 -1905381013 -721639836 -1642691638 1139203978 -259761530 -1750287517 1928591049 -1369435844 1726148114
REM
CELL 1.54180   50.00000   50.00000   50.00000   90.00000   90.00000   90.00000
LATT -1
SFAC C  
C      1  0.5440850000000  0.5488820000000  0.4291080000000 1.0
C      1  0.5441040000000  0.4294840000000  0.4512030000000 1.0
C      1  0.5441030000000  0.4515790000000  0.5706010000000 1.0
C      1  0.5440840000000  0.5709770000000  0.5485060000000 1.0
C      1  0.5457070000000  0.4493680000000  0.4311230000000 1.0
C      1  0.5456890000000  0.5689630000000  0.4489920000000 1.0
C      1  0.5456940000000  0.5510930000000  0.5685860000000 1.0
C      1  0.5457120000000  0.4314990000000  0.5507170000000 1.0
C      1  0.5271620000000  0.4646650000000  0.4860810000000 1.0
C      1  0.5271600000000  0.4864540000000  0.5354180000000 1.0
C      1  0.5271520000000  0.5357910000000  0.5136290000000 1.0
C      1  0.5271550000000  0.5140020000000  0.4642920000000 1.0
C      1  0.5156380000000  0.5342680000000  0.4847530000000 1.0
C      1  0.5156410000000  0.5153290000000  0.5338970000000 1.0
C      1  0.5156480000000  0.4661850000000  0.5149580000000 1.0
C      1  0.5156450000000  0.4851240000000  0.4658140000000 1.0
C      1  0.4733100000000  0.4309340000000  0.4481250000000 1.0
C      1  0.4733100000000  0.4484890000000  0.5691420000000 1.0
C      1  0.4732910000000  0.5695060000000  0.5515870000000 1.0
C      1  0.4732910000000  0.5519510000000  0.4305700000000 1.0
C      1  0.4737260000000  0.5723400000000  0.4509090000000 1.0
C      1  0.4737320000000  0.5491670000000  0.5719760000000 1.0
C      1  0.4737500000000  0.4281000000000  0.5488030000000 1.0
C      1  0.4737440000000  0.4512730000000  0.4277360000000 1.0
C      1  0.5185920000000  0.4408360000000  0.4625670000000 1.0
C      1  0.5185910000000  0.4629390000000  0.5592460000000 1.0
C      1  0.5185760000000  0.5596170000000  0.5371430000000 1.0
C      1  0.5185770000000  0.5375150000000  0.4404650000000 1.0
C      1  0.5190820000000  0.5595830000000  0.4623810000000 1.0
C      1  0.5190880000000  0.5377010000000  0.5592110000000 1.0
C      1  0.5191020000000  0.4408710000000  0.5373290000000 1.0
C      1  0.5190970000000  0.4627530000000  0.4404990000000 1.0
C      1  0.4477890000000  0.5468070000000  0.5134590000000 1.0
C      1  0.4477930000000  0.5138190000000  0.4532650000000 1.0
C      1  0.4478030000000  0.4536250000000  0.4862540000000 1.0
C      1  0.4477990000000  0.4866140000000  0.5464480000000 1.0
C      1  0.4355400000000  0.4419740000000  0.5126760000000 1.0
C      1  0.4355310000000  0.4873950000000  0.4416160000000 1.0
C      1  0.4355210000000  0.5584550000000  0.4870370000000 1.0
C      1  0.4355300000000  0.5130340000000  0.5580970000000 1.0
C      1  0.4960370000000  0.4072150000000  0.4861930000000 1.0
C      1  0.4960270000000  0.4865610000000  0.5928640000000 1.0
C      1  0.4960090000000  0.5932310000000  0.5135180000000 1.0
C      1  0.4960190000000  0.5138860000000  0.4068480000000 1.0
C      1  0.4992060000000  0.5932240000000  0.4885160000000 1.0
C      1  0.4992200000000  0.5115630000000  0.5928560000000 1.0
C      1  0.4992340000000  0.4072240000000  0.5111950000000 1.0
C      1  0.4992200000000  0.4888850000000  0.4068550000000 1.0
C      1  0.4959650000000  0.4222290000000  0.4629820000000 1.0
C      1  0.4959610000000  0.4633500000000  0.5778500000000 1.0
C      1  0.4959430000000  0.5782180000000  0.5367290000000 1.0
C      1  0.4959470000000  0.5370970000000  0.4218610000000 1.0
C      1  0.4979010000000  0.5801310000000  0.4641540000000 1.0
C      1  0.4979100000000  0.5359250000000  0.5797630000000 1.0
C      1  0.4979260000000  0.4203160000000  0.5355570000000 1.0
C      1  0.4979170000000  0.4645220000000  0.4199480000000 1.0
C      1  0.5652270000000  0.4200020000000  0.4668400000000 1.0
C      1  0.5652220000000  0.4672200000000  0.5800860000000 1.0
C      1  0.5652040000000  0.5804660000000  0.5328680000000 1.0
C      1  0.5652090000000  0.5332480000000  0.4196230000000 1.0
C      1  0.5691380000000  0.5780480000000  0.4608710000000 1.0
C      1  0.5691470000000  0.5392180000000  0.5776680000000 1.0
C      1  0.5691630000000  0.4224210000000  0.5388370000000 1.0
C      1  0.5691550000000  0.4612510000000  0.4220400000000 1.0
C      1  0.5587220000000  0.4662660000000  0.4869650000000 1.0
C      1  0.5587200000000  0.4873430000000  0.5338220000000 1.0
C      1  0.5587130000000  0.5342000000000  0.5127440000000 1.0
C      1  0.5587150000000  0.5131220000000  0.4658870000000 1.0
C      1  0.5692080000000  0.5330280000000  0.4845310000000 1.0
C      1  0.5692110000000  0.5155570000000  0.5326480000000 1.0
C      1  0.5692180000000  0.4674400000000  0.5151770000000 1.0
C      1  0.5692140000000  0.4849110000000  0.4670600000000 1.0
C      1  0.4233940000000  0.5146010000000  0.4729670000000 1.0
C      1  0.4234000000000  0.4733220000000  0.4854680000000 1.0
C      1  0.4233990000000  0.4858240000000  0.5267470000000 1.0
C      1  0.4233930000000  0.5271030000000  0.5142460000000 1.0
C      1  0.4152530000000  0.4879210000000  0.4622220000000 1.0
C      1  0.4152460000000  0.5378460000000  0.4875670000000 1.0
C      1  0.4152510000000  0.5125020000000  0.5374920000000 1.0
C      1  0.4152580000000  0.4625760000000  0.5121480000000 1.0
C      1  0.4746970000000  0.4905410000000  0.5324450000000 1.0
C      1  0.4746900000000  0.5328090000000  0.5095350000000 1.0
C      1  0.4746930000000  0.5098990000000  0.4672670000000 1.0
C      1  0.4746990000000  0.4676310000000  0.4901770000000 1.0
C      1  0.4866070000000  0.5153050000000  0.5283380000000 1.0
C      1  0.4866140000000  0.4717400000000  0.5149390000000 1.0
C      1  0.4866110000000  0.4851390000000  0.4713730000000 1.0
C      1  0.4866050000000  0.5287040000000  0.4847730000000 1.0
C      1  0.5740340000000  0.5621680000000  0.4831750000000 1.0
C      1  0.5740450000000  0.4835560000000  0.4379210000000 1.0
C      1  0.5740540000000  0.4383020000000  0.5165330000000 1.0
C      1  0.5740430000000  0.5169140000000  0.5617870000000 1.0
C      1  0.5695100000000  0.4352940000000  0.4881870000000 1.0
C      1  0.5694970000000  0.5119020000000  0.4349130000000 1.0
C      1  0.5694900000000  0.5651750000000  0.5115220000000 1.0
C      1  0.5695030000000  0.4885670000000  0.5647950000000 1.0
C      1  0.4485090000000  0.5414250000000  0.4413630000000 1.0
C      1  0.4485240000000  0.4417220000000  0.4586480000000 1.0
C      1  0.4485240000000  0.4590080000000  0.5583500000000 1.0
C      1  0.4485080000000  0.5587100000000  0.5410650000000 1.0
C      1  0.4474720000000  0.4624220000000  0.4373560000000 1.0
C      1  0.4474580000000  0.5627170000000  0.4620630000000 1.0
C      1  0.4474640000000  0.5380100000000  0.5623570000000 1.0
C      1  0.4474780000000  0.4377150000000  0.5376500000000 1.0
C      1  0.4311260000000  0.5002140000000  0.4998570000000 1.0
END
