TITL C-150259-3423-1 -463.10766348298 125000 -1135.69313662854 0 0 165 (C1) n - 1
REM
REM in /rds/project/t2_vol4/rds-t2-cs072/BORA/CARBON/from-Arr/AIRSS/Generating-Clusters/GAP-ML-2020/Higher-Symm/SD-CG/HFTN-CG
REM
REM
REM
REM
REM
REM ./C.cell (b20cbc046b6831c77cfcea5457e17084)
REM AIRSS Version 0.9.1 bugfix July 2018 build 013d7b7c2542+ Fri, 06 Jul 2018 19:26:36 +0100
REM compiler GCC version 9.3.0
REM options -cpp -mtune=generic -march=x86-64 -g -O0
REM seed -1884998443 1143119247 1237175379 1390243059 170459872 -208693199 -703306962 1960991448 -500530381 -699804858 -800363001 828851231 1433598665 -25273266 736309481 -907309471 -1700682953 -581883873 -1473810262 1430598696 -1661943356 -1128568267 1167882525 -1680616640 1713449061 -175805010 1501789630 1149009867 -1218397161 -1028068522 1172113780 -724093817 1672705300
REM
CELL 1.54180   50.00000   50.00000   50.00000   90.00000   90.00000   90.00000
LATT -1
SFAC C  
C      1  0.5199950000000  0.5657740000000  0.5118770000000 1.0
C      1  0.5190470000000  0.4352930000000  0.4871090000000 1.0
C      1  0.4795660000000  0.4335960000000  0.5091330000000 1.0
C      1  0.4794940000000  0.5658960000000  0.4920490000000 1.0
C      1  0.5190600000000  0.5121650000000  0.5640720000000 1.0
C      1  0.5183840000000  0.4868500000000  0.4362420000000 1.0
C      1  0.4785840000000  0.5086360000000  0.4355790000000 1.0
C      1  0.4789250000000  0.4916590000000  0.5648320000000 1.0
C      1  0.5693110000000  0.4398970000000  0.4758470000000 1.0
C      1  0.5695390000000  0.5606750000000  0.5234560000000 1.0
C      1  0.4314870000000  0.5623880000000  0.4753060000000 1.0
C      1  0.4316990000000  0.4397900000000  0.5218820000000 1.0
C      1  0.5689310000000  0.4760200000000  0.4396180000000 1.0
C      1  0.5689150000000  0.5244880000000  0.5597830000000 1.0
C      1  0.4306080000000  0.4755620000000  0.5592530000000 1.0
C      1  0.4315530000000  0.5266020000000  0.4392930000000 1.0
C      1  0.4349070000000  0.4727840000000  0.4253650000000 1.0
C      1  0.4344420000000  0.5283830000000  0.5744780000000 1.0
C      1  0.5571380000000  0.5313950000000  0.4268460000000 1.0
C      1  0.5575300000000  0.4683330000000  0.5722440000000 1.0
C      1  0.4504090000000  0.4124100000000  0.4618190000000 1.0
C      1  0.4338220000000  0.5762760000000  0.5281930000000 1.0
C      1  0.5584160000000  0.4268640000000  0.5320200000000 1.0
C      1  0.5576840000000  0.5727990000000  0.4670300000000 1.0
C      1  0.5197120000000  0.5972670000000  0.4791730000000 1.0
C      1  0.5206680000000  0.4031170000000  0.5202500000000 1.0
C      1  0.4873280000000  0.3979390000000  0.4793430000000 1.0
C      1  0.4805770000000  0.5997200000000  0.5203780000000 1.0
C      1  0.5191110000000  0.4796050000000  0.5960600000000 1.0
C      1  0.5184930000000  0.5190500000000  0.4034890000000 1.0
C      1  0.4799970000000  0.4774790000000  0.4033750000000 1.0
C      1  0.4802480000000  0.5199810000000  0.5981640000000 1.0
C      1  0.4519810000000  0.5110140000000  0.5921610000000 1.0
C      1  0.4525030000000  0.4882050000000  0.4076440000000 1.0
C      1  0.5459390000000  0.4883610000000  0.5910120000000 1.0
C      1  0.5451980000000  0.5106220000000  0.4086210000000 1.0
C      1  0.4521980000000  0.5943460000000  0.5109820000000 1.0
C      1  0.4599420000000  0.4009410000000  0.4858770000000 1.0
C      1  0.5465850000000  0.5917820000000  0.4873910000000 1.0
C      1  0.5471070000000  0.4084930000000  0.5113110000000 1.0
C      1  0.4599100000000  0.5089260000000  0.5271160000000 1.0
C      1  0.4587470000000  0.4929850000000  0.4726300000000 1.0
C      1  0.5383780000000  0.4996030000000  0.5214640000000 1.0
C      1  0.5383450000000  0.5006850000000  0.4781400000000 1.0
C      1  0.4583680000000  0.5312730000000  0.5098120000000 1.0
C      1  0.4619480000000  0.4753470000000  0.4953180000000 1.0
C      1  0.5382420000000  0.5221940000000  0.4997480000000 1.0
C      1  0.5383870000000  0.4780210000000  0.4999170000000 1.0
C      1  0.4936260000000  0.4032290000000  0.4504510000000 1.0
C      1  0.4893120000000  0.5957580000000  0.5482380000000 1.0
C      1  0.5152660000000  0.5889880000000  0.4517720000000 1.0
C      1  0.5158500000000  0.4107540000000  0.5474070000000 1.0
C      1  0.4886170000000  0.4492800000000  0.4091220000000 1.0
C      1  0.4902670000000  0.5481070000000  0.5945760000000 1.0
C      1  0.5146280000000  0.4522760000000  0.5878270000000 1.0
C      1  0.5146440000000  0.5467710000000  0.4109290000000 1.0
C      1  0.4898060000000  0.4189290000000  0.5579840000000 1.0
C      1  0.4897550000000  0.5810570000000  0.4403300000000 1.0
C      1  0.5125730000000  0.5777310000000  0.5557240000000 1.0
C      1  0.5166600000000  0.4152670000000  0.4384810000000 1.0
C      1  0.4895250000000  0.5591420000000  0.4188630000000 1.0
C      1  0.4892100000000  0.4403200000000  0.5796230000000 1.0
C      1  0.5146140000000  0.5591610000000  0.5836790000000 1.0
C      1  0.5145210000000  0.4381540000000  0.4168840000000 1.0
C      1  0.4652160000000  0.4150080000000  0.5423160000000 1.0
C      1  0.4650990000000  0.5863350000000  0.4546350000000 1.0
C      1  0.5389960000000  0.5855750000000  0.5438120000000 1.0
C      1  0.5405870000000  0.4131240000000  0.4541520000000 1.0
C      1  0.4646410000000  0.5453030000000  0.4142800000000 1.0
C      1  0.4642800000000  0.4547970000000  0.5832150000000 1.0
C      1  0.5391810000000  0.5450810000000  0.5863730000000 1.0
C      1  0.5383220000000  0.4540440000000  0.4139780000000 1.0
C      1  0.5975340000000  0.4479700000000  0.4682120000000 1.0
C      1  0.5975810000000  0.5524850000000  0.5310290000000 1.0
C      1  0.4032740000000  0.5550030000000  0.4677060000000 1.0
C      1  0.4033730000000  0.4475990000000  0.5295820000000 1.0
C      1  0.5974150000000  0.4684820000000  0.4476780000000 1.0
C      1  0.5974210000000  0.5319010000000  0.5516600000000 1.0
C      1  0.4026300000000  0.4674930000000  0.5508320000000 1.0
C      1  0.4033200000000  0.5346670000000  0.4470480000000 1.0
C      1  0.6075280000000  0.4665430000000  0.4871750000000 1.0
C      1  0.6074220000000  0.5337820000000  0.5120330000000 1.0
C      1  0.3911480000000  0.5364940000000  0.4864180000000 1.0
C      1  0.3920600000000  0.4670670000000  0.5117400000000 1.0
C      1  0.6073650000000  0.4875130000000  0.4660500000000 1.0
C      1  0.6074090000000  0.5128530000000  0.5332010000000 1.0
C      1  0.3911250000000  0.4868200000000  0.5327950000000 1.0
C      1  0.3912380000000  0.5165180000000  0.4658610000000 1.0
C      1  0.4546270000000  0.5161810000000  0.4198940000000 1.0
C      1  0.4542910000000  0.4839230000000  0.5793990000000 1.0
C      1  0.5443430000000  0.4830340000000  0.4208110000000 1.0
C      1  0.5454120000000  0.5161210000000  0.5792240000000 1.0
C      1  0.4556340000000  0.4176370000000  0.5137770000000 1.0
C      1  0.4550930000000  0.5814620000000  0.4840780000000 1.0
C      1  0.5456250000000  0.4202600000000  0.4831800000000 1.0
C      1  0.5464520000000  0.5801070000000  0.5151500000000 1.0
C      1  0.4097120000000  0.5327180000000  0.5091570000000 1.0
C      1  0.4112710000000  0.4715230000000  0.4897590000000 1.0
C      1  0.5884150000000  0.4676730000000  0.5104560000000 1.0
C      1  0.5881800000000  0.5326880000000  0.4888020000000 1.0
C      1  0.4094370000000  0.5102000000000  0.5309750000000 1.0
C      1  0.4106910000000  0.4947000000000  0.4687810000000 1.0
C      1  0.5882320000000  0.5107090000000  0.4670610000000 1.0
C      1  0.5883240000000  0.4895930000000  0.5322950000000 1.0
C      1  0.5411800000000  0.4502700000000  0.5291670000000 1.0
C      1  0.5399270000000  0.5496680000000  0.4696890000000 1.0
C      1  0.4551420000000  0.5656960000000  0.5435350000000 1.0
C      1  0.4453250000000  0.4414530000000  0.4647800000000 1.0
C      1  0.5398240000000  0.5296470000000  0.4503180000000 1.0
C      1  0.5396030000000  0.4695440000000  0.5492780000000 1.0
C      1  0.4560050000000  0.5435570000000  0.5638150000000 1.0
C      1  0.4541520000000  0.4555440000000  0.4393890000000 1.0
C      1  0.4418800000000  0.4489560000000  0.5677710000000 1.0
C      1  0.4423560000000  0.5526680000000  0.4293060000000 1.0
C      1  0.5610070000000  0.5516030000000  0.5700810000000 1.0
C      1  0.5611560000000  0.4487920000000  0.4292360000000 1.0
C      1  0.4421780000000  0.5720490000000  0.4482930000000 1.0
C      1  0.4422900000000  0.4300210000000  0.5483120000000 1.0
C      1  0.5614680000000  0.5709970000000  0.5509270000000 1.0
C      1  0.5622890000000  0.4295010000000  0.4484310000000 1.0
C      1  0.4153560000000  0.4749210000000  0.4461080000000 1.0
C      1  0.4160340000000  0.5310440000000  0.5517230000000 1.0
C      1  0.5799200000000  0.5318940000000  0.4465990000000 1.0
C      1  0.5803540000000  0.4681720000000  0.5526420000000 1.0
C      1  0.4185100000000  0.4544100000000  0.4669230000000 1.0
C      1  0.4160770000000  0.5530400000000  0.5305390000000 1.0
C      1  0.5803620000000  0.4475040000000  0.5319360000000 1.0
C      1  0.5800310000000  0.5527270000000  0.4671410000000 1.0
C      1  0.4734400000000  0.4828540000000  0.4503570000000 1.0
C      1  0.4743750000000  0.5190730000000  0.5513110000000 1.0
C      1  0.5205150000000  0.5086550000000  0.4563040000000 1.0
C      1  0.5207310000000  0.4911510000000  0.5432150000000 1.0
C      1  0.4726420000000  0.4493520000000  0.4844070000000 1.0
C      1  0.4746780000000  0.5540380000000  0.5194670000000 1.0
C      1  0.5216700000000  0.4552800000000  0.5082670000000 1.0
C      1  0.5210340000000  0.5444990000000  0.4913380000000 1.0
C      1  0.4693960000000  0.5837860000000  0.5632030000000 1.0
C      1  0.4692870000000  0.4118940000000  0.4395410000000 1.0
C      1  0.5401370000000  0.4233980000000  0.5557550000000 1.0
C      1  0.5394120000000  0.5757980000000  0.4434170000000 1.0
C      1  0.4703360000000  0.5626250000000  0.5822850000000 1.0
C      1  0.4687130000000  0.4359410000000  0.4239770000000 1.0
C      1  0.5391680000000  0.5551910000000  0.4232850000000 1.0
C      1  0.5393950000000  0.4442630000000  0.5753690000000 1.0
C      1  0.4933630000000  0.4792980000000  0.5379420000000 1.0
C      1  0.4944140000000  0.5221060000000  0.4592680000000 1.0
C      1  0.5013380000000  0.5288730000000  0.5468400000000 1.0
C      1  0.4998780000000  0.4707810000000  0.4535830000000 1.0
C      1  0.4946370000000  0.5416750000000  0.4791040000000 1.0
C      1  0.4971360000000  0.4547820000000  0.5241750000000 1.0
C      1  0.5025430000000  0.5539790000000  0.5341310000000 1.0
C      1  0.4984280000000  0.4490750000000  0.4698200000000 1.0
C      1  0.5651350000000  0.4679040000000  0.4891810000000 1.0
C      1  0.5650760000000  0.5324330000000  0.5101940000000 1.0
C      1  0.4364690000000  0.5341450000000  0.4901920000000 1.0
C      1  0.4359310000000  0.4695090000000  0.5100060000000 1.0
C      1  0.5649760000000  0.4896220000000  0.4675640000000 1.0
C      1  0.5650200000000  0.5106040000000  0.5318480000000 1.0
C      1  0.4347560000000  0.4910210000000  0.5318140000000 1.0
C      1  0.4369160000000  0.5126390000000  0.4687350000000 1.0
C      1  0.4996480000000  0.5003120000000  0.5855270000000 1.0
C      1  0.4991590000000  0.4983240000000  0.4146510000000 1.0
C      1  0.5003590000000  0.5873360000000  0.5002930000000 1.0
C      1  0.5016980000000  0.4135240000000  0.4998540000000 1.0
C      1  0.4782210000000  0.4893620000000  0.5154270000000 1.0
END
