TITL C-156528-8834-1 534.108748478582 125000 -1307.62398288222 0 0 182 (C2) n - 1
REM
REM in /rds/project/t2_vol4/rds-t2-cs072/BORA/CARBON/from-Arr/AIRSS/Generating-Clusters/GAP-ML-2020/Higher-Symm/SD-CG/HFTN-CG/C160-200
REM
REM
REM
REM
REM
REM ./C.cell (6b4489405718ea1b717e0baf1da4c2d9)
REM AIRSS Version 0.9.1 bugfix July 2018 build 013d7b7c2542+ Fri, 06 Jul 2018 19:26:36 +0100
REM compiler GCC version 9.3.0
REM options -cpp -mtune=generic -march=x86-64 -g -O0
REM seed -342377057 261060162 -318871826 -516385782 1756841287 2146047606 -505193733 613409454 1477590905 -866251398 1327323338 -666925433 225112586 -585057729 -1611145714 -1770603778 1063902292 1779154102 505232837 1715324870 -896759871 -929972298 -770473370 1884499703 85459130 1430631353 -635214839 761746642 1405825529 1106840066 -201018349 15203687 1149681458
REM
CELL 1.54180   50.00000   50.00000   50.00000   90.00000   90.00000   90.00000
LATT -1
SFAC C  
C      1  0.5068580000000  0.4527680000000  0.5551520000000 1.0
C      1  0.4575880000000  0.4666730000000  0.5544680000000 1.0
C      1  0.4565470000000  0.5180600000000  0.5553250000000 1.0
C      1  0.4950710000000  0.5498120000000  0.5541370000000 1.0
C      1  0.5407740000000  0.5309850000000  0.5535660000000 1.0
C      1  0.5471560000000  0.4820180000000  0.5538520000000 1.0
C      1  0.5072780000000  0.4462160000000  0.4464050000000 1.0
C      1  0.4625010000000  0.4710350000000  0.4457200000000 1.0
C      1  0.4544820000000  0.5201790000000  0.4470230000000 1.0
C      1  0.4934920000000  0.5504560000000  0.4473100000000 1.0
C      1  0.5392010000000  0.5316440000000  0.4467390000000 1.0
C      1  0.5442000000000  0.4819720000000  0.4455490000000 1.0
C      1  0.5364690000000  0.4122090000000  0.5152840000000 1.0
C      1  0.4415090000000  0.4239710000000  0.5142270000000 1.0
C      1  0.4068290000000  0.5125780000000  0.5144730000000 1.0
C      1  0.4645580000000  0.5885460000000  0.5149170000000 1.0
C      1  0.5591910000000  0.5762700000000  0.5145140000000 1.0
C      1  0.5950590000000  0.4876710000000  0.5144400000000 1.0
C      1  0.5366790000000  0.4111690000000  0.4868730000000 1.0
C      1  0.4423350000000  0.4245680000000  0.4858540000000 1.0
C      1  0.4063490000000  0.5130490000000  0.4860700000000 1.0
C      1  0.4642680000000  0.5889370000000  0.4865030000000 1.0
C      1  0.5588870000000  0.5762900000000  0.4861040000000 1.0
C      1  0.5941480000000  0.4877450000000  0.4860050000000 1.0
C      1  0.4115070000000  0.5092500000000  0.4281570000000 1.0
C      1  0.4630560000000  0.5827270000000  0.4286650000000 1.0
C      1  0.5522850000000  0.5737500000000  0.4282980000000 1.0
C      1  0.5886890000000  0.4917650000000  0.4283130000000 1.0
C      1  0.5385440000000  0.4164070000000  0.4288340000000 1.0
C      1  0.4478610000000  0.4260550000000  0.4285830000000 1.0
C      1  0.4102220000000  0.5085420000000  0.5719720000000 1.0
C      1  0.4639310000000  0.5815190000000  0.5727760000000 1.0
C      1  0.5533220000000  0.5736660000000  0.5723630000000 1.0
C      1  0.5902320000000  0.4919410000000  0.5723390000000 1.0
C      1  0.5374780000000  0.4192140000000  0.5727270000000 1.0
C      1  0.4469320000000  0.4250820000000  0.5722460000000 1.0
C      1  0.4642210000000  0.4723330000000  0.3949320000000 1.0
C      1  0.4569560000000  0.5192370000000  0.3944400000000 1.0
C      1  0.4938300000000  0.5482810000000  0.3950010000000 1.0
C      1  0.5370930000000  0.5299490000000  0.3942490000000 1.0
C      1  0.5424400000000  0.4828030000000  0.3948380000000 1.0
C      1  0.5076200000000  0.4460180000000  0.3908320000000 1.0
C      1  0.4572040000000  0.4667720000000  0.6100400000000 1.0
C      1  0.4583800000000  0.5174090000000  0.6060370000000 1.0
C      1  0.4953730000000  0.5471210000000  0.6066270000000 1.0
C      1  0.5390020000000  0.5296770000000  0.6058760000000 1.0
C      1  0.5447340000000  0.4830900000000  0.6064340000000 1.0
C      1  0.5065500000000  0.4548990000000  0.6059400000000 1.0
C      1  0.5456780000000  0.5067070000000  0.4612740000000 1.0
C      1  0.5275290000000  0.4628210000000  0.4602420000000 1.0
C      1  0.4831890000000  0.4565520000000  0.4604720000000 1.0
C      1  0.4543730000000  0.4943950000000  0.4617040000000 1.0
C      1  0.4714890000000  0.5380950000000  0.4629160000000 1.0
C      1  0.5179140000000  0.5443170000000  0.4626090000000 1.0
C      1  0.5476950000000  0.5067160000000  0.5379600000000 1.0
C      1  0.5290790000000  0.4636340000000  0.5391700000000 1.0
C      1  0.4819710000000  0.4570510000000  0.5404000000000 1.0
C      1  0.4548990000000  0.4927240000000  0.5406320000000 1.0
C      1  0.4729130000000  0.5366650000000  0.5396020000000 1.0
C      1  0.5191100000000  0.5438230000000  0.5382680000000 1.0
C      1  0.4819930000000  0.5237710000000  0.5163530000000 1.0
C      1  0.5123570000000  0.5281990000000  0.5157990000000 1.0
C      1  0.5309990000000  0.5038530000000  0.5152910000000 1.0
C      1  0.5191060000000  0.4752600000000  0.5154930000000 1.0
C      1  0.4882380000000  0.4706010000000  0.5160600000000 1.0
C      1  0.4698760000000  0.4950610000000  0.5165010000000 1.0
C      1  0.4813280000000  0.5243050000000  0.4855840000000 1.0
C      1  0.5117070000000  0.5284670000000  0.4850770000000 1.0
C      1  0.5301510000000  0.5039430000000  0.4845220000000 1.0
C      1  0.5185400000000  0.4750240000000  0.4843730000000 1.0
C      1  0.4882790000000  0.4705850000000  0.4848130000000 1.0
C      1  0.4696400000000  0.4956280000000  0.4853810000000 1.0
C      1  0.4855600000000  0.4091810000000  0.4286250000000 1.0
C      1  0.4171330000000  0.4687680000000  0.4281450000000 1.0
C      1  0.4308810000000  0.5575560000000  0.4285360000000 1.0
C      1  0.5146340000000  0.5895980000000  0.4285150000000 1.0
C      1  0.5836390000000  0.5322340000000  0.4281010000000 1.0
C      1  0.5703920000000  0.4425960000000  0.4289010000000 1.0
C      1  0.4855830000000  0.4105200000000  0.5722880000000 1.0
C      1  0.4143960000000  0.4675200000000  0.5720370000000 1.0
C      1  0.4318500000000  0.5563390000000  0.5725620000000 1.0
C      1  0.5154270000000  0.5889220000000  0.5725800000000 1.0
C      1  0.5851080000000  0.5324690000000  0.5722120000000 1.0
C      1  0.5699770000000  0.4439980000000  0.5727170000000 1.0
C      1  0.5478180000000  0.4392490000000  0.5915730000000 1.0
C      1  0.4695360000000  0.4251230000000  0.5919460000000 1.0
C      1  0.4201570000000  0.4893300000000  0.5917310000000 1.0
C      1  0.4537460000000  0.5612520000000  0.5915420000000 1.0
C      1  0.5309280000000  0.5726080000000  0.5915300000000 1.0
C      1  0.5784500000000  0.5110450000000  0.5913690000000 1.0
C      1  0.5498110000000  0.4359510000000  0.4091420000000 1.0
C      1  0.4695380000000  0.4251270000000  0.4089250000000 1.0
C      1  0.4238980000000  0.4902760000000  0.4093000000000 1.0
C      1  0.4526990000000  0.5628260000000  0.4095070000000 1.0
C      1  0.5297920000000  0.5730800000000  0.4093480000000 1.0
C      1  0.5766010000000  0.5106710000000  0.4093340000000 1.0
C      1  0.4881420000000  0.5927230000000  0.4717360000000 1.0
C      1  0.5735990000000  0.5571150000000  0.4712880000000 1.0
C      1  0.5843440000000  0.4655340000000  0.4713000000000 1.0
C      1  0.5129550000000  0.4059240000000  0.4721800000000 1.0
C      1  0.4280810000000  0.4441650000000  0.4708500000000 1.0
C      1  0.4148770000000  0.5357900000000  0.4715030000000 1.0
C      1  0.4885800000000  0.5921200000000  0.5295900000000 1.0
C      1  0.5743340000000  0.5572330000000  0.5291420000000 1.0
C      1  0.5862710000000  0.4652180000000  0.5293710000000 1.0
C      1  0.5123810000000  0.4094530000000  0.5300210000000 1.0
C      1  0.4251870000000  0.4420610000000  0.5286910000000 1.0
C      1  0.4164660000000  0.5346550000000  0.5295740000000 1.0
C      1  0.4328730000000  0.4479590000000  0.5574000000000 1.0
C      1  0.4257350000000  0.5305610000000  0.5585440000000 1.0
C      1  0.4901370000000  0.5818000000000  0.5583040000000 1.0
C      1  0.5663870000000  0.5509390000000  0.5579110000000 1.0
C      1  0.5769410000000  0.4692330000000  0.5582120000000 1.0
C      1  0.5109160000000  0.4196810000000  0.5588520000000 1.0
C      1  0.4363230000000  0.4503970000000  0.4420190000000 1.0
C      1  0.4243300000000  0.5320720000000  0.4426630000000 1.0
C      1  0.4893540000000  0.5826590000000  0.4429660000000 1.0
C      1  0.5652280000000  0.5508840000000  0.4425740000000 1.0
C      1  0.5748810000000  0.4691540000000  0.4423310000000 1.0
C      1  0.5116510000000  0.4155260000000  0.4434710000000 1.0
C      1  0.4958320000000  0.5333910000000  0.4212720000000 1.0
C      1  0.5248330000000  0.5225380000000  0.4209520000000 1.0
C      1  0.5283510000000  0.4926000000000  0.4205370000000 1.0
C      1  0.5063280000000  0.4541430000000  0.4180190000000 1.0
C      1  0.4751440000000  0.4854030000000  0.4207450000000 1.0
C      1  0.4707500000000  0.5152310000000  0.4211880000000 1.0
C      1  0.4988610000000  0.5332280000000  0.5799240000000 1.0
C      1  0.5270960000000  0.5205140000000  0.5796040000000 1.0
C      1  0.5321190000000  0.4899580000000  0.5796860000000 1.0
C      1  0.5079970000000  0.4718720000000  0.5801280000000 1.0
C      1  0.4638440000000  0.4716320000000  0.5828540000000 1.0
C      1  0.4752830000000  0.5144470000000  0.5803380000000 1.0
C      1  0.4120340000000  0.4624900000000  0.5139990000000 1.0
C      1  0.4251450000000  0.5573300000000  0.5148710000000 1.0
C      1  0.5125290000000  0.5953770000000  0.5147750000000 1.0
C      1  0.5886210000000  0.5377350000000  0.5143750000000 1.0
C      1  0.5763140000000  0.4430660000000  0.5148040000000 1.0
C      1  0.4884610000000  0.4055750000000  0.5150160000000 1.0
C      1  0.4129160000000  0.4630820000000  0.4855880000000 1.0
C      1  0.4244460000000  0.5579210000000  0.4864350000000 1.0
C      1  0.5123000000000  0.5955780000000  0.4863640000000 1.0
C      1  0.5881400000000  0.5376620000000  0.4859600000000 1.0
C      1  0.5756430000000  0.4430700000000  0.4864000000000 1.0
C      1  0.4886270000000  0.4045710000000  0.4866430000000 1.0
C      1  0.4632470000000  0.4089100000000  0.4733610000000 1.0
C      1  0.4035950000000  0.4873770000000  0.4727720000000 1.0
C      1  0.4405890000000  0.5782550000000  0.4734070000000 1.0
C      1  0.5378120000000  0.5914770000000  0.4730980000000 1.0
C      1  0.5971070000000  0.5134130000000  0.4728340000000 1.0
C      1  0.5599570000000  0.4222230000000  0.4737390000000 1.0
C      1  0.4625850000000  0.4091810000000  0.5275090000000 1.0
C      1  0.4032880000000  0.4867300000000  0.5271330000000 1.0
C      1  0.4411160000000  0.5776400000000  0.5280430000000 1.0
C      1  0.5381870000000  0.5913220000000  0.5277800000000 1.0
C      1  0.5979130000000  0.5134760000000  0.5274700000000 1.0
C      1  0.5601940000000  0.4228970000000  0.5281000000000 1.0
C      1  0.5379390000000  0.5920670000000  0.4453600000000 1.0
C      1  0.5974880000000  0.5133550000000  0.4450760000000 1.0
C      1  0.5611310000000  0.4209730000000  0.4459630000000 1.0
C      1  0.4624990000000  0.4075540000000  0.4455940000000 1.0
C      1  0.4031290000000  0.4873430000000  0.4450210000000 1.0
C      1  0.4400460000000  0.5788920000000  0.4456550000000 1.0
C      1  0.5385120000000  0.5918280000000  0.5555190000000 1.0
C      1  0.5987470000000  0.5135450000000  0.5552220000000 1.0
C      1  0.5605010000000  0.4225440000000  0.5558510000000 1.0
C      1  0.4621620000000  0.4076910000000  0.5552770000000 1.0
C      1  0.4015740000000  0.4866670000000  0.5549090000000 1.0
C      1  0.4408050000000  0.5778660000000  0.5558010000000 1.0
C      1  0.4447200000000  0.4928530000000  0.3890610000000 1.0
C      1  0.4655130000000  0.5463240000000  0.3889630000000 1.0
C      1  0.5216770000000  0.5538080000000  0.3888520000000 1.0
C      1  0.5559130000000  0.5077000000000  0.3889990000000 1.0
C      1  0.5357340000000  0.4544020000000  0.3907220000000 1.0
C      1  0.4782810000000  0.4467340000000  0.3906940000000 1.0
C      1  0.4431440000000  0.4925200000000  0.6101510000000 1.0
C      1  0.4663440000000  0.5445740000000  0.6118770000000 1.0
C      1  0.5231190000000  0.5532080000000  0.6120250000000 1.0
C      1  0.5577310000000  0.5083490000000  0.6119130000000 1.0
C      1  0.5348460000000  0.4557380000000  0.6118130000000 1.0
C      1  0.4785420000000  0.4466210000000  0.6101780000000 1.0
C      1  0.4855060000000  0.4884390000000  0.5812230000000 1.0
C      1  0.5027800000000  0.4813310000000  0.4196510000000 1.0
END
