TITL C-156518-9123-5 45.3304472824134 125000 -1312.10232220516 0 0 189 (C1) n - 1
REM
REM in /rds/project/t2_vol4/rds-t2-cs072/BORA/CARBON/from-Arr/AIRSS/Generating-Clusters/GAP-ML-2020/Higher-Symm/SD-CG/HFTN-CG/C160-200
REM
REM
REM
REM
REM
REM ./C.cell (6b4489405718ea1b717e0baf1da4c2d9)
REM AIRSS Version 0.9.1 bugfix July 2018 build 013d7b7c2542+ Fri, 06 Jul 2018 19:26:36 +0100
REM compiler GCC version 9.3.0
REM options -cpp -mtune=generic -march=x86-64 -g -O0
REM seed 1525389920 1267372747 687665150 -1996898241 -1640460035 -2060310876 -1486346279 1663590854 394111558 -1581942444 535414379 -1147899447 -1698351010 1339924709 -729048274 626939495 -200218329 -1619507440 2036470735 1709666364 -1164907864 -182841819 187800170 -945061629 -1606674848 1985395297 -915203396 -909468458 299860072 2022210210 1574927458 -1139778377 -716511727
REM
CELL 1.54180   50.00000   50.00000   50.00000   90.00000   90.00000   90.00000
LATT -1
SFAC C  
C      1  0.4929270000000  0.5657330000000  0.5111800000000 1.0
C      1  0.5467520000000  0.5437230000000  0.5111370000000 1.0
C      1  0.5549580000000  0.4920710000000  0.5129400000000 1.0
C      1  0.5355340000000  0.4414830000000  0.5088150000000 1.0
C      1  0.4770600000000  0.4391450000000  0.5059980000000 1.0
C      1  0.4361560000000  0.4763930000000  0.5112200000000 1.0
C      1  0.4452800000000  0.5356280000000  0.5083590000000 1.0
C      1  0.5358630000000  0.5983340000000  0.4210910000000 1.0
C      1  0.5982350000000  0.5337330000000  0.4181110000000 1.0
C      1  0.5873400000000  0.4440460000000  0.4191770000000 1.0
C      1  0.5101200000000  0.3974900000000  0.4164620000000 1.0
C      1  0.4237540000000  0.4285480000000  0.4199860000000 1.0
C      1  0.3964490000000  0.5111600000000  0.4204730000000 1.0
C      1  0.4463600000000  0.5890650000000  0.4202770000000 1.0
C      1  0.4266230000000  0.4261610000000  0.4477010000000 1.0
C      1  0.3965170000000  0.5093200000000  0.4484030000000 1.0
C      1  0.4443650000000  0.5870690000000  0.4481290000000 1.0
C      1  0.5338380000000  0.5981790000000  0.4490300000000 1.0
C      1  0.5980290000000  0.5346890000000  0.4460590000000 1.0
C      1  0.5881100000000  0.4452330000000  0.4470150000000 1.0
C      1  0.5126100000000  0.3975820000000  0.4443620000000 1.0
C      1  0.5262100000000  0.4746080000000  0.4362470000000 1.0
C      1  0.4966620000000  0.4631700000000  0.4368140000000 1.0
C      1  0.4687910000000  0.4793770000000  0.4382590000000 1.0
C      1  0.4643640000000  0.5112450000000  0.4382380000000 1.0
C      1  0.4865560000000  0.5347610000000  0.4389640000000 1.0
C      1  0.5188180000000  0.5324580000000  0.4382960000000 1.0
C      1  0.5369290000000  0.5056370000000  0.4364150000000 1.0
C      1  0.5934160000000  0.5513160000000  0.4683410000000 1.0
C      1  0.5980840000000  0.4591280000000  0.4693270000000 1.0
C      1  0.5307350000000  0.3978510000000  0.4659750000000 1.0
C      1  0.4389330000000  0.4121360000000  0.4687440000000 1.0
C      1  0.3936810000000  0.4919670000000  0.4707040000000 1.0
C      1  0.4278730000000  0.5784200000000  0.4691450000000 1.0
C      1  0.5173930000000  0.6046680000000  0.4710030000000 1.0
C      1  0.4961280000000  0.4677180000000  0.3907070000000 1.0
C      1  0.4711070000000  0.4824170000000  0.3917540000000 1.0
C      1  0.4675570000000  0.5112290000000  0.3918130000000 1.0
C      1  0.4879320000000  0.5321260000000  0.3922740000000 1.0
C      1  0.5168390000000  0.5296800000000  0.3918710000000 1.0
C      1  0.5327640000000  0.5052690000000  0.3908740000000 1.0
C      1  0.5236320000000  0.4775880000000  0.3904680000000 1.0
C      1  0.4937850000000  0.4466360000000  0.4106420000000 1.0
C      1  0.4536440000000  0.4709220000000  0.4126720000000 1.0
C      1  0.4480090000000  0.5179720000000  0.4122700000000 1.0
C      1  0.4811510000000  0.5513450000000  0.4132130000000 1.0
C      1  0.5280060000000  0.5472810000000  0.4126410000000 1.0
C      1  0.5539210000000  0.5073830000000  0.4108420000000 1.0
C      1  0.5387350000000  0.4622420000000  0.4105090000000 1.0
C      1  0.4298640000000  0.4556770000000  0.4193250000000 1.0
C      1  0.4209040000000  0.5250660000000  0.4186720000000 1.0
C      1  0.4719020000000  0.5778210000000  0.4196100000000 1.0
C      1  0.5427700000000  0.5712470000000  0.4193750000000 1.0
C      1  0.5821460000000  0.5109190000000  0.4167740000000 1.0
C      1  0.5595930000000  0.4431150000000  0.4167960000000 1.0
C      1  0.4915580000000  0.4185600000000  0.4161670000000 1.0
C      1  0.4708550000000  0.4950090000000  0.4974380000000 1.0
C      1  0.4797580000000  0.5183300000000  0.4882200000000 1.0
C      1  0.5037490000000  0.5272010000000  0.4973720000000 1.0
C      1  0.5247040000000  0.5145820000000  0.4860080000000 1.0
C      1  0.5346570000000  0.4904580000000  0.4935200000000 1.0
C      1  0.5125400000000  0.4728470000000  0.4967360000000 1.0
C      1  0.4876100000000  0.4762050000000  0.4873980000000 1.0
C      1  0.5083300000000  0.4087350000000  0.5338780000000 1.0
C      1  0.4460730000000  0.4297050000000  0.5428440000000 1.0
C      1  0.4132690000000  0.5076840000000  0.5416410000000 1.0
C      1  0.4453800000000  0.5718680000000  0.5415580000000 1.0
C      1  0.5261400000000  0.5836780000000  0.5417520000000 1.0
C      1  0.5863090000000  0.5266380000000  0.5367050000000 1.0
C      1  0.5759780000000  0.4596660000000  0.5434100000000 1.0
C      1  0.5023790000000  0.5544660000000  0.4825650000000 1.0
C      1  0.5455980000000  0.5319670000000  0.4789460000000 1.0
C      1  0.5532160000000  0.4825180000000  0.4729470000000 1.0
C      1  0.5224220000000  0.4491320000000  0.4797070000000 1.0
C      1  0.4748610000000  0.4520930000000  0.4782030000000 1.0
C      1  0.4452990000000  0.4888140000000  0.4820050000000 1.0
C      1  0.4584640000000  0.5355110000000  0.4796950000000 1.0
C      1  0.5865680000000  0.5063190000000  0.4480660000000 1.0
C      1  0.5585190000000  0.4372760000000  0.4481000000000 1.0
C      1  0.4875710000000  0.4153410000000  0.4473990000000 1.0
C      1  0.4258610000000  0.4564760000000  0.4509830000000 1.0
C      1  0.4194640000000  0.5299250000000  0.4497060000000 1.0
C      1  0.4745570000000  0.5816460000000  0.4511650000000 1.0
C      1  0.5482270000000  0.5712190000000  0.4507380000000 1.0
C      1  0.4266040000000  0.4242250000000  0.4934600000000 1.0
C      1  0.3945110000000  0.5105870000000  0.4934950000000 1.0
C      1  0.4432500000000  0.5894050000000  0.4924240000000 1.0
C      1  0.5353990000000  0.5986860000000  0.4941610000000 1.0
C      1  0.6009180000000  0.5330770000000  0.4904470000000 1.0
C      1  0.5884490000000  0.4449590000000  0.4934450000000 1.0
C      1  0.5118220000000  0.3932710000000  0.4881230000000 1.0
C      1  0.4397040000000  0.5059780000000  0.5236940000000 1.0
C      1  0.4670560000000  0.5495830000000  0.5247430000000 1.0
C      1  0.5192430000000  0.5550140000000  0.5251560000000 1.0
C      1  0.5540850000000  0.5183400000000  0.5278050000000 1.0
C      1  0.5496480000000  0.4665860000000  0.5276190000000 1.0
C      1  0.5054720000000  0.4384880000000  0.5201550000000 1.0
C      1  0.4589220000000  0.4551310000000  0.5252520000000 1.0
C      1  0.5432540000000  0.5358430000000  0.5937190000000 1.0
C      1  0.5664470000000  0.4953670000000  0.5805920000000 1.0
C      1  0.5193780000000  0.4372290000000  0.5763560000000 1.0
C      1  0.4752060000000  0.4570480000000  0.5932920000000 1.0
C      1  0.4390020000000  0.4913580000000  0.5798120000000 1.0
C      1  0.4584070000000  0.5402420000000  0.5904400000000 1.0
C      1  0.5038900000000  0.5657360000000  0.5800230000000 1.0
C      1  0.4680570000000  0.5004670000000  0.5288890000000 1.0
C      1  0.4798770000000  0.5263180000000  0.5394520000000 1.0
C      1  0.5081030000000  0.5279730000000  0.5297200000000 1.0
C      1  0.5292260000000  0.5107790000000  0.5440330000000 1.0
C      1  0.5266360000000  0.4783600000000  0.5435220000000 1.0
C      1  0.5052300000000  0.4674400000000  0.5267290000000 1.0
C      1  0.4784610000000  0.4742740000000  0.5394960000000 1.0
C      1  0.5347220000000  0.5632340000000  0.5832950000000 1.0
C      1  0.5705060000000  0.5235150000000  0.5883430000000 1.0
C      1  0.5478660000000  0.4404550000000  0.5800440000000 1.0
C      1  0.4903820000000  0.4314250000000  0.5890780000000 1.0
C      1  0.4452890000000  0.4615250000000  0.5834530000000 1.0
C      1  0.4335120000000  0.5230890000000  0.5827100000000 1.0
C      1  0.4713320000000  0.5680870000000  0.5828440000000 1.0
C      1  0.5495980000000  0.4152010000000  0.5141660000000 1.0
C      1  0.4681800000000  0.4052320000000  0.5110700000000 1.0
C      1  0.4082990000000  0.4677380000000  0.5185050000000 1.0
C      1  0.4166920000000  0.5517170000000  0.5126850000000 1.0
C      1  0.4894940000000  0.5962920000000  0.5167950000000 1.0
C      1  0.5698600000000  0.5640570000000  0.5167440000000 1.0
C      1  0.6040040000000  0.4871860000000  0.5161080000000 1.0
C      1  0.4960050000000  0.4425040000000  0.4600260000000 1.0
C      1  0.4526620000000  0.4672110000000  0.4622940000000 1.0
C      1  0.4446520000000  0.5164100000000  0.4615640000000 1.0
C      1  0.4790730000000  0.5531720000000  0.4631020000000 1.0
C      1  0.5289710000000  0.5499200000000  0.4621130000000 1.0
C      1  0.5582520000000  0.5075780000000  0.4584140000000 1.0
C      1  0.5413090000000  0.4603240000000  0.4590280000000 1.0
C      1  0.5019980000000  0.5346380000000  0.5802620000000 1.0
C      1  0.5269580000000  0.5175690000000  0.5738760000000 1.0
C      1  0.5357540000000  0.4905500000000  0.5876410000000 1.0
C      1  0.5187050000000  0.4699400000000  0.5716680000000 1.0
C      1  0.4864720000000  0.4748050000000  0.5703880000000 1.0
C      1  0.4703560000000  0.4982300000000  0.5795770000000 1.0
C      1  0.4767970000000  0.5251420000000  0.5693460000000 1.0
C      1  0.5659840000000  0.4364070000000  0.5597630000000 1.0
C      1  0.4748140000000  0.4099720000000  0.5823000000000 1.0
C      1  0.4312570000000  0.4466460000000  0.5624030000000 1.0
C      1  0.4148830000000  0.5298030000000  0.5618150000000 1.0
C      1  0.4625200000000  0.5851370000000  0.5611640000000 1.0
C      1  0.5469500000000  0.5757680000000  0.5607690000000 1.0
C      1  0.5939660000000  0.5392440000000  0.5842830000000 1.0
C      1  0.4808000000000  0.4002880000000  0.5358970000000 1.0
C      1  0.4126870000000  0.4625950000000  0.5481630000000 1.0
C      1  0.4066710000000  0.5471480000000  0.5396260000000 1.0
C      1  0.4830910000000  0.5971600000000  0.5462480000000 1.0
C      1  0.5702910000000  0.5673210000000  0.5471360000000 1.0
C      1  0.5975740000000  0.5002020000000  0.5407210000000 1.0
C      1  0.5515240000000  0.4175510000000  0.5440250000000 1.0
C      1  0.5262200000000  0.4163120000000  0.5551510000000 1.0
C      1  0.4649660000000  0.4106630000000  0.5561960000000 1.0
C      1  0.4172890000000  0.4866740000000  0.5602520000000 1.0
C      1  0.4238570000000  0.5593190000000  0.5558350000000 1.0
C      1  0.5045530000000  0.5864630000000  0.5592850000000 1.0
C      1  0.5856980000000  0.5459910000000  0.5583460000000 1.0
C      1  0.5822890000000  0.4840550000000  0.5591060000000 1.0
C      1  0.4740720000000  0.5012760000000  0.6081320000000 1.0
C      1  0.4723570000000  0.5284760000000  0.6142500000000 1.0
C      1  0.4995300000000  0.5305790000000  0.6092990000000 1.0
C      1  0.5261680000000  0.5245710000000  0.6169800000000 1.0
C      1  0.5276620000000  0.4960380000000  0.6164870000000 1.0
C      1  0.5083220000000  0.4800530000000  0.6286850000000 1.0
C      1  0.4840860000000  0.4759110000000  0.6168430000000 1.0
C      1  0.5622030000000  0.5832800000000  0.4939940000000 1.0
C      1  0.6061860000000  0.5031420000000  0.4913210000000 1.0
C      1  0.5683240000000  0.4221070000000  0.4917550000000 1.0
C      1  0.4813900000000  0.3941270000000  0.4875840000000 1.0
C      1  0.4092480000000  0.4492450000000  0.4944030000000 1.0
C      1  0.4016860000000  0.5402400000000  0.4906310000000 1.0
C      1  0.4714360000000  0.6012630000000  0.4931300000000 1.0
C      1  0.4879660000000  0.6017950000000  0.4694970000000 1.0
C      1  0.5726500000000  0.5723690000000  0.4692010000000 1.0
C      1  0.6021780000000  0.4882190000000  0.4676760000000 1.0
C      1  0.5554030000000  0.4138500000000  0.4668050000000 1.0
C      1  0.4662700000000  0.4019610000000  0.4648700000000 1.0
C      1  0.4036640000000  0.4643240000000  0.4701290000000 1.0
C      1  0.4116790000000  0.5534870000000  0.4670750000000 1.0
C      1  0.5200020000000  0.5999610000000  0.5175990000000 1.0
C      1  0.5920050000000  0.5438070000000  0.5141320000000 1.0
C      1  0.5936470000000  0.4602120000000  0.5174850000000 1.0
C      1  0.5248950000000  0.3980800000000  0.5120660000000 1.0
C      1  0.4404000000000  0.4147550000000  0.5163730000000 1.0
C      1  0.3972200000000  0.4965490000000  0.5181660000000 1.0
C      1  0.4318830000000  0.5780470000000  0.5153790000000 1.0
END
