TITL C-154533-3230-6 -0.148304167623347 125000 -457.92164674384 0 0 69 (D3) n - 1
REM
REM in /rds/project/t2_vol4/rds-t2-cs072/BORA/CARBON/from-Arr/AIRSS/Generating-Clusters/GAP-ML-2020/Higher-Symm/SD-CG/HFTN-CG
REM
REM
REM
REM
REM
REM ./C.cell (b20cbc046b6831c77cfcea5457e17084)
REM AIRSS Version 0.9.1 bugfix July 2018 build 013d7b7c2542+ Fri, 06 Jul 2018 19:26:36 +0100
REM compiler GCC version 9.3.0
REM options -cpp -mtune=generic -march=x86-64 -g -O0
REM seed -1833024270 1628735607 -979660135 1905585035 610730611 1118366180 -1918557257 -1198344219 1066176257 256293884 -1545746561 -175902789 320720254 -2135258419 618906573 853939104 -1064998234 -115740250 1421659013 292684118 -1437531542 -1313943153 -1919154636 -1768860180 256170314 -752349042 1933236397 -1627869260 1781918434 1443028309 1375236120 -429326528 -2033675893
REM
CELL 1.54180   50.00000   50.00000   50.00000   90.00000   90.00000   90.00000
LATT -1
SFAC C  
C      1  0.4768350000000  0.5425230000000  0.4385770000000 1.0
C      1  0.4768310000000  0.5319380000000  0.5675330000000 1.0
C      1  0.4768130000000  0.4255520000000  0.4938890000000 1.0
C      1  0.5224560000000  0.4574790000000  0.4385770000000 1.0
C      1  0.5224570000000  0.4680600000000  0.5675330000000 1.0
C      1  0.5224770000000  0.5744490000000  0.4938920000000 1.0
C      1  0.5214020000000  0.4724540000000  0.5151100000000 1.0
C      1  0.5214080000000  0.5006820000000  0.4685930000000 1.0
C      1  0.5214120000000  0.5268520000000  0.5162980000000 1.0
C      1  0.4778870000000  0.5275460000000  0.5151100000000 1.0
C      1  0.4778830000000  0.4993190000000  0.4685930000000 1.0
C      1  0.4778770000000  0.4731470000000  0.5162970000000 1.0
C      1  0.5260970000000  0.5416160000000  0.5633170000000 1.0
C      1  0.5260760000000  0.4243500000000  0.5043870000000 1.0
C      1  0.5260970000000  0.5340190000000  0.4322970000000 1.0
C      1  0.4731910000000  0.4583820000000  0.5633160000000 1.0
C      1  0.4732130000000  0.5756490000000  0.5043880000000 1.0
C      1  0.4731940000000  0.4659830000000  0.4322950000000 1.0
C      1  0.5149110000000  0.4361660000000  0.4586710000000 1.0
C      1  0.5149340000000  0.5677050000000  0.4653850000000 1.0
C      1  0.5149200000000  0.4961210000000  0.5759440000000 1.0
C      1  0.4843800000000  0.5638360000000  0.4586730000000 1.0
C      1  0.4843560000000  0.4322960000000  0.4653830000000 1.0
C      1  0.4843680000000  0.5038770000000  0.5759440000000 1.0
C      1  0.4691320000000  0.4426820000000  0.4448760000000 1.0
C      1  0.4691560000000  0.5764060000000  0.4779180000000 1.0
C      1  0.4691370000000  0.4809290000000  0.5772060000000 1.0
C      1  0.5301590000000  0.5573200000000  0.4448780000000 1.0
C      1  0.5301340000000  0.4235940000000  0.4779160000000 1.0
C      1  0.5301500000000  0.5190690000000  0.5772070000000 1.0
C      1  0.4374960000000  0.5143740000000  0.4593640000000 1.0
C      1  0.4374980000000  0.5280210000000  0.5327550000000 1.0
C      1  0.4374850000000  0.4576390000000  0.5078780000000 1.0
C      1  0.5617940000000  0.4856270000000  0.4593660000000 1.0
C      1  0.5617910000000  0.4719780000000  0.5327560000000 1.0
C      1  0.5618040000000  0.5423600000000  0.5078810000000 1.0
C      1  0.5489120000000  0.4972650000000  0.4821000000000 1.0
C      1  0.5489150000000  0.5168560000000  0.5065900000000 1.0
C      1  0.5489090000000  0.4858520000000  0.5113110000000 1.0
C      1  0.4503780000000  0.5027350000000  0.4820990000000 1.0
C      1  0.4503740000000  0.4831440000000  0.5065890000000 1.0
C      1  0.4503800000000  0.5141480000000  0.5113100000000 1.0
C      1  0.4999910000000  0.4790000000000  0.4720450000000 1.0
C      1  0.5000010000000  0.5347100000000  0.4957910000000 1.0
C      1  0.4999910000000  0.4862900000000  0.5321650000000 1.0
C      1  0.4992990000000  0.5210010000000  0.4720450000000 1.0
C      1  0.4992890000000  0.4652900000000  0.4957900000000 1.0
C      1  0.4992970000000  0.5137090000000  0.5321650000000 1.0
C      1  0.4986080000000  0.4195030000000  0.5113370000000 1.0
C      1  0.4986290000000  0.5304300000000  0.4246190000000 1.0
C      1  0.4986310000000  0.5500670000000  0.5640440000000 1.0
C      1  0.5006820000000  0.5804960000000  0.5113390000000 1.0
C      1  0.5006630000000  0.4695720000000  0.4246180000000 1.0
C      1  0.5006570000000  0.4499310000000  0.5640420000000 1.0
C      1  0.4725700000000  0.5547240000000  0.5269060000000 1.0
C      1  0.4725510000000  0.4493440000000  0.5339350000000 1.0
C      1  0.4725610000000  0.4959470000000  0.4391590000000 1.0
C      1  0.5267190000000  0.4452750000000  0.5269050000000 1.0
C      1  0.5267380000000  0.5506550000000  0.5339370000000 1.0
C      1  0.5267300000000  0.5040550000000  0.4391590000000 1.0
C      1  0.4558520000000  0.5210070000000  0.4400590000000 1.0
C      1  0.4558550000000  0.5414190000000  0.5481550000000 1.0
C      1  0.4558360000000  0.4375980000000  0.5117840000000 1.0
C      1  0.5434390000000  0.4789950000000  0.4400590000000 1.0
C      1  0.5434340000000  0.4585800000000  0.5481550000000 1.0
C      1  0.5434530000000  0.5624010000000  0.5117870000000 1.0
C      1  0.4996330000000  0.4358500000000  0.5370360000000 1.0
C      1  0.4996560000000  0.5641480000000  0.5370370000000 1.0
C      1  0.4996460000000  0.5000010000000  0.4259270000000 1.0
END
