TITL C-156529-8913-1 -55.3499975775489 125000 -1367.48937519663 0 0 193 (C1) n - 1
REM
REM in /rds/project/t2_vol4/rds-t2-cs072/BORA/CARBON/from-Arr/AIRSS/Generating-Clusters/GAP-ML-2020/Higher-Symm/SD-CG/HFTN-CG/C160-200
REM
REM
REM
REM
REM
REM ./C.cell (6b4489405718ea1b717e0baf1da4c2d9)
REM AIRSS Version 0.9.1 bugfix July 2018 build 013d7b7c2542+ Fri, 06 Jul 2018 19:26:36 +0100
REM compiler GCC version 9.3.0
REM options -cpp -mtune=generic -march=x86-64 -g -O0
REM seed -1200070722 1305533253 -1559599596 -15732752 738517505 -882390652 151711219 704016223 -1451136586 -1602139406 -202820425 1193017109 1834420838 836758069 -28682755 -461602600 -2054168131 229521155 1120229234 1482258373 -601931372 -1086848898 62989749 138214892 -1278756585 -185900820 -1923469811 -1615306437 1287770350 1805456594 -282851821 1544497755 -866788485
REM
CELL 1.54180   50.00000   50.00000   50.00000   90.00000   90.00000   90.00000
LATT -1
SFAC C  
C      1  0.5498660000000  0.5216680000000  0.5962290000000 1.0
C      1  0.6169270000000  0.5268200000000  0.4791100000000 1.0
C      1  0.5212450000000  0.5226910000000  0.3921810000000 1.0
C      1  0.3970430000000  0.5220740000000  0.4494520000000 1.0
C      1  0.4166500000000  0.5221870000000  0.5780930000000 1.0
C      1  0.5975720000000  0.5337510000000  0.5522040000000 1.0
C      1  0.5900420000000  0.5317060000000  0.4200150000000 1.0
C      1  0.4544650000000  0.5303740000000  0.3972010000000 1.0
C      1  0.3790910000000  0.5285650000000  0.5123980000000 1.0
C      1  0.4747760000000  0.5316180000000  0.6111020000000 1.0
C      1  0.4865610000000  0.4100050000000  0.5361080000000 1.0
C      1  0.5362890000000  0.4162720000000  0.5214230000000 1.0
C      1  0.5416260000000  0.4151170000000  0.4673190000000 1.0
C      1  0.4750980000000  0.4154130000000  0.4503530000000 1.0
C      1  0.4490450000000  0.4138440000000  0.4996810000000 1.0
C      1  0.6051680000000  0.4601770000000  0.4487200000000 1.0
C      1  0.4682390000000  0.4670620000000  0.3918350000000 1.0
C      1  0.3788510000000  0.4627530000000  0.4974310000000 1.0
C      1  0.4577470000000  0.4682830000000  0.6168270000000 1.0
C      1  0.5898050000000  0.4623020000000  0.5627730000000 1.0
C      1  0.4613750000000  0.4248380000000  0.5288610000000 1.0
C      1  0.5110610000000  0.4277020000000  0.5411200000000 1.0
C      1  0.5485230000000  0.4299810000000  0.4955820000000 1.0
C      1  0.5207210000000  0.4291480000000  0.4541450000000 1.0
C      1  0.4556070000000  0.4280860000000  0.4700660000000 1.0
C      1  0.5243950000000  0.4531450000000  0.5864590000000 1.0
C      1  0.6010720000000  0.4415440000000  0.4956430000000 1.0
C      1  0.5341680000000  0.4558840000000  0.4156710000000 1.0
C      1  0.4167080000000  0.4498740000000  0.4450130000000 1.0
C      1  0.4232230000000  0.4531690000000  0.5538020000000 1.0
C      1  0.4298210000000  0.5355280000000  0.4134190000000 1.0
C      1  0.3883250000000  0.5344250000000  0.5396050000000 1.0
C      1  0.5044390000000  0.5364810000000  0.6121090000000 1.0
C      1  0.6080140000000  0.5416330000000  0.5259220000000 1.0
C      1  0.5653180000000  0.5382310000000  0.4062970000000 1.0
C      1  0.5304580000000  0.4323850000000  0.5648560000000 1.0
C      1  0.5776210000000  0.4287400000000  0.4863400000000 1.0
C      1  0.5142090000000  0.4352880000000  0.4270870000000 1.0
C      1  0.4258060000000  0.4317430000000  0.4650260000000 1.0
C      1  0.4453050000000  0.4322750000000  0.5549030000000 1.0
C      1  0.4518490000000  0.5210170000000  0.5489960000000 1.0
C      1  0.5299650000000  0.5208510000000  0.5562940000000 1.0
C      1  0.5571410000000  0.5126770000000  0.4881000000000 1.0
C      1  0.5112500000000  0.5218860000000  0.4346400000000 1.0
C      1  0.4396250000000  0.5175930000000  0.4890070000000 1.0
C      1  0.4592370000000  0.5051230000000  0.4449480000000 1.0
C      1  0.4227120000000  0.4943170000000  0.5245190000000 1.0
C      1  0.4967020000000  0.4988980000000  0.5807010000000 1.0
C      1  0.5658140000000  0.4973950000000  0.5244220000000 1.0
C      1  0.5531460000000  0.4983740000000  0.4376550000000 1.0
C      1  0.4296010000000  0.5633610000000  0.5503170000000 1.0
C      1  0.5288230000000  0.5650500000000  0.5781850000000 1.0
C      1  0.5860190000000  0.5626700000000  0.4859710000000 1.0
C      1  0.5237060000000  0.5648860000000  0.4217550000000 1.0
C      1  0.4233440000000  0.5607410000000  0.4568880000000 1.0
C      1  0.5976330000000  0.4868660000000  0.3989480000000 1.0
C      1  0.4438300000000  0.4818410000000  0.3873740000000 1.0
C      1  0.3682600000000  0.4777130000000  0.5196100000000 1.0
C      1  0.4780790000000  0.4841490000000  0.6298980000000 1.0
C      1  0.6205150000000  0.4911150000000  0.5439250000000 1.0
C      1  0.4725690000000  0.5872610000000  0.5357950000000 1.0
C      1  0.5285690000000  0.5907200000000  0.5338600000000 1.0
C      1  0.5499610000000  0.5872220000000  0.4919350000000 1.0
C      1  0.5117110000000  0.5717270000000  0.4489920000000 1.0
C      1  0.4418560000000  0.5686290000000  0.4773240000000 1.0
C      1  0.5592030000000  0.4939820000000  0.5858620000000 1.0
C      1  0.6075100000000  0.5025470000000  0.4675090000000 1.0
C      1  0.5085240000000  0.4953270000000  0.3943190000000 1.0
C      1  0.3960500000000  0.4944320000000  0.4634840000000 1.0
C      1  0.4292220000000  0.4957410000000  0.5859040000000 1.0
C      1  0.4464480000000  0.5766350000000  0.5304100000000 1.0
C      1  0.5169120000000  0.5820330000000  0.5579740000000 1.0
C      1  0.5330190000000  0.5446940000000  0.5134850000000 1.0
C      1  0.5309530000000  0.5511510000000  0.4663250000000 1.0
C      1  0.4690710000000  0.5534180000000  0.4720580000000 1.0
C      1  0.6044260000000  0.5070870000000  0.5620680000000 1.0
C      1  0.6031280000000  0.5043800000000  0.4193070000000 1.0
C      1  0.4591580000000  0.5064550000000  0.3819030000000 1.0
C      1  0.3676900000000  0.5030520000000  0.5052000000000 1.0
C      1  0.4633070000000  0.5084280000000  0.6230860000000 1.0
C      1  0.4330140000000  0.5744220000000  0.5038250000000 1.0
C      1  0.4880660000000  0.5813560000000  0.5593610000000 1.0
C      1  0.5467710000000  0.5725650000000  0.5191190000000 1.0
C      1  0.5601520000000  0.5690920000000  0.4715150000000 1.0
C      1  0.4818930000000  0.5665080000000  0.4484100000000 1.0
C      1  0.6032040000000  0.5492300000000  0.4683530000000 1.0
C      1  0.5070070000000  0.5422670000000  0.4104980000000 1.0
C      1  0.3998660000000  0.5456540000000  0.4652580000000 1.0
C      1  0.4391470000000  0.5422740000000  0.5697050000000 1.0
C      1  0.5485640000000  0.5426610000000  0.5733880000000 1.0
C      1  0.4416800000000  0.4918130000000  0.6122840000000 1.0
C      1  0.5866260000000  0.4884060000000  0.5758110000000 1.0
C      1  0.6105100000000  0.4893280000000  0.4430060000000 1.0
C      1  0.4832840000000  0.4898090000000  0.3818090000000 1.0
C      1  0.3751640000000  0.4871720000000  0.4819410000000 1.0
C      1  0.5007160000000  0.5184080000000  0.5575680000000 1.0
C      1  0.5466520000000  0.5172460000000  0.5149720000000 1.0
C      1  0.5350270000000  0.5220190000000  0.4515470000000 1.0
C      1  0.4624630000000  0.5222880000000  0.4702380000000 1.0
C      1  0.4437600000000  0.5154380000000  0.5193540000000 1.0
C      1  0.4745920000000  0.4765600000000  0.4688920000000 1.0
C      1  0.4558080000000  0.4719700000000  0.5169330000000 1.0
C      1  0.4943260000000  0.4743610000000  0.5495120000000 1.0
C      1  0.5257400000000  0.4705300000000  0.5166880000000 1.0
C      1  0.5361040000000  0.4756000000000  0.4677240000000 1.0
C      1  0.4853430000000  0.4326820000000  0.4281960000000 1.0
C      1  0.4199330000000  0.4254730000000  0.4923480000000 1.0
C      1  0.4574210000000  0.4343910000000  0.5786000000000 1.0
C      1  0.5518700000000  0.4270860000000  0.5463910000000 1.0
C      1  0.5696570000000  0.4255520000000  0.4594970000000 1.0
C      1  0.5193600000000  0.3958630000000  0.5064220000000 1.0
C      1  0.5187600000000  0.3970230000000  0.4777560000000 1.0
C      1  0.4894110000000  0.3979110000000  0.4690210000000 1.0
C      1  0.4732510000000  0.3957600000000  0.4932640000000 1.0
C      1  0.4917690000000  0.3932180000000  0.5148320000000 1.0
C      1  0.5278510000000  0.6038070000000  0.4885380000000 1.0
C      1  0.5091320000000  0.5945460000000  0.4694900000000 1.0
C      1  0.4891430000000  0.5881960000000  0.4891310000000 1.0
C      1  0.4878280000000  0.6001650000000  0.5143130000000 1.0
C      1  0.5147870000000  0.6062230000000  0.5150710000000 1.0
C      1  0.5016410000000  0.4546360000000  0.5296090000000 1.0
C      1  0.5299790000000  0.4564960000000  0.4905380000000 1.0
C      1  0.5069980000000  0.4431890000000  0.4779910000000 1.0
C      1  0.4792240000000  0.4499710000000  0.4829920000000 1.0
C      1  0.4756820000000  0.4503680000000  0.5138860000000 1.0
C      1  0.3987150000000  0.4740640000000  0.4422310000000 1.0
C      1  0.4118370000000  0.4740500000000  0.5751790000000 1.0
C      1  0.5433730000000  0.4740520000000  0.6018100000000 1.0
C      1  0.6132340000000  0.4509930000000  0.4727250000000 1.0
C      1  0.5301210000000  0.4756640000000  0.3924700000000 1.0
C      1  0.5292420000000  0.4784330000000  0.4363840000000 1.0
C      1  0.4447010000000  0.4825570000000  0.4568010000000 1.0
C      1  0.4386330000000  0.4765280000000  0.5425120000000 1.0
C      1  0.5166760000000  0.4780090000000  0.5700770000000 1.0
C      1  0.5892040000000  0.4858540000000  0.5092830000000 1.0
C      1  0.5640360000000  0.4528950000000  0.4167790000000 1.0
C      1  0.4398300000000  0.4617810000000  0.4310040000000 1.0
C      1  0.4007170000000  0.4494010000000  0.5357370000000 1.0
C      1  0.5003830000000  0.4519990000000  0.6043980000000 1.0
C      1  0.5940070000000  0.4568790000000  0.5203600000000 1.0
C      1  0.3916840000000  0.5474740000000  0.4932770000000 1.0
C      1  0.4614700000000  0.5488420000000  0.5905460000000 1.0
C      1  0.5736050000000  0.5494900000000  0.5570820000000 1.0
C      1  0.5918090000000  0.5506600000000  0.4417250000000 1.0
C      1  0.4764320000000  0.5469390000000  0.4066350000000 1.0
C      1  0.4051510000000  0.5573020000000  0.5372910000000 1.0
C      1  0.5075600000000  0.5592590000000  0.5958990000000 1.0
C      1  0.5909360000000  0.5609110000000  0.5141590000000 1.0
C      1  0.5516960000000  0.5601960000000  0.4204740000000 1.0
C      1  0.4363190000000  0.5566330000000  0.4314540000000 1.0
C      1  0.4646930000000  0.5628910000000  0.4268790000000 1.0
C      1  0.4067280000000  0.5649380000000  0.5096370000000 1.0
C      1  0.4819340000000  0.5670920000000  0.5835400000000 1.0
C      1  0.5713830000000  0.5657310000000  0.5335710000000 1.0
C      1  0.5686850000000  0.5667960000000  0.4428390000000 1.0
C      1  0.6199400000000  0.5241490000000  0.5071160000000 1.0
C      1  0.5491830000000  0.5193080000000  0.3915410000000 1.0
C      1  0.4082370000000  0.5181800000000  0.4237120000000 1.0
C      1  0.3941970000000  0.5163750000000  0.5618260000000 1.0
C      1  0.5277060000000  0.5178190000000  0.6134690000000 1.0
C      1  0.4801960000000  0.5024450000000  0.4857520000000 1.0
C      1  0.4697080000000  0.4985210000000  0.5143660000000 1.0
C      1  0.4941970000000  0.5007410000000  0.5338050000000 1.0
C      1  0.5177810000000  0.4998040000000  0.5153170000000 1.0
C      1  0.5315750000000  0.5041690000000  0.4746830000000 1.0
C      1  0.5806280000000  0.4938930000000  0.4804990000000 1.0
C      1  0.5057910000000  0.4942620000000  0.4279170000000 1.0
C      1  0.4266550000000  0.4921260000000  0.4784700000000 1.0
C      1  0.4508050000000  0.4938160000000  0.5629630000000 1.0
C      1  0.5398980000000  0.4920250000000  0.5601520000000 1.0
C      1  0.3900700000000  0.4868430000000  0.5632920000000 1.0
C      1  0.5268990000000  0.4888330000000  0.6191220000000 1.0
C      1  0.6168440000000  0.4981740000000  0.5167100000000 1.0
C      1  0.5533850000000  0.4899750000000  0.3883200000000 1.0
C      1  0.4055260000000  0.4892460000000  0.4193740000000 1.0
C      1  0.5029640000000  0.4735730000000  0.6229780000000 1.0
C      1  0.6107980000000  0.4641990000000  0.5443510000000 1.0
C      1  0.5742820000000  0.4732300000000  0.3990110000000 1.0
C      1  0.4273980000000  0.4755140000000  0.4082260000000 1.0
C      1  0.3815140000000  0.4691990000000  0.5423320000000 1.0
C      1  0.4716350000000  0.4541050000000  0.5934120000000 1.0
C      1  0.5697000000000  0.4514020000000  0.5415040000000 1.0
C      1  0.5762430000000  0.4510010000000  0.4438080000000 1.0
C      1  0.4693260000000  0.4581680000000  0.4212600000000 1.0
C      1  0.4061500000000  0.4497270000000  0.5062840000000 1.0
C      1  0.5502630000000  0.4759070000000  0.5359460000000 1.0
C      1  0.5650130000000  0.4782680000000  0.4598980000000 1.0
C      1  0.4811930000000  0.4838010000000  0.4387850000000 1.0
C      1  0.4271160000000  0.4750000000000  0.5023520000000 1.0
C      1  0.4747510000000  0.4800720000000  0.5724270000000 1.0
C      1  0.5082390000000  0.5124190000000  0.4903290000000 1.0
C      1  0.5135520000000  0.5431430000000  0.4919500000000 1.0
C      1  0.4886020000000  0.5586040000000  0.4926450000000 1.0
END
