TITL C-156515-8933-3 368.298589980742 125000 -1231.03169409732 0 0 169 (C1) n - 1
REM
REM in /rds/project/t2_vol4/rds-t2-cs072/BORA/CARBON/from-Arr/AIRSS/Generating-Clusters/GAP-ML-2020/Higher-Symm/SD-CG/HFTN-CG/C160-200
REM
REM
REM
REM
REM
REM ./C.cell (6b4489405718ea1b717e0baf1da4c2d9)
REM AIRSS Version 0.9.1 bugfix July 2018 build 013d7b7c2542+ Fri, 06 Jul 2018 19:26:36 +0100
REM compiler GCC version 9.3.0
REM options -cpp -mtune=generic -march=x86-64 -g -O0
REM seed 944354585 237321401 625274257 -604621718 -534308946 621485526 -702151680 -1138305996 -1008653710 -441632467 1128282352 -278498298 887790172 1141137940 1356865398 2007412679 -1392326998 654358553 202629666 -410396524 -1820563923 -1561224478 1643516107 -198126755 -1388868821 1573695471 1744739709 1900031232 792482400 376415537 657917960 1583524286 299381551
REM
CELL 1.54180   50.00000   50.00000   50.00000   90.00000   90.00000   90.00000
LATT -1
SFAC C  
C      1  0.4004590000000  0.5439970000000  0.5036300000000 1.0
C      1  0.5374270000000  0.5048590000000  0.4041300000000 1.0
C      1  0.5029470000000  0.4031720000000  0.5414480000000 1.0
C      1  0.4053470000000  0.4582680000000  0.4949940000000 1.0
C      1  0.6000460000000  0.5381690000000  0.4918060000000 1.0
C      1  0.5979920000000  0.4618770000000  0.5072540000000 1.0
C      1  0.5452030000000  0.4982210000000  0.6010290000000 1.0
C      1  0.4576180000000  0.5040810000000  0.5995900000000 1.0
C      1  0.4571370000000  0.4985910000000  0.3947260000000 1.0
C      1  0.5022080000000  0.6003540000000  0.4588650000000 1.0
C      1  0.4977830000000  0.3986070000000  0.4589720000000 1.0
C      1  0.5011120000000  0.5975190000000  0.5372350000000 1.0
C      1  0.5387420000000  0.4500610000000  0.4213950000000 1.0
C      1  0.4451780000000  0.4205840000000  0.5448670000000 1.0
C      1  0.4185000000000  0.5439640000000  0.4460440000000 1.0
C      1  0.5440720000000  0.5497560000000  0.5771360000000 1.0
C      1  0.4605070000000  0.4547960000000  0.5772370000000 1.0
C      1  0.4563710000000  0.5549050000000  0.4178520000000 1.0
C      1  0.4463650000000  0.5833410000000  0.4565790000000 1.0
C      1  0.5473300000000  0.4236790000000  0.4615260000000 1.0
C      1  0.5569060000000  0.5778840000000  0.5394080000000 1.0
C      1  0.4182550000000  0.4610980000000  0.5493860000000 1.0
C      1  0.5825480000000  0.5366340000000  0.5465260000000 1.0
C      1  0.5728280000000  0.4652460000000  0.4550140000000 1.0
C      1  0.5842650000000  0.4869260000000  0.5734660000000 1.0
C      1  0.4937270000000  0.5685400000000  0.5758520000000 1.0
C      1  0.5732470000000  0.5797960000000  0.4870760000000 1.0
C      1  0.5781570000000  0.5126650000000  0.4283350000000 1.0
C      1  0.4174620000000  0.4921250000000  0.4255410000000 1.0
C      1  0.4185280000000  0.5142580000000  0.5697710000000 1.0
C      1  0.4871590000000  0.4306330000000  0.4177940000000 1.0
C      1  0.5092210000000  0.5740790000000  0.4186970000000 1.0
C      1  0.5102920000000  0.4316280000000  0.5808590000000 1.0
C      1  0.5725100000000  0.4190180000000  0.5124650000000 1.0
C      1  0.4294100000000  0.5836230000000  0.5091850000000 1.0
C      1  0.4325110000000  0.4142020000000  0.4911260000000 1.0
C      1  0.5534000000000  0.4959150000000  0.5257940000000 1.0
C      1  0.4916630000000  0.5079570000000  0.5649110000000 1.0
C      1  0.5106200000000  0.5583100000000  0.4866300000000 1.0
C      1  0.5646340000000  0.5085460000000  0.5037260000000 1.0
C      1  0.4462660000000  0.4898630000000  0.4861560000000 1.0
C      1  0.4450810000000  0.4990390000000  0.5140070000000 1.0
C      1  0.4948230000000  0.4947580000000  0.4428640000000 1.0
C      1  0.5135810000000  0.5189320000000  0.4484310000000 1.0
C      1  0.5176510000000  0.4927360000000  0.5611680000000 1.0
C      1  0.5132780000000  0.4386350000000  0.5057800000000 1.0
C      1  0.4861990000000  0.5632290000000  0.5055520000000 1.0
C      1  0.4879700000000  0.4324650000000  0.4896210000000 1.0
C      1  0.4198580000000  0.4747190000000  0.4716830000000 1.0
C      1  0.4672380000000  0.4702500000000  0.3963420000000 1.0
C      1  0.4753660000000  0.4064620000000  0.4791420000000 1.0
C      1  0.4020540000000  0.5357610000000  0.5318780000000 1.0
C      1  0.6002850000000  0.4649580000000  0.5355460000000 1.0
C      1  0.5985080000000  0.5345710000000  0.4640500000000 1.0
C      1  0.4759290000000  0.5261530000000  0.5873530000000 1.0
C      1  0.5291800000000  0.4752080000000  0.5881940000000 1.0
C      1  0.5251250000000  0.5296420000000  0.4167840000000 1.0
C      1  0.4757320000000  0.5874690000000  0.5227240000000 1.0
C      1  0.5275870000000  0.4140520000000  0.5261040000000 1.0
C      1  0.5268250000000  0.5865790000000  0.4730060000000 1.0
C      1  0.4671010000000  0.4831100000000  0.6138380000000 1.0
C      1  0.4819840000000  0.6134070000000  0.4702470000000 1.0
C      1  0.6000830000000  0.4855830000000  0.4922840000000 1.0
C      1  0.4714100000000  0.5200120000000  0.3877430000000 1.0
C      1  0.5256280000000  0.4846900000000  0.3913240000000 1.0
C      1  0.5344360000000  0.5197440000000  0.6128100000000 1.0
C      1  0.4812200000000  0.3900680000000  0.5333640000000 1.0
C      1  0.5220400000000  0.6096220000000  0.5263830000000 1.0
C      1  0.5204740000000  0.3858350000000  0.4676850000000 1.0
C      1  0.5962260000000  0.5126370000000  0.5060230000000 1.0
C      1  0.3917510000000  0.4714230000000  0.5146490000000 1.0
C      1  0.3921090000000  0.5288650000000  0.4829690000000 1.0
C      1  0.5608150000000  0.4468340000000  0.4752390000000 1.0
C      1  0.4411310000000  0.4731250000000  0.5647260000000 1.0
C      1  0.4631690000000  0.5769210000000  0.4345330000000 1.0
C      1  0.5779990000000  0.5600360000000  0.5311080000000 1.0
C      1  0.4240930000000  0.4368890000000  0.5350090000000 1.0
C      1  0.4251620000000  0.5658550000000  0.4636760000000 1.0
C      1  0.4341130000000  0.5377030000000  0.4230230000000 1.0
C      1  0.5595410000000  0.4679080000000  0.4299350000000 1.0
C      1  0.5609070000000  0.5288610000000  0.5653550000000 1.0
C      1  0.4678540000000  0.4354190000000  0.5575680000000 1.0
C      1  0.5388150000000  0.5715010000000  0.5602130000000 1.0
C      1  0.5315890000000  0.4283500000000  0.4381510000000 1.0
C      1  0.5456000000000  0.5823340000000  0.4506300000000 1.0
C      1  0.5865720000000  0.4460680000000  0.5517300000000 1.0
C      1  0.4545120000000  0.5458310000000  0.5782970000000 1.0
C      1  0.5463010000000  0.4190650000000  0.5495630000000 1.0
C      1  0.4570400000000  0.5804210000000  0.5449960000000 1.0
C      1  0.4537760000000  0.4396330000000  0.4530650000000 1.0
C      1  0.5849180000000  0.5536220000000  0.4480560000000 1.0
C      1  0.4295530000000  0.4564990000000  0.4507690000000 1.0
C      1  0.4170590000000  0.5539390000000  0.5475330000000 1.0
C      1  0.4480870000000  0.4550800000000  0.4096660000000 1.0
C      1  0.5472850000000  0.5487480000000  0.4188660000000 1.0
C      1  0.5499410000000  0.4538440000000  0.5827930000000 1.0
C      1  0.4983490000000  0.5389820000000  0.4655050000000 1.0
C      1  0.5426710000000  0.4708120000000  0.5221780000000 1.0
C      1  0.4769720000000  0.5066590000000  0.5405370000000 1.0
C      1  0.5005160000000  0.4605890000000  0.5239320000000 1.0
C      1  0.4960690000000  0.5082110000000  0.5185970000000 1.0
C      1  0.4806870000000  0.4540850000000  0.4676970000000 1.0
C      1  0.5460750000000  0.5225880000000  0.4870210000000 1.0
C      1  0.4690090000000  0.4706250000000  0.4902840000000 1.0
C      1  0.4604100000000  0.5228420000000  0.5213130000000 1.0
C      1  0.4680960000000  0.4993330000000  0.4434930000000 1.0
C      1  0.5315780000000  0.5061250000000  0.4689730000000 1.0
C      1  0.5204160000000  0.4705630000000  0.5404500000000 1.0
C      1  0.4576800000000  0.6022630000000  0.4756090000000 1.0
C      1  0.5919780000000  0.4845070000000  0.4648180000000 1.0
C      1  0.4778010000000  0.4628770000000  0.5984650000000 1.0
C      1  0.4561690000000  0.3996310000000  0.5288470000000 1.0
C      1  0.5456480000000  0.5975730000000  0.5212270000000 1.0
C      1  0.5410230000000  0.4009930000000  0.4780170000000 1.0
C      1  0.5986280000000  0.5150510000000  0.5358560000000 1.0
C      1  0.3990660000000  0.4811410000000  0.5390050000000 1.0
C      1  0.4023100000000  0.5231280000000  0.4587130000000 1.0
C      1  0.4768120000000  0.5432180000000  0.4006440000000 1.0
C      1  0.5206440000000  0.4598790000000  0.4004920000000 1.0
C      1  0.5258120000000  0.5409770000000  0.5977720000000 1.0
C      1  0.5035520000000  0.5491030000000  0.4067450000000 1.0
C      1  0.5482490000000  0.4052820000000  0.5056140000000 1.0
C      1  0.4024130000000  0.5095570000000  0.5466310000000 1.0
C      1  0.5054010000000  0.4562270000000  0.5942330000000 1.0
C      1  0.4986020000000  0.5463830000000  0.5924950000000 1.0
C      1  0.4929600000000  0.4527660000000  0.4003920000000 1.0
C      1  0.5492930000000  0.5935090000000  0.4939580000000 1.0
C      1  0.4535670000000  0.3979800000000  0.5016590000000 1.0
C      1  0.4529680000000  0.5975100000000  0.5025870000000 1.0
C      1  0.4077580000000  0.4964260000000  0.4516990000000 1.0
C      1  0.5940550000000  0.5089300000000  0.4515030000000 1.0
C      1  0.5996000000000  0.4905820000000  0.5493280000000 1.0
C      1  0.4663600000000  0.5691010000000  0.5684540000000 1.0
C      1  0.5713560000000  0.5749350000000  0.4594230000000 1.0
C      1  0.5756310000000  0.4597990000000  0.5741490000000 1.0
C      1  0.4602220000000  0.4347120000000  0.4246170000000 1.0
C      1  0.5367540000000  0.5738840000000  0.4259740000000 1.0
C      1  0.5379840000000  0.4297930000000  0.5740470000000 1.0
C      1  0.5722040000000  0.4246950000000  0.5404810000000 1.0
C      1  0.4309560000000  0.5755270000000  0.5364370000000 1.0
C      1  0.4493690000000  0.4163550000000  0.4685460000000 1.0
C      1  0.5720640000000  0.5402040000000  0.4268800000000 1.0
C      1  0.4266410000000  0.4654930000000  0.4248610000000 1.0
C      1  0.4286360000000  0.5406280000000  0.5697780000000 1.0
C      1  0.5119690000000  0.5815250000000  0.5591960000000 1.0
C      1  0.5874700000000  0.5614060000000  0.5038850000000 1.0
C      1  0.5674000000000  0.5061060000000  0.5837820000000 1.0
C      1  0.5050100000000  0.4173740000000  0.4362860000000 1.0
C      1  0.4905830000000  0.5870530000000  0.4351080000000 1.0
C      1  0.4927160000000  0.4198840000000  0.5627320000000 1.0
C      1  0.5820380000000  0.4401810000000  0.4964070000000 1.0
C      1  0.4160040000000  0.5664020000000  0.4913290000000 1.0
C      1  0.4175890000000  0.4342740000000  0.5064690000000 1.0
C      1  0.5602790000000  0.4940620000000  0.4180640000000 1.0
C      1  0.4336040000000  0.5107010000000  0.4112870000000 1.0
C      1  0.4356750000000  0.4960800000000  0.5819160000000 1.0
C      1  0.5183000000000  0.5268650000000  0.5256110000000 1.0
C      1  0.5284780000000  0.5399500000000  0.5020970000000 1.0
C      1  0.5369230000000  0.5125930000000  0.5450520000000 1.0
C      1  0.5019140000000  0.4713110000000  0.4575130000000 1.0
C      1  0.4729160000000  0.5315830000000  0.4756770000000 1.0
C      1  0.4728430000000  0.4556240000000  0.5327680000000 1.0
C      1  0.5357480000000  0.4587590000000  0.4943850000000 1.0
C      1  0.4677030000000  0.5420640000000  0.5017510000000 1.0
C      1  0.4652410000000  0.4457940000000  0.5066710000000 1.0
C      1  0.5187050000000  0.4800210000000  0.4800150000000 1.0
C      1  0.4587330000000  0.5092380000000  0.4668300000000 1.0
C      1  0.4580980000000  0.4819550000000  0.5376770000000 1.0
C      1  0.4956940000000  0.4829850000000  0.5022100000000 1.0
END
