TITL C-152263-5841-1 -0.00172696625575099 125000 -1189.34338464252 0 0 174 (D2h) n - 1
REM
REM in /rds/project/t2_vol4/rds-t2-cs072/BORA/CARBON/from-Arr/AIRSS/Generating-Clusters/GAP-ML-2020/Higher-Symm/SD-CG/HFTN-CG
REM
REM
REM
REM
REM
REM ./C.cell (b20cbc046b6831c77cfcea5457e17084)
REM AIRSS Version 0.9.1 bugfix July 2018 build 013d7b7c2542+ Fri, 06 Jul 2018 19:26:36 +0100
REM compiler GCC version 9.3.0
REM options -cpp -mtune=generic -march=x86-64 -g -O0
REM seed -1098372200 1471389563 -146243173 1674649455 2102358907 1084976955 -513294570 328101953 1007529472 526752739 -1997427655 1484567574 -1548986155 1067029203 -2112904762 1333592943 -1690002089 -903373895 -1838775776 1983994539 -2033995769 801240605 -1606774084 -762961872 -2094512832 744875982 1465270987 -2101393112 -128689942 -1463061855 -1273961901 -431081523 1761509253
REM
CELL 1.54180   50.00000   50.00000   50.00000   90.00000   90.00000   90.00000
LATT -1
SFAC C  
C      1  0.4772840000000  0.5223000000000  0.4152250000000 1.0
C      1  0.4772900000000  0.4776970000000  0.5847760000000 1.0
C      1  0.5225610000000  0.5223030000000  0.4152240000000 1.0
C      1  0.5225670000000  0.4777000000000  0.5847750000000 1.0
C      1  0.4772860000000  0.5222990000000  0.5847760000000 1.0
C      1  0.4772870000000  0.4776980000000  0.4152250000000 1.0
C      1  0.5225640000000  0.5223020000000  0.5847750000000 1.0
C      1  0.5225640000000  0.4777010000000  0.4152240000000 1.0
C      1  0.3974250000000  0.4839280000000  0.5271620000000 1.0
C      1  0.3974210000000  0.5160540000000  0.4728420000000 1.0
C      1  0.6024300000000  0.4839460000000  0.5271580000000 1.0
C      1  0.6024260000000  0.5160720000000  0.4728380000000 1.0
C      1  0.3974240000000  0.4839290000000  0.4728420000000 1.0
C      1  0.3974220000000  0.5160540000000  0.5271620000000 1.0
C      1  0.6024290000000  0.4839460000000  0.4728380000000 1.0
C      1  0.6024270000000  0.5160710000000  0.5271580000000 1.0
C      1  0.5821300000000  0.4439870000000  0.5326980000000 1.0
C      1  0.5821190000000  0.5560270000000  0.4673000000000 1.0
C      1  0.4177320000000  0.4439730000000  0.5327000000000 1.0
C      1  0.4177210000000  0.5560130000000  0.4673020000000 1.0
C      1  0.5821290000000  0.4439880000000  0.4672990000000 1.0
C      1  0.5821200000000  0.5560260000000  0.5326980000000 1.0
C      1  0.4177310000000  0.4439740000000  0.4673020000000 1.0
C      1  0.4177220000000  0.5560120000000  0.5327010000000 1.0
C      1  0.5149560000000  0.4846720000000  0.4851340000000 1.0
C      1  0.5149540000000  0.5153310000000  0.5148660000000 1.0
C      1  0.4848970000000  0.4846690000000  0.4851340000000 1.0
C      1  0.4848940000000  0.5153280000000  0.5148660000000 1.0
C      1  0.5149570000000  0.4846720000000  0.5148650000000 1.0
C      1  0.5149540000000  0.5153310000000  0.4851340000000 1.0
C      1  0.4848970000000  0.4846690000000  0.5148660000000 1.0
C      1  0.4848940000000  0.5153280000000  0.4851350000000 1.0
C      1  0.3958110000000  0.5425800000000  0.4854170000000 1.0
C      1  0.3958190000000  0.4574020000000  0.5145870000000 1.0
C      1  0.6040320000000  0.5425980000000  0.4854130000000 1.0
C      1  0.6040400000000  0.4574200000000  0.5145830000000 1.0
C      1  0.3958120000000  0.5425800000000  0.5145870000000 1.0
C      1  0.3958180000000  0.4574020000000  0.4854170000000 1.0
C      1  0.6040320000000  0.5425980000000  0.5145830000000 1.0
C      1  0.6040390000000  0.4574200000000  0.4854130000000 1.0
C      1  0.5279130000000  0.5768660000000  0.4448830000000 1.0
C      1  0.5279280000000  0.4231390000000  0.5551160000000 1.0
C      1  0.4719220000000  0.5768610000000  0.4448840000000 1.0
C      1  0.4719370000000  0.4231340000000  0.5551170000000 1.0
C      1  0.5279150000000  0.5768650000000  0.5551170000000 1.0
C      1  0.5279270000000  0.4231390000000  0.4448820000000 1.0
C      1  0.4719240000000  0.5768610000000  0.5551180000000 1.0
C      1  0.4719360000000  0.4231350000000  0.4448830000000 1.0
C      1  0.4062760000000  0.5149500000000  0.5552310000000 1.0
C      1  0.4062770000000  0.4850340000000  0.4447720000000 1.0
C      1  0.5935740000000  0.5149660000000  0.5552280000000 1.0
C      1  0.5935750000000  0.4850500000000  0.4447690000000 1.0
C      1  0.4062740000000  0.5149510000000  0.4447720000000 1.0
C      1  0.4062790000000  0.4850330000000  0.5552310000000 1.0
C      1  0.5935720000000  0.5149670000000  0.4447690000000 1.0
C      1  0.5935770000000  0.4850490000000  0.5552280000000 1.0
C      1  0.4859780000000  0.5500500000000  0.5868990000000 1.0
C      1  0.4859840000000  0.4499470000000  0.4131020000000 1.0
C      1  0.5138670000000  0.5500530000000  0.5868980000000 1.0
C      1  0.5138730000000  0.4499500000000  0.4131010000000 1.0
C      1  0.4859750000000  0.5500510000000  0.4131020000000 1.0
C      1  0.4859870000000  0.4499460000000  0.5868980000000 1.0
C      1  0.5138640000000  0.5500540000000  0.4131020000000 1.0
C      1  0.5138760000000  0.4499490000000  0.5868980000000 1.0
C      1  0.5515870000000  0.4768810000000  0.5948610000000 1.0
C      1  0.5515800000000  0.5231280000000  0.4051370000000 1.0
C      1  0.4482710000000  0.4768720000000  0.5948630000000 1.0
C      1  0.4482630000000  0.5231190000000  0.4051390000000 1.0
C      1  0.5515840000000  0.4768820000000  0.4051370000000 1.0
C      1  0.5515840000000  0.5231260000000  0.5948610000000 1.0
C      1  0.4482670000000  0.4768740000000  0.4051390000000 1.0
C      1  0.4482670000000  0.5231180000000  0.5948630000000 1.0
C      1  0.5569220000000  0.4602580000000  0.4835760000000 1.0
C      1  0.5569160000000  0.5397520000000  0.5164220000000 1.0
C      1  0.4429350000000  0.4602480000000  0.4835780000000 1.0
C      1  0.4429290000000  0.5397420000000  0.5164240000000 1.0
C      1  0.5569230000000  0.4602580000000  0.5164220000000 1.0
C      1  0.5569150000000  0.5397520000000  0.4835770000000 1.0
C      1  0.4429350000000  0.4602480000000  0.5164230000000 1.0
C      1  0.4429280000000  0.5397420000000  0.4835780000000 1.0
C      1  0.4372370000000  0.6028470000000  0.4631880000000 1.0
C      1  0.4372550000000  0.3971420000000  0.5368140000000 1.0
C      1  0.5625960000000  0.6028580000000  0.4631860000000 1.0
C      1  0.5626140000000  0.3971530000000  0.5368120000000 1.0
C      1  0.4372380000000  0.6028460000000  0.5368150000000 1.0
C      1  0.4372540000000  0.3971430000000  0.4631870000000 1.0
C      1  0.5625970000000  0.6028570000000  0.5368130000000 1.0
C      1  0.5626130000000  0.3971540000000  0.4631850000000 1.0
C      1  0.5379200000000  0.5637700000000  0.5775250000000 1.0
C      1  0.5379280000000  0.4362360000000  0.4224740000000 1.0
C      1  0.4619230000000  0.5637640000000  0.5775260000000 1.0
C      1  0.4619310000000  0.4362300000000  0.4224750000000 1.0
C      1  0.5379180000000  0.5637710000000  0.4224740000000 1.0
C      1  0.5379310000000  0.4362360000000  0.5775240000000 1.0
C      1  0.4619200000000  0.5637640000000  0.4224760000000 1.0
C      1  0.4619330000000  0.4362290000000  0.5775260000000 1.0
C      1  0.4384690000000  0.5460860000000  0.4196160000000 1.0
C      1  0.4384790000000  0.4539030000000  0.5803860000000 1.0
C      1  0.5613720000000  0.5460970000000  0.4196140000000 1.0
C      1  0.5613820000000  0.4539140000000  0.5803840000000 1.0
C      1  0.4384710000000  0.5460850000000  0.5803860000000 1.0
C      1  0.4384770000000  0.4539040000000  0.4196160000000 1.0
C      1  0.5613740000000  0.5460960000000  0.5803840000000 1.0
C      1  0.5613790000000  0.4539150000000  0.4196140000000 1.0
C      1  0.4842430000000  0.4139120000000  0.4850180000000 1.0
C      1  0.4842290000000  0.5860850000000  0.5149820000000 1.0
C      1  0.5156220000000  0.4139150000000  0.4850180000000 1.0
C      1  0.5156080000000  0.5860880000000  0.5149820000000 1.0
C      1  0.4842440000000  0.4139120000000  0.5149810000000 1.0
C      1  0.4842290000000  0.5860850000000  0.4850190000000 1.0
C      1  0.5156220000000  0.4139150000000  0.5149810000000 1.0
C      1  0.5156070000000  0.5860880000000  0.4850190000000 1.0
C      1  0.4691030000000  0.5334220000000  0.4688550000000 1.0
C      1  0.4691100000000  0.4665730000000  0.5311460000000 1.0
C      1  0.5307410000000  0.5334270000000  0.4688540000000 1.0
C      1  0.5307480000000  0.4665780000000  0.5311450000000 1.0
C      1  0.4691040000000  0.5334210000000  0.5311460000000 1.0
C      1  0.4691080000000  0.4665740000000  0.4688550000000 1.0
C      1  0.5307420000000  0.5334260000000  0.5311450000000 1.0
C      1  0.5307470000000  0.4665790000000  0.4688540000000 1.0
C      1  0.4696220000000  0.4859070000000  0.4454370000000 1.0
C      1  0.4696210000000  0.5140880000000  0.5545640000000 1.0
C      1  0.5302300000000  0.4859120000000  0.4454360000000 1.0
C      1  0.5302290000000  0.5140930000000  0.5545630000000 1.0
C      1  0.4696240000000  0.4859060000000  0.5545640000000 1.0
C      1  0.4696190000000  0.5140890000000  0.4454370000000 1.0
C      1  0.5302310000000  0.4859110000000  0.5545630000000 1.0
C      1  0.5302270000000  0.5140940000000  0.4454360000000 1.0
C      1  0.5739750000000  0.5145090000000  0.4847860000000 1.0
C      1  0.5739780000000  0.4855040000000  0.5152120000000 1.0
C      1  0.4258730000000  0.5144960000000  0.4847880000000 1.0
C      1  0.4258760000000  0.4854910000000  0.5152140000000 1.0
C      1  0.5739750000000  0.5145080000000  0.5152120000000 1.0
C      1  0.5739770000000  0.4855040000000  0.4847860000000 1.0
C      1  0.4258740000000  0.5144960000000  0.5152140000000 1.0
C      1  0.4258760000000  0.4854920000000  0.4847880000000 1.0
C      1  0.4186790000000  0.4146970000000  0.4644350000000 1.0
C      1  0.4186660000000  0.5852890000000  0.5355680000000 1.0
C      1  0.5811850000000  0.4147110000000  0.4644320000000 1.0
C      1  0.5811720000000  0.5853030000000  0.5355650000000 1.0
C      1  0.4186810000000  0.4146960000000  0.5355670000000 1.0
C      1  0.4186650000000  0.5852900000000  0.4644360000000 1.0
C      1  0.5811860000000  0.4147100000000  0.5355640000000 1.0
C      1  0.5811700000000  0.5853040000000  0.4644330000000 1.0
C      1  0.5811410000000  0.5401410000000  0.5602600000000 1.0
C      1  0.5811460000000  0.4598730000000  0.4397370000000 1.0
C      1  0.4187050000000  0.5401270000000  0.5602630000000 1.0
C      1  0.4187100000000  0.4598590000000  0.4397400000000 1.0
C      1  0.5811390000000  0.5401420000000  0.4397380000000 1.0
C      1  0.5811480000000  0.4598720000000  0.5602590000000 1.0
C      1  0.4187030000000  0.5401280000000  0.4397410000000 1.0
C      1  0.4187120000000  0.4598580000000  0.5602620000000 1.0
C      1  0.5354110000000  0.4030040000000  0.4641300000000 1.0
C      1  0.5353950000000  0.5970020000000  0.5358690000000 1.0
C      1  0.4644560000000  0.4029980000000  0.4641310000000 1.0
C      1  0.4644400000000  0.5969960000000  0.5358700000000 1.0
C      1  0.5354120000000  0.4030040000000  0.5358680000000 1.0
C      1  0.5353940000000  0.5970020000000  0.4641310000000 1.0
C      1  0.4644570000000  0.4029980000000  0.5358690000000 1.0
C      1  0.4644390000000  0.5969960000000  0.4641320000000 1.0
C      1  0.5147770000000  0.5595850000000  0.4652790000000 1.0
C      1  0.5147880000000  0.4404170000000  0.5347200000000 1.0
C      1  0.4850630000000  0.5595830000000  0.4652800000000 1.0
C      1  0.4850740000000  0.4404150000000  0.5347210000000 1.0
C      1  0.5147780000000  0.5595850000000  0.5347210000000 1.0
C      1  0.5147870000000  0.4404180000000  0.4652780000000 1.0
C      1  0.4850640000000  0.5595820000000  0.5347220000000 1.0
C      1  0.4850730000000  0.4404150000000  0.4652790000000 1.0
C      1  0.4359740000000  0.4999940000000  0.6015190000000 1.0
C      1  0.4359710000000  0.4999950000000  0.3984830000000 1.0
C      1  0.5638770000000  0.5000060000000  0.3984810000000 1.0
C      1  0.5638800000000  0.5000050000000  0.6015170000000 1.0
C      1  0.4999240000000  0.5000010000000  0.4072030000000 1.0
C      1  0.4999270000000  0.4999990000000  0.5927970000000 1.0
END
