TITL C-150262-3295-1 712.163631995196 125000 -765.45061899092 0 0 112 (C1) n - 1
REM
REM in /rds/project/t2_vol4/rds-t2-cs072/BORA/CARBON/from-Arr/AIRSS/Generating-Clusters/GAP-ML-2020/Higher-Symm/SD-CG/HFTN-CG
REM
REM
REM
REM
REM
REM ./C.cell (b20cbc046b6831c77cfcea5457e17084)
REM AIRSS Version 0.9.1 bugfix July 2018 build 013d7b7c2542+ Fri, 06 Jul 2018 19:26:36 +0100
REM compiler GCC version 9.3.0
REM options -cpp -mtune=generic -march=x86-64 -g -O0
REM seed 546070788 -658815870 -1562815548 -1634991303 -274849474 -967713050 -1951156101 658030232 583266314 -421936908 13673303 1057364981 1945430968 686089114 -986973922 33485280 889758613 -2088658089 1211859661 -1450532882 347548122 -43859595 751078553 792116384 940899950 -1438018718 -1379967916 -1567168789 185580096 -1185903301 -1313026 1277251453 1961352160
REM
CELL 1.54180   50.00000   50.00000   50.00000   90.00000   90.00000   90.00000
LATT -1
SFAC C  
C      1  0.5261960000000  0.5877420000000  0.4810340000000 1.0
C      1  0.5200310000000  0.5836370000000  0.5213530000000 1.0
C      1  0.4742680000000  0.5839880000000  0.5461530000000 1.0
C      1  0.4762920000000  0.5909970000000  0.4996340000000 1.0
C      1  0.4889330000000  0.5767760000000  0.4521740000000 1.0
C      1  0.4565650000000  0.4038640000000  0.4857120000000 1.0
C      1  0.4857520000000  0.4160950000000  0.5202830000000 1.0
C      1  0.5299170000000  0.4179310000000  0.5491210000000 1.0
C      1  0.5324910000000  0.4139050000000  0.5026450000000 1.0
C      1  0.5002360000000  0.4148940000000  0.4756460000000 1.0
C      1  0.5510340000000  0.5323330000000  0.5575450000000 1.0
C      1  0.4697140000000  0.5262200000000  0.5666660000000 1.0
C      1  0.4290450000000  0.5262020000000  0.4892620000000 1.0
C      1  0.4868830000000  0.5217330000000  0.4272590000000 1.0
C      1  0.5623930000000  0.5202590000000  0.4633950000000 1.0
C      1  0.4481150000000  0.4690870000000  0.5576700000000 1.0
C      1  0.5266760000000  0.4766030000000  0.5675380000000 1.0
C      1  0.5768110000000  0.4653420000000  0.4855000000000 1.0
C      1  0.5103560000000  0.4637860000000  0.4237550000000 1.0
C      1  0.4297400000000  0.4681450000000  0.4675830000000 1.0
C      1  0.4484180000000  0.5067200000000  0.5307010000000 1.0
C      1  0.4562650000000  0.5050460000000  0.4592040000000 1.0
C      1  0.5245980000000  0.5016380000000  0.4433420000000 1.0
C      1  0.5523500000000  0.4996950000000  0.5031350000000 1.0
C      1  0.5130880000000  0.5032870000000  0.5667830000000 1.0
C      1  0.5439120000000  0.4952760000000  0.5302410000000 1.0
C      1  0.5501080000000  0.4935290000000  0.4560210000000 1.0
C      1  0.4764070000000  0.4967570000000  0.4390830000000 1.0
C      1  0.4360410000000  0.5003650000000  0.5043600000000 1.0
C      1  0.4837190000000  0.4999340000000  0.5660300000000 1.0
C      1  0.5586220000000  0.5425330000000  0.4427230000000 1.0
C      1  0.5669170000000  0.5450330000000  0.5382870000000 1.0
C      1  0.4862870000000  0.5486500000000  0.5801020000000 1.0
C      1  0.4210670000000  0.5479490000000  0.5087190000000 1.0
C      1  0.4645320000000  0.5427000000000  0.4228600000000 1.0
C      1  0.4386150000000  0.4508770000000  0.4479580000000 1.0
C      1  0.4329860000000  0.4512430000000  0.5426560000000 1.0
C      1  0.5114200000000  0.4539220000000  0.5808650000000 1.0
C      1  0.5841220000000  0.4559540000000  0.5109020000000 1.0
C      1  0.5320270000000  0.4463180000000  0.4280220000000 1.0
C      1  0.5564700000000  0.4897920000000  0.5743150000000 1.0
C      1  0.4449430000000  0.4860790000000  0.5810050000000 1.0
C      1  0.4071630000000  0.4839640000000  0.4748990000000 1.0
C      1  0.4965590000000  0.4792660000000  0.4032940000000 1.0
C      1  0.5906980000000  0.4809950000000  0.4660640000000 1.0
C      1  0.4408290000000  0.5141240000000  0.5739860000000 1.0
C      1  0.5528750000000  0.5165550000000  0.5821460000000 1.0
C      1  0.5882640000000  0.5084820000000  0.4742730000000 1.0
C      1  0.5041510000000  0.5074680000000  0.4047670000000 1.0
C      1  0.4129530000000  0.5123460000000  0.4674220000000 1.0
C      1  0.4269650000000  0.5204530000000  0.5502160000000 1.0
C      1  0.4301090000000  0.5149870000000  0.4439560000000 1.0
C      1  0.5295850000000  0.5143560000000  0.4146970000000 1.0
C      1  0.5820520000000  0.5121680000000  0.5019210000000 1.0
C      1  0.5235990000000  0.5196870000000  0.5904920000000 1.0
C      1  0.5680320000000  0.4862900000000  0.5489820000000 1.0
C      1  0.5711260000000  0.4753900000000  0.4441670000000 1.0
C      1  0.4697730000000  0.4772250000000  0.4173740000000 1.0
C      1  0.4133970000000  0.4802660000000  0.5040990000000 1.0
C      1  0.4736950000000  0.4831560000000  0.5896720000000 1.0
C      1  0.4226650000000  0.5459620000000  0.5368320000000 1.0
C      1  0.4378350000000  0.5316150000000  0.4244620000000 1.0
C      1  0.5410920000000  0.5399530000000  0.4212110000000 1.0
C      1  0.5809440000000  0.5381840000000  0.5145210000000 1.0
C      1  0.5079070000000  0.5405610000000  0.5954820000000 1.0
C      1  0.5786060000000  0.4623870000000  0.5377620000000 1.0
C      1  0.5586910000000  0.4504750000000  0.4391950000000 1.0
C      1  0.4588960000000  0.4532800000000  0.4275610000000 1.0
C      1  0.4202500000000  0.4556170000000  0.5167040000000 1.0
C      1  0.4896330000000  0.4624140000000  0.5956640000000 1.0
C      1  0.5465320000000  0.4202180000000  0.5265680000000 1.0
C      1  0.4985430000000  0.4354420000000  0.5368860000000 1.0
C      1  0.4586890000000  0.4165140000000  0.5107490000000 1.0
C      1  0.4737230000000  0.4156550000000  0.4656410000000 1.0
C      1  0.5274940000000  0.4310960000000  0.4780620000000 1.0
C      1  0.4600600000000  0.5844600000000  0.5229620000000 1.0
C      1  0.5116670000000  0.5656050000000  0.5402920000000 1.0
C      1  0.5400180000000  0.5710860000000  0.5020300000000 1.0
C      1  0.5197670000000  0.5790160000000  0.4549450000000 1.0
C      1  0.4771420000000  0.5724100000000  0.4789660000000 1.0
C      1  0.4789370000000  0.5423850000000  0.4887570000000 1.0
C      1  0.5051110000000  0.5346170000000  0.4773730000000 1.0
C      1  0.5263040000000  0.5418320000000  0.4970430000000 1.0
C      1  0.5136300000000  0.5375990000000  0.5258420000000 1.0
C      1  0.4853790000000  0.5349870000000  0.5174160000000 1.0
C      1  0.5229650000000  0.4608210000000  0.4901310000000 1.0
C      1  0.5005140000000  0.4727580000000  0.4754250000000 1.0
C      1  0.4779960000000  0.4770090000000  0.4914080000000 1.0
C      1  0.4841510000000  0.4752680000000  0.5186820000000 1.0
C      1  0.5095490000000  0.4602060000000  0.5210230000000 1.0
C      1  0.5390800000000  0.5623580000000  0.4412360000000 1.0
C      1  0.5653240000000  0.5620870000000  0.5157360000000 1.0
C      1  0.4920260000000  0.5701750000000  0.5608960000000 1.0
C      1  0.4358930000000  0.5678790000000  0.5216720000000 1.0
C      1  0.4733180000000  0.5673180000000  0.4318960000000 1.0
C      1  0.4600620000000  0.4327080000000  0.4474890000000 1.0
C      1  0.4380290000000  0.4334950000000  0.5213530000000 1.0
C      1  0.5106100000000  0.4309660000000  0.5627720000000 1.0
C      1  0.5700800000000  0.4373800000000  0.5267390000000 1.0
C      1  0.5406740000000  0.4331150000000  0.4518870000000 1.0
C      1  0.4666710000000  0.5289800000000  0.5358510000000 1.0
C      1  0.4562390000000  0.5297470000000  0.4758760000000 1.0
C      1  0.5080500000000  0.5256660000000  0.4513330000000 1.0
C      1  0.5444420000000  0.5225690000000  0.4878970000000 1.0
C      1  0.5280220000000  0.5175280000000  0.5439160000000 1.0
C      1  0.5286890000000  0.4720510000000  0.5381640000000 1.0
C      1  0.5485780000000  0.4778090000000  0.4840330000000 1.0
C      1  0.5024340000000  0.4820970000000  0.4479060000000 1.0
C      1  0.4521170000000  0.4860010000000  0.4814090000000 1.0
C      1  0.4684990000000  0.4859440000000  0.5419390000000 1.0
C      1  0.5047380000000  0.4056730000000  0.5021590000000 1.0
C      1  0.5046060000000  0.5947230000000  0.5002600000000 1.0
END
