TITL C-154515-3107-4 383.840436175842 125000 -564.036424870646 0 0 83 (C1) n - 1
REM
REM in /rds/project/t2_vol4/rds-t2-cs072/BORA/CARBON/from-Arr/AIRSS/Generating-Clusters/GAP-ML-2020/Higher-Symm/SD-CG/HFTN-CG
REM
REM
REM
REM
REM
REM ./C.cell (b20cbc046b6831c77cfcea5457e17084)
REM AIRSS Version 0.9.1 bugfix July 2018 build 013d7b7c2542+ Fri, 06 Jul 2018 19:26:36 +0100
REM compiler GCC version 9.3.0
REM options -cpp -mtune=generic -march=x86-64 -g -O0
REM seed -1805663410 656015370 1542159929 1587570508 1224241952 2035856306 2080224635 1058644720 1855501666 -308050677 651128447 -1701636529 884378497 907671822 2018668783 1564323280 848245833 -299392889 -86845943 -300169693 -567475641 1234382213 945778523 333233518 -507476125 -634405363 -842375858 -1511188627 194639102 -724982264 -1825074932 -388823442 1624151751
REM
CELL 1.54180   50.00000   50.00000   50.00000   90.00000   90.00000   90.00000
LATT -1
SFAC C  
C      1  0.4524100000000  0.4770490000000  0.4458320000000 1.0
C      1  0.4954200000000  0.4494860000000  0.4488430000000 1.0
C      1  0.5445500000000  0.4608300000000  0.4482400000000 1.0
C      1  0.5568980000000  0.5048510000000  0.4453320000000 1.0
C      1  0.5273970000000  0.5380170000000  0.4477010000000 1.0
C      1  0.4838700000000  0.5504280000000  0.4510210000000 1.0
C      1  0.4451760000000  0.5234470000000  0.4486750000000 1.0
C      1  0.5586810000000  0.4748170000000  0.5155670000000 1.0
C      1  0.5596940000000  0.5369220000000  0.5120080000000 1.0
C      1  0.5126160000000  0.5619850000000  0.5124430000000 1.0
C      1  0.4571030000000  0.5439330000000  0.5158780000000 1.0
C      1  0.4307450000000  0.4954080000000  0.5152440000000 1.0
C      1  0.4537150000000  0.4306430000000  0.5291730000000 1.0
C      1  0.5191420000000  0.4260470000000  0.5255180000000 1.0
C      1  0.5134900000000  0.5579740000000  0.5418730000000 1.0
C      1  0.4678300000000  0.5354800000000  0.5419270000000 1.0
C      1  0.4449020000000  0.4915570000000  0.5410990000000 1.0
C      1  0.4642990000000  0.4453370000000  0.5523340000000 1.0
C      1  0.5147950000000  0.4453680000000  0.5461950000000 1.0
C      1  0.5466370000000  0.4853640000000  0.5415010000000 1.0
C      1  0.5472650000000  0.5384120000000  0.5400750000000 1.0
C      1  0.4558040000000  0.4285300000000  0.4675670000000 1.0
C      1  0.5328910000000  0.4231030000000  0.4723490000000 1.0
C      1  0.5886170000000  0.4772940000000  0.4735960000000 1.0
C      1  0.5730820000000  0.5512160000000  0.4633260000000 1.0
C      1  0.5191170000000  0.5817620000000  0.4744950000000 1.0
C      1  0.4453830000000  0.5671210000000  0.4808550000000 1.0
C      1  0.4085980000000  0.4853230000000  0.4677260000000 1.0
C      1  0.4691540000000  0.4917530000000  0.4298780000000 1.0
C      1  0.5035120000000  0.4678190000000  0.4295990000000 1.0
C      1  0.5317750000000  0.4723680000000  0.4259550000000 1.0
C      1  0.5371460000000  0.5007270000000  0.4256660000000 1.0
C      1  0.5127910000000  0.5179590000000  0.4321120000000 1.0
C      1  0.4867350000000  0.5338220000000  0.4288250000000 1.0
C      1  0.4622790000000  0.5186200000000  0.4265340000000 1.0
C      1  0.4503860000000  0.4981290000000  0.4895970000000 1.0
C      1  0.4713500000000  0.4766900000000  0.4844260000000 1.0
C      1  0.5194880000000  0.4749140000000  0.4845350000000 1.0
C      1  0.5438960000000  0.4894360000000  0.4902520000000 1.0
C      1  0.5426250000000  0.5213210000000  0.4907890000000 1.0
C      1  0.5153340000000  0.5364160000000  0.4927400000000 1.0
C      1  0.4655660000000  0.5246030000000  0.4922360000000 1.0
C      1  0.5384750000000  0.5588100000000  0.5551860000000 1.0
C      1  0.4906530000000  0.5464280000000  0.5511790000000 1.0
C      1  0.4624330000000  0.5097560000000  0.5524230000000 1.0
C      1  0.4434840000000  0.4650810000000  0.5489100000000 1.0
C      1  0.4903570000000  0.4502640000000  0.5602250000000 1.0
C      1  0.5261890000000  0.4708720000000  0.5537880000000 1.0
C      1  0.5578160000000  0.5111840000000  0.5447650000000 1.0
C      1  0.6030680000000  0.4834050000000  0.4935990000000 1.0
C      1  0.5788670000000  0.5713120000000  0.4778620000000 1.0
C      1  0.4978630000000  0.5977970000000  0.4815760000000 1.0
C      1  0.4204840000000  0.5633800000000  0.4915120000000 1.0
C      1  0.4030260000000  0.4691920000000  0.4867460000000 1.0
C      1  0.4575860000000  0.4100140000000  0.4842920000000 1.0
C      1  0.5465310000000  0.4087010000000  0.4878870000000 1.0
C      1  0.4310910000000  0.4495750000000  0.5266210000000 1.0
C      1  0.4966760000000  0.4164760000000  0.5137060000000 1.0
C      1  0.5618920000000  0.4469830000000  0.5128760000000 1.0
C      1  0.5778790000000  0.5159300000000  0.5238250000000 1.0
C      1  0.5355530000000  0.5754020000000  0.4987700000000 1.0
C      1  0.4641880000000  0.5701680000000  0.5035920000000 1.0
C      1  0.4156070000000  0.5198580000000  0.5123330000000 1.0
C      1  0.5108600000000  0.5546050000000  0.4643100000000 1.0
C      1  0.4583570000000  0.5435300000000  0.4664890000000 1.0
C      1  0.4353890000000  0.4969350000000  0.4617220000000 1.0
C      1  0.4674500000000  0.4554670000000  0.4612040000000 1.0
C      1  0.5215120000000  0.4486740000000  0.4657050000000 1.0
C      1  0.5620770000000  0.4808950000000  0.4626820000000 1.0
C      1  0.5529960000000  0.5297380000000  0.4605220000000 1.0
C      1  0.5449600000000  0.4261830000000  0.5110310000000 1.0
C      1  0.5843280000000  0.4918350000000  0.5119660000000 1.0
C      1  0.5607570000000  0.5641330000000  0.4986440000000 1.0
C      1  0.4896640000000  0.5802770000000  0.5021500000000 1.0
C      1  0.4261690000000  0.5439110000000  0.5101510000000 1.0
C      1  0.4179900000000  0.4686620000000  0.5102730000000 1.0
C      1  0.4698860000000  0.4161880000000  0.5102520000000 1.0
C      1  0.4835230000000  0.5006990000000  0.5699250000000 1.0
C      1  0.4944560000000  0.5163520000000  0.4922730000000 1.0
C      1  0.5006190000000  0.4767860000000  0.5698890000000 1.0
C      1  0.4965230000000  0.4912550000000  0.4773880000000 1.0
C      1  0.4962200000000  0.4932000000000  0.4430510000000 1.0
C      1  0.4930540000000  0.4918470000000  0.5934680000000 1.0
END
