TITL C-15926-709-7 -11.2676475086422 125000 -684.237036969241 0 0 100 (C2h) n - 1
REM
REM in /rds/project/t2_vol4/rds-t2-cs072/BORA/CARBON/from-Arr/AIRSS/Generating-Clusters/GAP-ML-2020/Higher-Symm/SD-CG/HFTN-CG
REM
REM
REM
REM
REM
REM ./C.cell (b20cbc046b6831c77cfcea5457e17084)
REM AIRSS Version 0.9.1 bugfix July 2018 build 013d7b7c2542+ Fri, 06 Jul 2018 19:26:36 +0100
REM compiler GCC version 9.3.0
REM options -cpp -mtune=generic -march=x86-64 -g -O0
REM seed -199191618 -1509869466 306117270 -571447729 -214449627 1765282345 1649567614 -1592979152 -1665087931 1448413924 -2058959961 104290735 1705882070 -1538214148 171227224 -60424721 -1150949204 -2060370666 449899362 1076437410 12294423 548314862 -759130507 -1497340744 -35388070 -1051712568 527243477 1219363197 822657774 -1656296803 281896359 -236988654 -1406615006
REM
CELL 1.54180   50.00000   50.00000   50.00000   90.00000   90.00000   90.00000
LATT -1
SFAC C  
C      1  0.4871810000000  0.4461230000000  0.5825230000000 1.0
C      1  0.4871810000000  0.5538790000000  0.4174780000000 1.0
C      1  0.5128190000000  0.4461210000000  0.5825220000000 1.0
C      1  0.5128190000000  0.5538770000000  0.4174770000000 1.0
C      1  0.4850670000000  0.4959760000000  0.4702190000000 1.0
C      1  0.4850710000000  0.5040260000000  0.5297820000000 1.0
C      1  0.5149290000000  0.4959740000000  0.4702180000000 1.0
C      1  0.5149330000000  0.5040240000000  0.5297810000000 1.0
C      1  0.5146790000000  0.4906500000000  0.5740260000000 1.0
C      1  0.5146730000000  0.5093480000000  0.4259730000000 1.0
C      1  0.4853270000000  0.4906520000000  0.5740270000000 1.0
C      1  0.4853210000000  0.5093500000000  0.4259740000000 1.0
C      1  0.4437960000000  0.4842720000000  0.5266980000000 1.0
C      1  0.4437960000000  0.5157360000000  0.4733070000000 1.0
C      1  0.5562040000000  0.4842640000000  0.5266930000000 1.0
C      1  0.5562040000000  0.5157280000000  0.4733020000000 1.0
C      1  0.5628190000000  0.4407800000000  0.5457270000000 1.0
C      1  0.5628230000000  0.5592100000000  0.4542670000000 1.0
C      1  0.4371770000000  0.4407900000000  0.5457330000000 1.0
C      1  0.4371810000000  0.5592200000000  0.4542730000000 1.0
C      1  0.4356420000000  0.4400060000000  0.4717140000000 1.0
C      1  0.4356540000000  0.5600040000000  0.5282920000000 1.0
C      1  0.5643460000000  0.4399960000000  0.4717080000000 1.0
C      1  0.5643580000000  0.5599940000000  0.5282860000000 1.0
C      1  0.5273320000000  0.4296450000000  0.5162060000000 1.0
C      1  0.5273410000000  0.5703510000000  0.4837910000000 1.0
C      1  0.4726590000000  0.4296490000000  0.5162090000000 1.0
C      1  0.4726680000000  0.5703550000000  0.4837940000000 1.0
C      1  0.4258730000000  0.5260310000000  0.4966140000000 1.0
C      1  0.4258690000000  0.4739800000000  0.5033940000000 1.0
C      1  0.5741310000000  0.5260200000000  0.4966060000000 1.0
C      1  0.5741270000000  0.4739690000000  0.5033860000000 1.0
C      1  0.5578530000000  0.5154410000000  0.5216540000000 1.0
C      1  0.5578480000000  0.4845500000000  0.4783400000000 1.0
C      1  0.4421520000000  0.5154500000000  0.5216600000000 1.0
C      1  0.4421470000000  0.4845590000000  0.4783460000000 1.0
C      1  0.5272820000000  0.5215680000000  0.4823970000000 1.0
C      1  0.5272810000000  0.4784270000000  0.5176000000000 1.0
C      1  0.4727190000000  0.5215730000000  0.4824000000000 1.0
C      1  0.4727180000000  0.4784320000000  0.5176030000000 1.0
C      1  0.4376470000000  0.4647350000000  0.4573900000000 1.0
C      1  0.4376570000000  0.5352750000000  0.5426160000000 1.0
C      1  0.5623430000000  0.4647250000000  0.4573840000000 1.0
C      1  0.5623530000000  0.5352650000000  0.5426100000000 1.0
C      1  0.6014540000000  0.5125610000000  0.4983510000000 1.0
C      1  0.6014520000000  0.4874230000000  0.5016390000000 1.0
C      1  0.3985480000000  0.5125770000000  0.4983610000000 1.0
C      1  0.3985460000000  0.4874390000000  0.5016490000000 1.0
C      1  0.5283590000000  0.4756110000000  0.4865620000000 1.0
C      1  0.5283640000000  0.5243840000000  0.5134350000000 1.0
C      1  0.4716360000000  0.4756160000000  0.4865650000000 1.0
C      1  0.4716410000000  0.5243890000000  0.5134380000000 1.0
C      1  0.4306250000000  0.5549930000000  0.5011190000000 1.0
C      1  0.4306170000000  0.4450180000000  0.4988880000000 1.0
C      1  0.5693830000000  0.5549820000000  0.5011120000000 1.0
C      1  0.5693750000000  0.4450070000000  0.4988810000000 1.0
C      1  0.4442430000000  0.5680900000000  0.4796610000000 1.0
C      1  0.4442340000000  0.4319190000000  0.5203440000000 1.0
C      1  0.5557660000000  0.5680810000000  0.4796560000000 1.0
C      1  0.5557570000000  0.4319100000000  0.5203390000000 1.0
C      1  0.5251970000000  0.5112410000000  0.5588750000000 1.0
C      1  0.5251890000000  0.4887550000000  0.4411230000000 1.0
C      1  0.4748110000000  0.5112450000000  0.5588770000000 1.0
C      1  0.4748030000000  0.4887590000000  0.4411250000000 1.0
C      1  0.5147430000000  0.5506730000000  0.5257370000000 1.0
C      1  0.5147330000000  0.4493250000000  0.4742610000000 1.0
C      1  0.4852670000000  0.5506750000000  0.5257390000000 1.0
C      1  0.4852570000000  0.4493270000000  0.4742630000000 1.0
C      1  0.4593280000000  0.4649890000000  0.4388820000000 1.0
C      1  0.4593400000000  0.5350170000000  0.5611220000000 1.0
C      1  0.5406600000000  0.4649830000000  0.4388780000000 1.0
C      1  0.5406720000000  0.5350110000000  0.5611180000000 1.0
C      1  0.4694960000000  0.4665620000000  0.5721300000000 1.0
C      1  0.4694940000000  0.5334420000000  0.4278740000000 1.0
C      1  0.5305060000000  0.4665580000000  0.5721260000000 1.0
C      1  0.5305040000000  0.5334380000000  0.4278700000000 1.0
C      1  0.4862530000000  0.5467770000000  0.4745000000000 1.0
C      1  0.4862480000000  0.4532250000000  0.5255010000000 1.0
C      1  0.5137520000000  0.5467750000000  0.4744990000000 1.0
C      1  0.5137470000000  0.4532230000000  0.5255000000000 1.0
C      1  0.5325690000000  0.4037450000000  0.4757900000000 1.0
C      1  0.5325860000000  0.5962500000000  0.5242060000000 1.0
C      1  0.4674140000000  0.4037500000000  0.4757940000000 1.0
C      1  0.4674310000000  0.5962550000000  0.5242100000000 1.0
C      1  0.4844270000000  0.5790750000000  0.5080020000000 1.0
C      1  0.4844140000000  0.4209270000000  0.4920000000000 1.0
C      1  0.5155860000000  0.5790730000000  0.5080000000000 1.0
C      1  0.5155730000000  0.4209250000000  0.4919980000000 1.0
C      1  0.5549050000000  0.5348500000000  0.4462270000000 1.0
C      1  0.5549050000000  0.4651410000000  0.5537680000000 1.0
C      1  0.4450950000000  0.5348590000000  0.4462320000000 1.0
C      1  0.4450950000000  0.4651500000000  0.5537730000000 1.0
C      1  0.4709420000000  0.5587860000000  0.5517360000000 1.0
C      1  0.4709270000000  0.4412180000000  0.4482670000000 1.0
C      1  0.5290730000000  0.5587820000000  0.5517330000000 1.0
C      1  0.5290580000000  0.4412140000000  0.4482640000000 1.0
C      1  0.5470590000000  0.4207040000000  0.4598060000000 1.0
C      1  0.5470750000000  0.5792890000000  0.5401890000000 1.0
C      1  0.4529250000000  0.4207110000000  0.4598110000000 1.0
C      1  0.4529410000000  0.5792960000000  0.5401940000000 1.0
END
