TITL C-150248-3348-9 -0.075358986917203 125000 -690.042508386845 0 0 99 (C1) n - 1
REM
REM in /rds/project/t2_vol4/rds-t2-cs072/BORA/CARBON/from-Arr/AIRSS/Generating-Clusters/GAP-ML-2020/Higher-Symm/SD-CG/HFTN-CG
REM
REM
REM
REM
REM
REM ./C.cell (b20cbc046b6831c77cfcea5457e17084)
REM AIRSS Version 0.9.1 bugfix July 2018 build 013d7b7c2542+ Fri, 06 Jul 2018 19:26:36 +0100
REM compiler GCC version 9.3.0
REM options -cpp -mtune=generic -march=x86-64 -g -O0
REM seed -1395189950 -345409631 -247417134 1168532107 -175612670 -149506826 -199741335 1496221883 204599344 -294721832 -1964332069 391417110 -1434583931 403086186 -321812356 1199839958 -127556962 206369632 2087779099 969532930 1608511947 -1786423255 -1303804471 -1829174667 1384474315 1982682532 -1581446260 -1926588138 -1453396395 -191560417 -1505871693 -1994536411 1301888792
REM
CELL 1.54180   50.00000   50.00000   50.00000   90.00000   90.00000   90.00000
LATT -1
SFAC C  
C      1  0.5233320000000  0.5187190000000  0.4808180000000 1.0
C      1  0.5043530000000  0.5331900000000  0.4940400000000 1.0
C      1  0.5237840000000  0.5179150000000  0.5107230000000 1.0
C      1  0.5041890000000  0.5085200000000  0.5316030000000 1.0
C      1  0.5228400000000  0.4906550000000  0.5229610000000 1.0
C      1  0.5095310000000  0.4692130000000  0.5134580000000 1.0
C      1  0.5245960000000  0.4660600000000  0.4920560000000 1.0
C      1  0.5153900000000  0.4722020000000  0.4674890000000 1.0
C      1  0.5140770000000  0.5006680000000  0.4619270000000 1.0
C      1  0.4969860000000  0.5470270000000  0.5621680000000 1.0
C      1  0.4971680000000  0.4973200000000  0.5781840000000 1.0
C      1  0.4968710000000  0.4492800000000  0.5573240000000 1.0
C      1  0.4983350000000  0.4202320000000  0.5108670000000 1.0
C      1  0.4985430000000  0.4285640000000  0.4563450000000 1.0
C      1  0.4971610000000  0.4761980000000  0.4219010000000 1.0
C      1  0.4953600000000  0.5332950000000  0.4299770000000 1.0
C      1  0.4960970000000  0.5713650000000  0.4659940000000 1.0
C      1  0.4966470000000  0.5760510000000  0.5178840000000 1.0
C      1  0.4227780000000  0.4608280000000  0.5070920000000 1.0
C      1  0.4228180000000  0.4674020000000  0.4787080000000 1.0
C      1  0.4233600000000  0.4902800000000  0.4614980000000 1.0
C      1  0.4225960000000  0.5193030000000  0.4627640000000 1.0
C      1  0.4222760000000  0.5404810000000  0.4825430000000 1.0
C      1  0.4223580000000  0.5440420000000  0.5114160000000 1.0
C      1  0.4223920000000  0.5280400000000  0.5364230000000 1.0
C      1  0.4226230000000  0.5002990000000  0.5447910000000 1.0
C      1  0.4228540000000  0.4738320000000  0.5330890000000 1.0
C      1  0.5393870000000  0.5685050000000  0.4921870000000 1.0
C      1  0.5374070000000  0.5566970000000  0.5366600000000 1.0
C      1  0.5396250000000  0.5202290000000  0.5646460000000 1.0
C      1  0.5379040000000  0.4741040000000  0.5630330000000 1.0
C      1  0.5400450000000  0.4394630000000  0.5321270000000 1.0
C      1  0.5377620000000  0.4326970000000  0.4857460000000 1.0
C      1  0.5361520000000  0.4596520000000  0.4479730000000 1.0
C      1  0.5340880000000  0.5040230000000  0.4367850000000 1.0
C      1  0.5366560000000  0.5480730000000  0.4505620000000 1.0
C      1  0.4834340000000  0.5645880000000  0.5420780000000 1.0
C      1  0.4832240000000  0.5238610000000  0.5751140000000 1.0
C      1  0.4836120000000  0.4717520000000  0.5708350000000 1.0
C      1  0.4820000000000  0.4361780000000  0.5330430000000 1.0
C      1  0.4861620000000  0.4248240000000  0.4833290000000 1.0
C      1  0.4822720000000  0.4536390000000  0.4383380000000 1.0
C      1  0.4816400000000  0.5041110000000  0.4274200000000 1.0
C      1  0.4821910000000  0.5544080000000  0.4453860000000 1.0
C      1  0.4824520000000  0.5787060000000  0.4915910000000 1.0
C      1  0.5600870000000  0.4611760000000  0.5205590000000 1.0
C      1  0.5513700000000  0.4584320000000  0.4914530000000 1.0
C      1  0.5593970000000  0.4723840000000  0.4658590000000 1.0
C      1  0.5580260000000  0.5039060000000  0.4568060000000 1.0
C      1  0.5484810000000  0.5294840000000  0.4706440000000 1.0
C      1  0.5593690000000  0.5444880000000  0.4949060000000 1.0
C      1  0.5476920000000  0.5333580000000  0.5211460000000 1.0
C      1  0.5591000000000  0.5131430000000  0.5413610000000 1.0
C      1  0.5484840000000  0.4846800000000  0.5371190000000 1.0
C      1  0.4408510000000  0.4567900000000  0.5501910000000 1.0
C      1  0.4390820000000  0.4367390000000  0.5101280000000 1.0
C      1  0.4399640000000  0.4477270000000  0.4651460000000 1.0
C      1  0.4402760000000  0.4828410000000  0.4381640000000 1.0
C      1  0.4403730000000  0.5279900000000  0.4405010000000 1.0
C      1  0.4406050000000  0.5609390000000  0.4718160000000 1.0
C      1  0.4410560000000  0.5665550000000  0.5165130000000 1.0
C      1  0.4413700000000  0.5417380000000  0.5545860000000 1.0
C      1  0.4414520000000  0.4984840000000  0.5675760000000 1.0
C      1  0.5896520000000  0.5400860000000  0.4960560000000 1.0
C      1  0.5987580000000  0.5341760000000  0.5217270000000 1.0
C      1  0.5892310000000  0.5127910000000  0.5372070000000 1.0
C      1  0.5995270000000  0.4866220000000  0.5363540000000 1.0
C      1  0.5902100000000  0.4669080000000  0.5189770000000 1.0
C      1  0.6018210000000  0.4653790000000  0.4923510000000 1.0
C      1  0.5880800000000  0.4767130000000  0.4708280000000 1.0
C      1  0.5873280000000  0.5047410000000  0.4618430000000 1.0
C      1  0.6005540000000  0.5264500000000  0.4729990000000 1.0
C      1  0.5256990000000  0.4773190000000  0.4256970000000 1.0
C      1  0.5236320000000  0.5313950000000  0.4319230000000 1.0
C      1  0.5252960000000  0.5692450000000  0.4666250000000 1.0
C      1  0.5255670000000  0.5737070000000  0.5168920000000 1.0
C      1  0.5257830000000  0.5451000000000  0.5600570000000 1.0
C      1  0.5260990000000  0.4970710000000  0.5757200000000 1.0
C      1  0.5257980000000  0.4492100000000  0.5556750000000 1.0
C      1  0.5268060000000  0.4231960000000  0.5112860000000 1.0
C      1  0.5264230000000  0.4334010000000  0.4587860000000 1.0
C      1  0.4844420000000  0.4977020000000  0.4579560000000 1.0
C      1  0.4669610000000  0.5111680000000  0.4738970000000 1.0
C      1  0.4772550000000  0.5263470000000  0.4928920000000 1.0
C      1  0.4634140000000  0.5251970000000  0.5154560000000 1.0
C      1  0.4765860000000  0.5054410000000  0.5272000000000 1.0
C      1  0.4655240000000  0.4818990000000  0.5213430000000 1.0
C      1  0.4824210000000  0.4620730000000  0.5129770000000 1.0
C      1  0.4757040000000  0.4521410000000  0.4865190000000 1.0
C      1  0.4855540000000  0.4682840000000  0.4637290000000 1.0
C      1  0.4531960000000  0.4329440000000  0.4853690000000 1.0
C      1  0.4528480000000  0.4575980000000  0.4414610000000 1.0
C      1  0.4522580000000  0.5058060000000  0.4269760000000 1.0
C      1  0.4538680000000  0.5517870000000  0.4481780000000 1.0
C      1  0.4541610000000  0.5751950000000  0.4927490000000 1.0
C      1  0.4547710000000  0.5630580000000  0.5412910000000 1.0
C      1  0.4548060000000  0.5234780000000  0.5720350000000 1.0
C      1  0.4549930000000  0.4732520000000  0.5684050000000 1.0
C      1  0.4526120000000  0.4357750000000  0.5351890000000 1.0
END
