TITL C-152259-5891-4 -0.0341302260596375 125000 -161.240913949807 0 0 25 (Cs) n - 1
REM
REM in /rds/project/t2_vol4/rds-t2-cs072/BORA/CARBON/from-Arr/AIRSS/Generating-Clusters/GAP-ML-2020/Higher-Symm/SD-CG/HFTN-CG
REM
REM
REM
REM
REM
REM ./C.cell (b20cbc046b6831c77cfcea5457e17084)
REM AIRSS Version 0.9.1 bugfix July 2018 build 013d7b7c2542+ Fri, 06 Jul 2018 19:26:36 +0100
REM compiler GCC version 9.3.0
REM options -cpp -mtune=generic -march=x86-64 -g -O0
REM seed -1051674579 718269512 -1259830942 258136886 -936068504 1181714559 -1029118130 1305624344 -1619158602 425611197 -2044570297 1140809959 -2053975829 1115012668 1852855258 1246804981 1432288953 1283834782 -1332508928 353475863 310793796 -1092497961 -1319815126 1487439481 313264827 289779074 -1533187678 -1242113162 -1572983592 1436774478 -435764255 -1211771924 -917663613
REM
CELL 1.54180   50.00000   50.00000   50.00000   90.00000   90.00000   90.00000
LATT -1
SFAC C  
C      1  0.5559140000000  0.5124650000000  0.5020610000000 1.0
C      1  0.5245810000000  0.5545850000000  0.5001280000000 1.0
C      1  0.4717480000000  0.5521640000000  0.5001500000000 1.0
C      1  0.4444010000000  0.5073550000000  0.5021090000000 1.0
C      1  0.4581990000000  0.4562180000000  0.4992170000000 1.0
C      1  0.5036820000000  0.4329210000000  0.4941120000000 1.0
C      1  0.5468480000000  0.4602800000000  0.4991800000000 1.0
C      1  0.5253660000000  0.4482060000000  0.4855560000000 1.0
C      1  0.5471340000000  0.4874230000000  0.4941040000000 1.0
C      1  0.5385880000000  0.5319380000000  0.4914270000000 1.0
C      1  0.4981860000000  0.5528160000000  0.4902280000000 1.0
C      1  0.4598640000000  0.5283300000000  0.4914600000000 1.0
C      1  0.4554270000000  0.4832200000000  0.4941430000000 1.0
C      1  0.4806840000000  0.4461580000000  0.4855750000000 1.0
C      1  0.4990660000000  0.5333930000000  0.4673010000000 1.0
C      1  0.4758780000000  0.5176760000000  0.4683040000000 1.0
C      1  0.4770210000000  0.4895040000000  0.4736620000000 1.0
C      1  0.4878470000000  0.4642790000000  0.4623440000000 1.0
C      1  0.5165550000000  0.4655940000000  0.4623320000000 1.0
C      1  0.5250390000000  0.4917040000000  0.4736420000000 1.0
C      1  0.5235960000000  0.5198620000000  0.4682840000000 1.0
C      1  0.5005300000000  0.5021110000000  0.5372180000000 1.0
C      1  0.5010970000000  0.4893260000000  0.4948240000000 1.0
C      1  0.5002420000000  0.5081430000000  0.5118860000000 1.0
C      1  0.5002540000000  0.5083600000000  0.5616930000000 1.0
END
