TITL C-15946-755-5 -0.00264208446704295 125000 -26.2679892608573 0 0 5 (C2v) n - 1
REM
REM in /rds/project/t2_vol4/rds-t2-cs072/BORA/CARBON/from-Arr/AIRSS/Generating-Clusters/GAP-ML-2020/Higher-Symm/SD-CG/HFTN-CG
REM
REM
REM
REM
REM
REM ./C.cell (b20cbc046b6831c77cfcea5457e17084)
REM AIRSS Version 0.9.1 bugfix July 2018 build 013d7b7c2542+ Fri, 06 Jul 2018 19:26:36 +0100
REM compiler GCC version 9.3.0
REM options -cpp -mtune=generic -march=x86-64 -g -O0
REM seed -1303259463 715696071 -378104977 -1145089586 -1042265050 598837422 -1834446445 -1545058049 586616012 -212744178 -1715908994 -1858155665 -1035720593 -50535382 -188592618 1082299411 -694410033 -510710917 115034468 193311853 -853162439 461008719 495723864 -157505611 591212520 882217186 -1301235266 -924214694 -1901247538 1690731793 617365200 121167338 -1010406611
REM
CELL 1.54180   50.00000   50.00000   50.00000   90.00000   90.00000   90.00000
LATT -1
SFAC C  
C      1  0.4887640000000  0.5007850000000  0.4728290000000 1.0
C      1  0.4831730000000  0.5007850000000  0.4995150000000 1.0
C      1  0.5212670000000  0.5007850000000  0.5145580000000 1.0
C      1  0.4952270000000  0.5007850000000  0.5253270000000 1.0
C      1  0.5115700000000  0.5007850000000  0.4877710000000 1.0
END
