TITL C-150273-3374-8 113.397836972032 125000 -869.372082297558 0 0 124 (C1) n - 1
REM
REM in /rds/project/t2_vol4/rds-t2-cs072/BORA/CARBON/from-Arr/AIRSS/Generating-Clusters/GAP-ML-2020/Higher-Symm/SD-CG/HFTN-CG
REM
REM
REM
REM
REM
REM ./C.cell (b20cbc046b6831c77cfcea5457e17084)
REM AIRSS Version 0.9.1 bugfix July 2018 build 013d7b7c2542+ Fri, 06 Jul 2018 19:26:36 +0100
REM compiler GCC version 9.3.0
REM options -cpp -mtune=generic -march=x86-64 -g -O0
REM seed -255940302 1201226242 460486683 1238756599 -1907256812 941856412 -1471611566 92853430 1691407561 -378618952 -709609869 -1268402215 1579057058 -1228638965 1202529152 -2039481520 543104935 1632550599 851609366 2009309263 -1780816919 -717351508 2135404345 -489400840 336180502 432687091 1614391346 1426175686 1553769910 -956709104 -1164222574 -169557902 2092570247
REM
CELL 1.54180   50.00000   50.00000   50.00000   90.00000   90.00000   90.00000
LATT -1
SFAC C  
C      1  0.5919530000000  0.4443480000000  0.4937260000000 1.0
C      1  0.5506140000000  0.4468050000000  0.4271280000000 1.0
C      1  0.4733580000000  0.4467020000000  0.4188910000000 1.0
C      1  0.4155570000000  0.4439640000000  0.4697140000000 1.0
C      1  0.4199850000000  0.4412670000000  0.5468570000000 1.0
C      1  0.4864370000000  0.4431640000000  0.5880630000000 1.0
C      1  0.5599740000000  0.4455440000000  0.5642950000000 1.0
C      1  0.4914210000000  0.4346610000000  0.5594660000000 1.0
C      1  0.5436710000000  0.4356140000000  0.5408250000000 1.0
C      1  0.5641050000000  0.4329160000000  0.4931140000000 1.0
C      1  0.5340380000000  0.4369010000000  0.4512320000000 1.0
C      1  0.4790580000000  0.4394150000000  0.4494540000000 1.0
C      1  0.4406390000000  0.4341280000000  0.4836360000000 1.0
C      1  0.4456340000000  0.4316290000000  0.5342700000000 1.0
C      1  0.4770820000000  0.5364140000000  0.4737540000000 1.0
C      1  0.4581230000000  0.5366920000000  0.4969940000000 1.0
C      1  0.4688820000000  0.5531020000000  0.5228580000000 1.0
C      1  0.4956110000000  0.5395620000000  0.5353070000000 1.0
C      1  0.5272910000000  0.5376540000000  0.5221770000000 1.0
C      1  0.5409690000000  0.5364370000000  0.4930880000000 1.0
C      1  0.5226500000000  0.5368280000000  0.4704950000000 1.0
C      1  0.4766910000000  0.4691660000000  0.4081540000000 1.0
C      1  0.4082540000000  0.4660230000000  0.4597200000000 1.0
C      1  0.4068380000000  0.4630990000000  0.5462620000000 1.0
C      1  0.4781340000000  0.4647960000000  0.5980410000000 1.0
C      1  0.5613720000000  0.4676640000000  0.5762880000000 1.0
C      1  0.6022840000000  0.4666620000000  0.5004160000000 1.0
C      1  0.5616510000000  0.4689000000000  0.4219320000000 1.0
C      1  0.5263880000000  0.5214530000000  0.4179680000000 1.0
C      1  0.4477500000000  0.5206170000000  0.4285800000000 1.0
C      1  0.4048980000000  0.5196600000000  0.4958130000000 1.0
C      1  0.4328150000000  0.5165100000000  0.5706950000000 1.0
C      1  0.5114540000000  0.5174710000000  0.5893720000000 1.0
C      1  0.5785840000000  0.5212450000000  0.5460070000000 1.0
C      1  0.5888560000000  0.5203800000000  0.4673050000000 1.0
C      1  0.5142710000000  0.5463920000000  0.4248940000000 1.0
C      1  0.4418570000000  0.5453830000000  0.4407390000000 1.0
C      1  0.4136180000000  0.5442920000000  0.5071900000000 1.0
C      1  0.4486930000000  0.5405130000000  0.5696130000000 1.0
C      1  0.5204870000000  0.5423540000000  0.5781750000000 1.0
C      1  0.5759720000000  0.5452530000000  0.5313980000000 1.0
C      1  0.5770310000000  0.5450060000000  0.4602530000000 1.0
C      1  0.5881580000000  0.4929220000000  0.5062350000000 1.0
C      1  0.5587070000000  0.4943120000000  0.4385590000000 1.0
C      1  0.4863580000000  0.4931460000000  0.4233950000000 1.0
C      1  0.4235640000000  0.4920840000000  0.4616890000000 1.0
C      1  0.4154250000000  0.4894820000000  0.5348480000000 1.0
C      1  0.4723590000000  0.4900120000000  0.5832750000000 1.0
C      1  0.5461350000000  0.4918070000000  0.5665320000000 1.0
C      1  0.5692080000000  0.5571740000000  0.4853970000000 1.0
C      1  0.5326950000000  0.5577520000000  0.4461490000000 1.0
C      1  0.4675690000000  0.5582310000000  0.4450500000000 1.0
C      1  0.4338480000000  0.5557340000000  0.4876070000000 1.0
C      1  0.4459510000000  0.5507840000000  0.5429480000000 1.0
C      1  0.4966540000000  0.5493440000000  0.5640540000000 1.0
C      1  0.5487840000000  0.5560710000000  0.5365170000000 1.0
C      1  0.5298750000000  0.4011780000000  0.4826550000000 1.0
C      1  0.5043050000000  0.4048130000000  0.4697970000000 1.0
C      1  0.4768260000000  0.4026450000000  0.4787830000000 1.0
C      1  0.4654840000000  0.3993280000000  0.5050460000000 1.0
C      1  0.4818240000000  0.4003380000000  0.5286230000000 1.0
C      1  0.5108520000000  0.4024290000000  0.5305160000000 1.0
C      1  0.5327110000000  0.4006040000000  0.5113470000000 1.0
C      1  0.4728590000000  0.4888130000000  0.4526290000000 1.0
C      1  0.4371150000000  0.4872480000000  0.4894390000000 1.0
C      1  0.4457850000000  0.4843400000000  0.5399720000000 1.0
C      1  0.4929500000000  0.4873690000000  0.5595430000000 1.0
C      1  0.5490320000000  0.4877250000000  0.5361490000000 1.0
C      1  0.5636500000000  0.4874220000000  0.4875210000000 1.0
C      1  0.5284960000000  0.4876650000000  0.4508370000000 1.0
C      1  0.5594250000000  0.5203630000000  0.5663670000000 1.0
C      1  0.5955140000000  0.5200860000000  0.4947660000000 1.0
C      1  0.5530510000000  0.5209690000000  0.4263780000000 1.0
C      1  0.4739680000000  0.5208290000000  0.4185650000000 1.0
C      1  0.4114920000000  0.5192870000000  0.4684370000000 1.0
C      1  0.4149230000000  0.5167010000000  0.5486980000000 1.0
C      1  0.4833420000000  0.5166550000000  0.5927930000000 1.0
C      1  0.4739550000000  0.4640130000000  0.4681050000000 1.0
C      1  0.4547070000000  0.4622410000000  0.4924400000000 1.0
C      1  0.4598190000000  0.4612360000000  0.5256860000000 1.0
C      1  0.4876300000000  0.4611730000000  0.5412200000000 1.0
C      1  0.5372570000000  0.4622270000000  0.5221690000000 1.0
C      1  0.5483240000000  0.4620640000000  0.4920570000000 1.0
C      1  0.5319710000000  0.4624450000000  0.4669990000000 1.0
C      1  0.5483990000000  0.4188380000000  0.4715270000000 1.0
C      1  0.5059130000000  0.4258700000000  0.4517780000000 1.0
C      1  0.4617820000000  0.4218940000000  0.4659860000000 1.0
C      1  0.4438510000000  0.4172250000000  0.5082160000000 1.0
C      1  0.4699830000000  0.4178870000000  0.5466210000000 1.0
C      1  0.5172410000000  0.4222070000000  0.5487060000000 1.0
C      1  0.5529320000000  0.4186620000000  0.5179670000000 1.0
C      1  0.4595330000000  0.5063970000000  0.4974570000000 1.0
C      1  0.4628360000000  0.5020410000000  0.5253310000000 1.0
C      1  0.4878770000000  0.5078950000000  0.5367480000000 1.0
C      1  0.5313940000000  0.5069490000000  0.5209520000000 1.0
C      1  0.5404460000000  0.5061270000000  0.4931650000000 1.0
C      1  0.5176930000000  0.5065150000000  0.4713420000000 1.0
C      1  0.4846210000000  0.5067740000000  0.4736750000000 1.0
C      1  0.5147140000000  0.4964120000000  0.4253960000000 1.0
C      1  0.4451380000000  0.4967380000000  0.4432370000000 1.0
C      1  0.4132640000000  0.4948050000000  0.5065470000000 1.0
C      1  0.4469380000000  0.4924420000000  0.5694790000000 1.0
C      1  0.5181530000000  0.4941330000000  0.5749660000000 1.0
C      1  0.5770590000000  0.4966980000000  0.5324180000000 1.0
C      1  0.5753670000000  0.4963660000000  0.4615220000000 1.0
C      1  0.4742750000000  0.5400210000000  0.5800940000000 1.0
C      1  0.5452460000000  0.5445010000000  0.5657410000000 1.0
C      1  0.5867430000000  0.5446610000000  0.5057230000000 1.0
C      1  0.5585850000000  0.5452130000000  0.4396090000000 1.0
C      1  0.4861320000000  0.5454150000000  0.4255000000000 1.0
C      1  0.4242370000000  0.5434950000000  0.4621460000000 1.0
C      1  0.4203590000000  0.5404480000000  0.5341460000000 1.0
C      1  0.4706570000000  0.5804290000000  0.5095360000000 1.0
C      1  0.5187440000000  0.5970990000000  0.5186890000000 1.0
C      1  0.5410560000000  0.5810840000000  0.5172470000000 1.0
C      1  0.5491490000000  0.5775790000000  0.4888000000000 1.0
C      1  0.5298910000000  0.5797970000000  0.4666190000000 1.0
C      1  0.4719330000000  0.5802280000000  0.4640550000000 1.0
C      1  0.4541780000000  0.5790580000000  0.4861640000000 1.0
C      1  0.5008320000000  0.5800620000000  0.4764060000000 1.0
C      1  0.5075460000000  0.4664000000000  0.5196110000000 1.0
C      1  0.5001340000000  0.5506760000000  0.4805260000000 1.0
C      1  0.5061370000000  0.4946590000000  0.5192920000000 1.0
C      1  0.4962370000000  0.5928500000000  0.5034300000000 1.0
END
