TITL C-154529-4242-7 56.7852455242012 125000 -838.305931691644 0 0 121 (C1) n - 1
REM
REM in /rds/project/t2_vol4/rds-t2-cs072/BORA/CARBON/from-Arr/AIRSS/Generating-Clusters/GAP-ML-2020/Higher-Symm/SD-CG/HFTN-CG
REM
REM
REM
REM
REM
REM ./C.cell (b20cbc046b6831c77cfcea5457e17084)
REM AIRSS Version 0.9.1 bugfix July 2018 build 013d7b7c2542+ Fri, 06 Jul 2018 19:26:36 +0100
REM compiler GCC version 9.3.0
REM options -cpp -mtune=generic -march=x86-64 -g -O0
REM seed 1479417314 510508451 -1076030355 1462215203 777866811 -1430504495 347238044 1623316223 516456173 1999313972 -1769749799 -2097797215 -1838596627 -152402839 -1416770821 545533411 1052134765 1152958075 -1253524176 -1520745476 568860038 -441345436 -1438235696 1627259974 422504141 -891645424 -1902586777 -1150410135 -981018863 1698820600 -950697895 -1058598344 502958176
REM
CELL 1.54180   50.00000   50.00000   50.00000   90.00000   90.00000   90.00000
LATT -1
SFAC C  
C      1  0.5863100000000  0.5402310000000  0.5276480000000 1.0
C      1  0.5409630000000  0.4135500000000  0.5276150000000 1.0
C      1  0.4137880000000  0.4610840000000  0.5271620000000 1.0
C      1  0.4598140000000  0.5859880000000  0.5277180000000 1.0
C      1  0.5793970000000  0.4624490000000  0.4690370000000 1.0
C      1  0.5375260000000  0.5788190000000  0.4691120000000 1.0
C      1  0.4209660000000  0.5371510000000  0.4691800000000 1.0
C      1  0.4631040000000  0.4204030000000  0.4688110000000 1.0
C      1  0.4856390000000  0.5357190000000  0.5709870000000 1.0
C      1  0.5361780000000  0.5142110000000  0.5709260000000 1.0
C      1  0.5149990000000  0.4637140000000  0.5711400000000 1.0
C      1  0.4643950000000  0.4854090000000  0.5717940000000 1.0
C      1  0.4884170000000  0.4657930000000  0.4354330000000 1.0
C      1  0.5342110000000  0.4879250000000  0.4353300000000 1.0
C      1  0.5119290000000  0.5336890000000  0.4354770000000 1.0
C      1  0.4662060000000  0.5114470000000  0.4353310000000 1.0
C      1  0.5189040000000  0.4193710000000  0.5462180000000 1.0
C      1  0.4196040000000  0.4824060000000  0.5464950000000 1.0
C      1  0.4819200000000  0.5799110000000  0.5460120000000 1.0
C      1  0.5803880000000  0.5181320000000  0.5460270000000 1.0
C      1  0.5152620000000  0.5785110000000  0.4499790000000 1.0
C      1  0.4213550000000  0.5149960000000  0.4497660000000 1.0
C      1  0.4853660000000  0.4208150000000  0.4495750000000 1.0
C      1  0.5790590000000  0.4847060000000  0.4498930000000 1.0
C      1  0.4581240000000  0.4692320000000  0.5178780000000 1.0
C      1  0.4711280000000  0.5397250000000  0.5178900000000 1.0
C      1  0.5405870000000  0.5281260000000  0.5176690000000 1.0
C      1  0.5285480000000  0.4587920000000  0.5176640000000 1.0
C      1  0.4633380000000  0.5344800000000  0.4896100000000 1.0
C      1  0.4644550000000  0.4629450000000  0.4891300000000 1.0
C      1  0.5365200000000  0.4640150000000  0.4892880000000 1.0
C      1  0.5353810000000  0.5360940000000  0.4893220000000 1.0
C      1  0.5339030000000  0.4421980000000  0.4437550000000 1.0
C      1  0.4427040000000  0.4661950000000  0.4436420000000 1.0
C      1  0.4667590000000  0.5571560000000  0.4441650000000 1.0
C      1  0.5576610000000  0.5332620000000  0.4439450000000 1.0
C      1  0.5264460000000  0.5597200000000  0.5578650000000 1.0
C      1  0.4400740000000  0.5265200000000  0.5583270000000 1.0
C      1  0.4743610000000  0.4395960000000  0.5590860000000 1.0
C      1  0.5605860000000  0.4734330000000  0.5580940000000 1.0
C      1  0.5561850000000  0.5809350000000  0.5174320000000 1.0
C      1  0.5815700000000  0.4437870000000  0.5173500000000 1.0
C      1  0.4453290000000  0.4194920000000  0.5166780000000 1.0
C      1  0.4189360000000  0.5561320000000  0.5175340000000 1.0
C      1  0.5534110000000  0.4185710000000  0.4798210000000 1.0
C      1  0.5812080000000  0.5525980000000  0.4800100000000 1.0
C      1  0.4474460000000  0.5806590000000  0.4801590000000 1.0
C      1  0.4190780000000  0.4471950000000  0.4798420000000 1.0
C      1  0.5140910000000  0.5333960000000  0.5637970000000 1.0
C      1  0.5342430000000  0.4857070000000  0.5641000000000 1.0
C      1  0.4865250000000  0.4657720000000  0.5645800000000 1.0
C      1  0.4663290000000  0.5138290000000  0.5642990000000 1.0
C      1  0.5151420000000  0.4677230000000  0.4451880000000 1.0
C      1  0.5321490000000  0.5146050000000  0.4451940000000 1.0
C      1  0.4852510000000  0.5315650000000  0.4453740000000 1.0
C      1  0.4681570000000  0.4848170000000  0.4454120000000 1.0
C      1  0.4248730000000  0.5103840000000  0.5380890000000 1.0
C      1  0.5101340000000  0.5745620000000  0.5374530000000 1.0
C      1  0.5752860000000  0.4897650000000  0.5375240000000 1.0
C      1  0.4904080000000  0.4243560000000  0.5381820000000 1.0
C      1  0.4190580000000  0.4859960000000  0.4528590000000 1.0
C      1  0.5143160000000  0.4187260000000  0.4532350000000 1.0
C      1  0.5811660000000  0.5136470000000  0.4534010000000 1.0
C      1  0.4863180000000  0.5806770000000  0.4534340000000 1.0
C      1  0.4670660000000  0.4882980000000  0.4757810000000 1.0
C      1  0.4886220000000  0.5319120000000  0.4756340000000 1.0
C      1  0.5329670000000  0.5109050000000  0.4753630000000 1.0
C      1  0.5114190000000  0.4665500000000  0.4753540000000 1.0
C      1  0.4724710000000  0.5126670000000  0.5314170000000 1.0
C      1  0.4855310000000  0.4715320000000  0.5313500000000 1.0
C      1  0.5272450000000  0.4854610000000  0.5312160000000 1.0
C      1  0.5137240000000  0.5266560000000  0.5311770000000 1.0
C      1  0.5533040000000  0.4464500000000  0.4701770000000 1.0
C      1  0.4468510000000  0.4466860000000  0.4699840000000 1.0
C      1  0.4472380000000  0.5527420000000  0.4705410000000 1.0
C      1  0.5533150000000  0.5526320000000  0.4703560000000 1.0
C      1  0.5695460000000  0.5628410000000  0.5346530000000 1.0
C      1  0.4371380000000  0.5693950000000  0.5347930000000 1.0
C      1  0.4371010000000  0.4432910000000  0.5305670000000 1.0
C      1  0.5635180000000  0.4304060000000  0.5345990000000 1.0
C      1  0.4918970000000  0.4533440000000  0.4904580000000 1.0
C      1  0.4530930000000  0.5070480000000  0.4910840000000 1.0
C      1  0.5078400000000  0.5457710000000  0.4904740000000 1.0
C      1  0.5462290000000  0.4914650000000  0.4904180000000 1.0
C      1  0.4991520000000  0.5486940000000  0.5179890000000 1.0
C      1  0.4500060000000  0.4980880000000  0.5185510000000 1.0
C      1  0.5004480000000  0.4500280000000  0.5180380000000 1.0
C      1  0.5493290000000  0.5000980000000  0.5179120000000 1.0
C      1  0.4763360000000  0.4406170000000  0.4296400000000 1.0
C      1  0.4411070000000  0.5238100000000  0.4297830000000 1.0
C      1  0.5241220000000  0.5588260000000  0.4298290000000 1.0
C      1  0.5593930000000  0.4757870000000  0.4297100000000 1.0
C      1  0.4720850000000  0.5594470000000  0.5635140000000 1.0
C      1  0.4406570000000  0.4722150000000  0.5640800000000 1.0
C      1  0.5287020000000  0.4400500000000  0.5635420000000 1.0
C      1  0.5597820000000  0.5279370000000  0.5634350000000 1.0
C      1  0.4608060000000  0.4093790000000  0.4951450000000 1.0
C      1  0.4097580000000  0.5401210000000  0.4954550000000 1.0
C      1  0.5402270000000  0.5899370000000  0.4953320000000 1.0
C      1  0.5905300000000  0.4597920000000  0.4952680000000 1.0
C      1  0.4602300000000  0.5947680000000  0.5006760000000 1.0
C      1  0.4051710000000  0.4607780000000  0.5002840000000 1.0
C      1  0.5406150000000  0.4048390000000  0.5005340000000 1.0
C      1  0.5951500000000  0.5398400000000  0.5006220000000 1.0
C      1  0.5905110000000  0.4702620000000  0.5212980000000 1.0
C      1  0.4710190000000  0.4092060000000  0.5215890000000 1.0
C      1  0.4099840000000  0.5297880000000  0.5215580000000 1.0
C      1  0.5296820000000  0.5897480000000  0.5213330000000 1.0
C      1  0.5946790000000  0.5284250000000  0.4737890000000 1.0
C      1  0.4715790000000  0.5941710000000  0.4738570000000 1.0
C      1  0.4054110000000  0.4712380000000  0.4731730000000 1.0
C      1  0.5291970000000  0.4052080000000  0.4736250000000 1.0
C      1  0.4447140000000  0.5537350000000  0.5572740000000 1.0
C      1  0.5537790000000  0.5552360000000  0.5570340000000 1.0
C      1  0.5559880000000  0.4461010000000  0.5570500000000 1.0
C      1  0.4471540000000  0.4450700000000  0.5573950000000 1.0
C      1  0.4496010000000  0.4473530000000  0.4230960000000 1.0
C      1  0.5528150000000  0.4490020000000  0.4232130000000 1.0
C      1  0.5509400000000  0.5522270000000  0.4234140000000 1.0
C      1  0.4478420000000  0.5506030000000  0.4235230000000 1.0
C      1  0.4996570000000  0.4990000000000  0.5265970000000 1.0
END
