TITL C-152290-5816-1 0.0605311516893606 125000 -868.875706004541 0 0 121 (C1) n - 1
REM
REM in /rds/project/t2_vol4/rds-t2-cs072/BORA/CARBON/from-Arr/AIRSS/Generating-Clusters/GAP-ML-2020/Higher-Symm/SD-CG/HFTN-CG
REM
REM
REM
REM
REM
REM ./C.cell (b20cbc046b6831c77cfcea5457e17084)
REM AIRSS Version 0.9.1 bugfix July 2018 build 013d7b7c2542+ Fri, 06 Jul 2018 19:26:36 +0100
REM compiler GCC version 9.3.0
REM options -cpp -mtune=generic -march=x86-64 -g -O0
REM seed 177078616 1011018926 754564985 -1456603808 -1102077758 -380615415 -436226490 -625277690 -1735310880 101517890 2077940220 202266278 251188034 758036607 -65441179 1482863452 -1930721479 1170327162 714929198 -1747906505 106264609 -1139722120 -1757307179 -1641414265 -218067459 -590863379 1055475744 -1656727844 36712432 -908731594 -46588819 1345783308 -483285729
REM
CELL 1.54180   50.00000   50.00000   50.00000   90.00000   90.00000   90.00000
LATT -1
SFAC C  
C      1  0.5618290000000  0.4294210000000  0.5162220000000 1.0
C      1  0.5600260000000  0.5729990000000  0.4839040000000 1.0
C      1  0.5503310000000  0.4307920000000  0.4616600000000 1.0
C      1  0.5231770000000  0.5681730000000  0.4416900000000 1.0
C      1  0.4596580000000  0.4365760000000  0.4429820000000 1.0
C      1  0.4349190000000  0.5633870000000  0.4696550000000 1.0
C      1  0.4387060000000  0.4277510000000  0.4844020000000 1.0
C      1  0.4377530000000  0.5697140000000  0.5168940000000 1.0
C      1  0.4505120000000  0.4309730000000  0.5391760000000 1.0
C      1  0.4741570000000  0.5673370000000  0.5581370000000 1.0
C      1  0.5414770000000  0.4377890000000  0.5585800000000 1.0
C      1  0.5618220000000  0.5650740000000  0.5312100000000 1.0
C      1  0.5256560000000  0.4748770000000  0.4294820000000 1.0
C      1  0.4873790000000  0.5298290000000  0.4280030000000 1.0
C      1  0.4502160000000  0.4816170000000  0.4340150000000 1.0
C      1  0.4237120000000  0.5187250000000  0.4708960000000 1.0
C      1  0.4024040000000  0.4732630000000  0.5140810000000 1.0
C      1  0.4342390000000  0.5162050000000  0.5488670000000 1.0
C      1  0.4732390000000  0.4718540000000  0.5706750000000 1.0
C      1  0.5105340000000  0.5245330000000  0.5743590000000 1.0
C      1  0.5528850000000  0.4808850000000  0.5635830000000 1.0
C      1  0.5765260000000  0.5208770000000  0.5301710000000 1.0
C      1  0.5826260000000  0.4802940000000  0.4862480000000 1.0
C      1  0.5682280000000  0.5175200000000  0.4499310000000 1.0
C      1  0.5296290000000  0.4758160000000  0.5815360000000 1.0
C      1  0.5649770000000  0.5278650000000  0.5580390000000 1.0
C      1  0.5901960000000  0.4726340000000  0.5146480000000 1.0
C      1  0.5862360000000  0.5278460000000  0.4737530000000 1.0
C      1  0.5549070000000  0.4707490000000  0.4312590000000 1.0
C      1  0.5121070000000  0.5260410000000  0.4148640000000 1.0
C      1  0.4727870000000  0.4712930000000  0.4162570000000 1.0
C      1  0.4326020000000  0.5263540000000  0.4421900000000 1.0
C      1  0.4070960000000  0.4697390000000  0.4847420000000 1.0
C      1  0.4132470000000  0.5229180000000  0.5271080000000 1.0
C      1  0.4441580000000  0.4688520000000  0.5674990000000 1.0
C      1  0.4817290000000  0.5242540000000  0.5827290000000 1.0
C      1  0.4742790000000  0.4081230000000  0.5071830000000 1.0
C      1  0.4786640000000  0.5911130000000  0.5187540000000 1.0
C      1  0.4916230000000  0.4119010000000  0.5294290000000 1.0
C      1  0.5046500000000  0.5872700000000  0.5291310000000 1.0
C      1  0.5191720000000  0.4094310000000  0.5222020000000 1.0
C      1  0.5247660000000  0.5911220000000  0.5093010000000 1.0
C      1  0.5266280000000  0.4085280000000  0.4944740000000 1.0
C      1  0.5182080000000  0.5921780000000  0.4813820000000 1.0
C      1  0.5090370000000  0.4120580000000  0.4722340000000 1.0
C      1  0.4922480000000  0.5892610000000  0.4708770000000 1.0
C      1  0.4816190000000  0.4087400000000  0.4793900000000 1.0
C      1  0.4718670000000  0.5907450000000  0.4909200000000 1.0
C      1  0.4614480000000  0.5063270000000  0.5306660000000 1.0
C      1  0.4835060000000  0.4883130000000  0.5462250000000 1.0
C      1  0.5091150000000  0.5061850000000  0.5484750000000 1.0
C      1  0.5343200000000  0.4904260000000  0.5390770000000 1.0
C      1  0.5492610000000  0.5072550000000  0.5178000000000 1.0
C      1  0.5523560000000  0.4906800000000  0.4914540000000 1.0
C      1  0.5412210000000  0.5082950000000  0.4683600000000 1.0
C      1  0.5185180000000  0.4927800000000  0.4544030000000 1.0
C      1  0.4920590000000  0.5102230000000  0.4511230000000 1.0
C      1  0.4691700000000  0.4922500000000  0.4601080000000 1.0
C      1  0.4538530000000  0.5080300000000  0.4816700000000 1.0
C      1  0.4538550000000  0.4911590000000  0.5068240000000 1.0
C      1  0.5636590000000  0.4553670000000  0.5547450000000 1.0
C      1  0.5790870000000  0.5473540000000  0.5176320000000 1.0
C      1  0.5847100000000  0.4703930000000  0.4591250000000 1.0
C      1  0.5564510000000  0.5340320000000  0.4301120000000 1.0
C      1  0.5110950000000  0.4465750000000  0.4329650000000 1.0
C      1  0.4743720000000  0.5550020000000  0.4359280000000 1.0
C      1  0.4391130000000  0.4557630000000  0.4465860000000 1.0
C      1  0.4193030000000  0.5443590000000  0.4836220000000 1.0
C      1  0.4093420000000  0.4591660000000  0.5354870000000 1.0
C      1  0.4395890000000  0.5382530000000  0.5651480000000 1.0
C      1  0.4900080000000  0.4467180000000  0.5693340000000 1.0
C      1  0.5221350000000  0.5522560000000  0.5643450000000 1.0
C      1  0.4458940000000  0.5792580000000  0.4903980000000 1.0
C      1  0.4489590000000  0.4200890000000  0.5116750000000 1.0
C      1  0.4592200000000  0.5780040000000  0.5351870000000 1.0
C      1  0.4776310000000  0.4280600000000  0.5497370000000 1.0
C      1  0.5026810000000  0.5707870000000  0.5536620000000 1.0
C      1  0.5417600000000  0.4210180000000  0.5354460000000 1.0
C      1  0.5511790000000  0.5812700000000  0.5103580000000 1.0
C      1  0.5516900000000  0.4210390000000  0.4897100000000 1.0
C      1  0.5379910000000  0.5796340000000  0.4649630000000 1.0
C      1  0.5229060000000  0.4279500000000  0.4517490000000 1.0
C      1  0.4945890000000  0.5734380000000  0.4460210000000 1.0
C      1  0.4589450000000  0.4195180000000  0.4658300000000 1.0
C      1  0.4922400000000  0.4722600000000  0.5231520000000 1.0
C      1  0.5049600000000  0.5194090000000  0.5225240000000 1.0
C      1  0.5206530000000  0.4714370000000  0.5213070000000 1.0
C      1  0.5280460000000  0.5262340000000  0.5092530000000 1.0
C      1  0.5321560000000  0.4695750000000  0.4949250000000 1.0
C      1  0.5242710000000  0.5285210000000  0.4820020000000 1.0
C      1  0.5103640000000  0.4778520000000  0.4784130000000 1.0
C      1  0.4970270000000  0.5279690000000  0.4744450000000 1.0
C      1  0.4830230000000  0.4712490000000  0.4771840000000 1.0
C      1  0.4742120000000  0.5288290000000  0.4899710000000 1.0
C      1  0.4720910000000  0.4697690000000  0.5032060000000 1.0
C      1  0.4783970000000  0.5268880000000  0.5173820000000 1.0
C      1  0.4898840000000  0.4859960000000  0.4013990000000 1.0
C      1  0.4364180000000  0.5055170000000  0.4255490000000 1.0
C      1  0.4050910000000  0.4989950000000  0.4822290000000 1.0
C      1  0.4006740000000  0.5031500000000  0.5106300000000 1.0
C      1  0.4397460000000  0.4976410000000  0.5725580000000 1.0
C      1  0.4664670000000  0.5001720000000  0.5831920000000 1.0
C      1  0.5299910000000  0.5054760000000  0.5870190000000 1.0
C      1  0.5566890000000  0.5081340000000  0.5759240000000 1.0
C      1  0.5958270000000  0.5015310000000  0.5186200000000 1.0
C      1  0.5960260000000  0.5070660000000  0.4898700000000 1.0
C      1  0.5752290000000  0.4899440000000  0.4406320000000 1.0
C      1  0.5139120000000  0.4961280000000  0.4084880000000 1.0
C      1  0.4647750000000  0.5455050000000  0.5736810000000 1.0
C      1  0.5183440000000  0.4510030000000  0.5730420000000 1.0
C      1  0.5494480000000  0.5518610000000  0.5546580000000 1.0
C      1  0.5771490000000  0.4515270000000  0.5285040000000 1.0
C      1  0.5789420000000  0.5510640000000  0.4887490000000 1.0
C      1  0.5655900000000  0.4503410000000  0.4484990000000 1.0
C      1  0.5321250000000  0.5450170000000  0.4250730000000 1.0
C      1  0.4828950000000  0.4471340000000  0.4280510000000 1.0
C      1  0.4469490000000  0.5516850000000  0.4455200000000 1.0
C      1  0.4236700000000  0.4500510000000  0.4713730000000 1.0
C      1  0.4195810000000  0.5469070000000  0.5123850000000 1.0
C      1  0.4315950000000  0.4505550000000  0.5497430000000 1.0
C      1  0.5046040000000  0.4937400000000  0.5067530000000 1.0
END
