TITL C-152265-5838-8 -0.0623203447812185 125000 -277.932269163224 0 0 42 (Cs) n - 1
REM
REM in /rds/project/t2_vol4/rds-t2-cs072/BORA/CARBON/from-Arr/AIRSS/Generating-Clusters/GAP-ML-2020/Higher-Symm/SD-CG/HFTN-CG
REM
REM
REM
REM
REM
REM ./C.cell (b20cbc046b6831c77cfcea5457e17084)
REM AIRSS Version 0.9.1 bugfix July 2018 build 013d7b7c2542+ Fri, 06 Jul 2018 19:26:36 +0100
REM compiler GCC version 9.3.0
REM options -cpp -mtune=generic -march=x86-64 -g -O0
REM seed -1893020492 -1677789295 -2030461069 980049518 -401992691 1978081063 1622761173 -1369351355 372719980 462788998 -725468540 1657882526 -1840851329 1945333136 2061608222 -1637345408 1732379540 1153823862 -205386532 -75908608 243469711 -672824744 -702330872 -331415548 1190885048 -161144066 1910256571 -1876351891 1240935907 301063745 -648016031 1220388979 -1402033380
REM
CELL 1.54180   50.00000   50.00000   50.00000   90.00000   90.00000   90.00000
LATT -1
SFAC C  
C      1  0.5209730000000  0.4890480000000  0.5716690000000 1.0
C      1  0.5210610000000  0.5154050000000  0.5708190000000 1.0
C      1  0.4723440000000  0.4474140000000  0.5046960000000 1.0
C      1  0.4726990000000  0.5529640000000  0.5012930000000 1.0
C      1  0.5498780000000  0.4688890000000  0.4614340000000 1.0
C      1  0.5500780000000  0.5282260000000  0.4595200000000 1.0
C      1  0.5187040000000  0.5443320000000  0.5246930000000 1.0
C      1  0.5184120000000  0.4572260000000  0.5275020000000 1.0
C      1  0.5278160000000  0.4839120000000  0.4539210000000 1.0
C      1  0.5279130000000  0.5128990000000  0.4529870000000 1.0
C      1  0.4738510000000  0.5152140000000  0.5265480000000 1.0
C      1  0.4737560000000  0.4867040000000  0.5274680000000 1.0
C      1  0.4977380000000  0.5133590000000  0.4855480000000 1.0
C      1  0.4976450000000  0.4857530000000  0.4864390000000 1.0
C      1  0.5516270000000  0.4609850000000  0.4858300000000 1.0
C      1  0.5518840000000  0.5376730000000  0.4833570000000 1.0
C      1  0.5441360000000  0.4668040000000  0.5111010000000 1.0
C      1  0.5443600000000  0.5335450000000  0.5089490000000 1.0
C      1  0.4479760000000  0.4860980000000  0.5134310000000 1.0
C      1  0.4480740000000  0.5150870000000  0.5124970000000 1.0
C      1  0.4557760000000  0.4592940000000  0.4510000000000 1.0
C      1  0.4560400000000  0.5377600000000  0.4484700000000 1.0
C      1  0.4925930000000  0.4696140000000  0.5116900000000 1.0
C      1  0.4928000000000  0.5311250000000  0.5097070000000 1.0
C      1  0.5490680000000  0.4866900000000  0.5310400000000 1.0
C      1  0.5491630000000  0.5149520000000  0.5301290000000 1.0
C      1  0.4479740000000  0.5376740000000  0.4949380000000 1.0
C      1  0.4477210000000  0.4624280000000  0.4973640000000 1.0
C      1  0.4813280000000  0.4619700000000  0.4470170000000 1.0
C      1  0.4815720000000  0.5346620000000  0.4446730000000 1.0
C      1  0.4792590000000  0.4212980000000  0.5069950000000 1.0
C      1  0.4797890000000  0.5791270000000  0.5019060000000 1.0
C      1  0.4394160000000  0.5386480000000  0.4685670000000 1.0
C      1  0.4391510000000  0.4598150000000  0.4711090000000 1.0
C      1  0.5019130000000  0.5243690000000  0.4591960000000 1.0
C      1  0.5017410000000  0.4730400000000  0.4608510000000 1.0
C      1  0.5182250000000  0.5738490000000  0.5286750000000 1.0
C      1  0.5177350000000  0.4280310000000  0.5333770000000 1.0
C      1  0.5001290000000  0.4136050000000  0.5209710000000 1.0
C      1  0.5007130000000  0.5875640000000  0.5153610000000 1.0
C      1  0.5285700000000  0.5270390000000  0.5478060000000 1.0
C      1  0.5283980000000  0.4759060000000  0.5494550000000 1.0
END
