TITL C-163631-8269-3 -68.16188768481 125000 -534.50861380487 0 0 80 (C4) n - 1
REM
REM in /rds/project/t2_vol4/rds-t2-cs072/BORA/CARBON/from-Arr/AIRSS/Generating-Clusters/GAP-ML-2020/Higher-Symm/SD-CG/HFTN-CG
REM
REM
REM
REM
REM
REM ./C.cell (b20cbc046b6831c77cfcea5457e17084)
REM AIRSS Version 0.9.1 bugfix July 2018 build 013d7b7c2542+ Fri, 06 Jul 2018 19:26:36 +0100
REM compiler GCC version 9.3.0
REM options -cpp -mtune=generic -march=x86-64 -g -O0
REM seed -643124693 2115858212 1502508685 -325423394 1833069118 -1095242565 -973057966 -699457006 687144429 831169674 1375673040 -1979864810 -621671909 -512302811 -344274103 -629169529 -880693290 1457422499 1494852351 -730346402 1048579820 1638528947 -1436666413 677220555 -2079176281 -1100894716 -730919113 1796989594 1400046965 1677055004 1210769157 -2081330106 -307671579
REM
CELL 1.54180   50.00000   50.00000   50.00000   90.00000   90.00000   90.00000
LATT -1
SFAC C  
C      1  0.5051420000000  0.4963130000000  0.4217200000000 1.0
C      1  0.4217200000000  0.4963090000000  0.4948580000000 1.0
C      1  0.4948580000000  0.4963130000000  0.5782800000000 1.0
C      1  0.5782810000000  0.4963180000000  0.5051420000000 1.0
C      1  0.4795760000000  0.4245110000000  0.4975880000000 1.0
C      1  0.4975920000000  0.4245120000000  0.5204280000000 1.0
C      1  0.5204320000000  0.4245130000000  0.5024130000000 1.0
C      1  0.5024160000000  0.4245120000000  0.4795720000000 1.0
C      1  0.4467080000000  0.5212350000000  0.4536970000000 1.0
C      1  0.4536960000000  0.5212360000000  0.5532910000000 1.0
C      1  0.5532900000000  0.5212410000000  0.5463030000000 1.0
C      1  0.5463020000000  0.5212400000000  0.4467090000000 1.0
C      1  0.4342620000000  0.4831470000000  0.5199450000000 1.0
C      1  0.5199460000000  0.4831520000000  0.5657390000000 1.0
C      1  0.5657400000000  0.4831540000000  0.4800550000000 1.0
C      1  0.4800560000000  0.4831490000000  0.4342610000000 1.0
C      1  0.4646870000000  0.4529750000000  0.5444230000000 1.0
C      1  0.5444260000000  0.4529790000000  0.5353160000000 1.0
C      1  0.5353180000000  0.4529780000000  0.4555770000000 1.0
C      1  0.4555790000000  0.4529740000000  0.4646840000000 1.0
C      1  0.4872290000000  0.5112670000000  0.4677320000000 1.0
C      1  0.4677310000000  0.5112660000000  0.5127710000000 1.0
C      1  0.5127700000000  0.5112680000000  0.5322680000000 1.0
C      1  0.5322680000000  0.5112690000000  0.4872290000000 1.0
C      1  0.4941060000000  0.4467880000000  0.5386070000000 1.0
C      1  0.5386090000000  0.4467900000000  0.5058970000000 1.0
C      1  0.5058990000000  0.4467880000000  0.4613940000000 1.0
C      1  0.4613960000000  0.4467860000000  0.4941040000000 1.0
C      1  0.5285460000000  0.5112140000000  0.5589930000000 1.0
C      1  0.5589930000000  0.5112150000000  0.4714540000000 1.0
C      1  0.4714530000000  0.5112100000000  0.4410070000000 1.0
C      1  0.4410060000000  0.5112090000000  0.5285460000000 1.0
C      1  0.5039810000000  0.5612370000000  0.5392240000000 1.0
C      1  0.5392210000000  0.5612380000000  0.4960150000000 1.0
C      1  0.4960120000000  0.5612360000000  0.4607750000000 1.0
C      1  0.4607720000000  0.5612340000000  0.5039840000000 1.0
C      1  0.5380250000000  0.4712240000000  0.4335440000000 1.0
C      1  0.4335450000000  0.4712180000000  0.4619760000000 1.0
C      1  0.4619780000000  0.4712200000000  0.5664560000000 1.0
C      1  0.5664580000000  0.4712260000000  0.5380240000000 1.0
C      1  0.5072500000000  0.5377930000000  0.5201700000000 1.0
C      1  0.5201690000000  0.5377930000000  0.4927470000000 1.0
C      1  0.4927450000000  0.5377920000000  0.4798290000000 1.0
C      1  0.4798270000000  0.5377910000000  0.5072520000000 1.0
C      1  0.5130410000000  0.4967940000000  0.4679690000000 1.0
C      1  0.4679700000000  0.4967920000000  0.4869590000000 1.0
C      1  0.4869590000000  0.4967930000000  0.5320310000000 1.0
C      1  0.5320310000000  0.4967950000000  0.5130410000000 1.0
C      1  0.4366690000000  0.5459390000000  0.4945540000000 1.0
C      1  0.4945520000000  0.5459430000000  0.5633290000000 1.0
C      1  0.5633260000000  0.5459460000000  0.5054450000000 1.0
C      1  0.5054430000000  0.5459430000000  0.4366710000000 1.0
C      1  0.5073660000000  0.5235100000000  0.5754000000000 1.0
C      1  0.5753990000000  0.5235130000000  0.4926320000000 1.0
C      1  0.4926310000000  0.5235090000000  0.4246000000000 1.0
C      1  0.4245990000000  0.5235050000000  0.5073680000000 1.0
C      1  0.4421000000000  0.4984400000000  0.4719480000000 1.0
C      1  0.4719480000000  0.4984420000000  0.5579000000000 1.0
C      1  0.5579000000000  0.4984460000000  0.5280520000000 1.0
C      1  0.5280520000000  0.4984440000000  0.4421000000000 1.0
C      1  0.5534610000000  0.5460520000000  0.5328070000000 1.0
C      1  0.5328050000000  0.5460500000000  0.4465360000000 1.0
C      1  0.4465340000000  0.5460460000000  0.4671920000000 1.0
C      1  0.4671900000000  0.5460470000000  0.5534630000000 1.0
C      1  0.4481750000000  0.4584800000000  0.5214250000000 1.0
C      1  0.5214270000000  0.4584840000000  0.5518270000000 1.0
C      1  0.5518290000000  0.4584860000000  0.4785750000000 1.0
C      1  0.4785770000000  0.4584820000000  0.4481730000000 1.0
C      1  0.5247480000000  0.4780710000000  0.4103660000000 1.0
C      1  0.4103680000000  0.4780650000000  0.4752540000000 1.0
C      1  0.4752550000000  0.4780690000000  0.5896340000000 1.0
C      1  0.5896350000000  0.4780750000000  0.5247460000000 1.0
C      1  0.5206490000000  0.4705370000000  0.5062740000000 1.0
C      1  0.5062750000000  0.4705360000000  0.4793530000000 1.0
C      1  0.4793540000000  0.4705350000000  0.4937260000000 1.0
C      1  0.4937280000000  0.4705360000000  0.5206470000000 1.0
C      1  0.4690840000000  0.5644640000000  0.4730090000000 1.0
C      1  0.4730060000000  0.5644640000000  0.5309120000000 1.0
C      1  0.5309090000000  0.5644670000000  0.5269900000000 1.0
C      1  0.5269870000000  0.5644670000000  0.4690870000000 1.0
END
