TITL C-163630-9449-4 -1213.53293076301 125000 -162.364105587997 0 0 26 (C3) n - 1
REM
REM in /rds/project/t2_vol4/rds-t2-cs072/BORA/CARBON/from-Arr/AIRSS/Generating-Clusters/GAP-ML-2020/Higher-Symm/SD-CG/HFTN-CG
REM
REM
REM
REM
REM
REM ./C.cell (b20cbc046b6831c77cfcea5457e17084)
REM AIRSS Version 0.9.1 bugfix July 2018 build 013d7b7c2542+ Fri, 06 Jul 2018 19:26:36 +0100
REM compiler GCC version 9.3.0
REM options -cpp -mtune=generic -march=x86-64 -g -O0
REM seed -1269433100 -115375737 -2122194180 -2096379003 1069298277 288937716 2046435607 -1567301903 -1909526110 -1091641430 1290357133 269331652 2060380361 -1169790252 -426404600 -485962614 553142410 -1268587919 -76865613 428715349 522723677 -1512697948 1762506439 -1308758560 16257007 1708154065 -1598645420 -1380198180 -1579561271 329858689 368042484 262773893 814617489
REM
CELL 1.54180   50.00000   50.00000   50.00000   90.00000   90.00000   90.00000
LATT -1
SFAC C  
C      1  0.4616010000000  0.4753720000000  0.5042880000000 1.0
C      1  0.5362730000000  0.4827530000000  0.5039270000000 1.0
C      1  0.4925470000000  0.5437290000000  0.5046310000000 1.0
C      1  0.5113310000000  0.5359620000000  0.5254550000000 1.0
C      1  0.4589750000000  0.4951840000000  0.5254400000000 1.0
C      1  0.5204660000000  0.4702330000000  0.5249090000000 1.0
C      1  0.5389530000000  0.5313690000000  0.5160090000000 1.0
C      1  0.4491250000000  0.5215510000000  0.5164370000000 1.0
C      1  0.5025390000000  0.4486680000000  0.5155890000000 1.0
C      1  0.4752750000000  0.5212450000000  0.5006650000000 1.0
C      1  0.4897020000000  0.4717190000000  0.5002120000000 1.0
C      1  0.5253800000000  0.5089780000000  0.5002930000000 1.0
C      1  0.4564640000000  0.4800720000000  0.4775240000000 1.0
C      1  0.5347220000000  0.4763870000000  0.4770590000000 1.0
C      1  0.4987870000000  0.5460020000000  0.4777840000000 1.0
C      1  0.5213790000000  0.4851170000000  0.4572850000000 1.0
C      1  0.4978600000000  0.5304030000000  0.4577570000000 1.0
C      1  0.4704000000000  0.4873900000000  0.4575870000000 1.0
C      1  0.5023200000000  0.5155130000000  0.5435130000000 1.0
C      1  0.4812230000000  0.4973130000000  0.5434930000000 1.0
C      1  0.5075330000000  0.4881430000000  0.5432770000000 1.0
C      1  0.4297330000000  0.5390800000000  0.5178280000000 1.0
C      1  0.4970560000000  0.4230900000000  0.5165780000000 1.0
C      1  0.5638480000000  0.5393920000000  0.5170820000000 1.0
C      1  0.4967430000000  0.5007040000000  0.4928230000000 1.0
C      1  0.4965750000000  0.5009320000000  0.4626320000000 1.0
END
