TITL C-163623-8347-7 13.0806783651258 125000 -445.156168723354 0 0 63 (C1) n - 1
REM
REM in /rds/project/t2_vol4/rds-t2-cs072/BORA/CARBON/from-Arr/AIRSS/Generating-Clusters/GAP-ML-2020/Higher-Symm/SD-CG/HFTN-CG
REM
REM
REM
REM
REM
REM ./C.cell (b20cbc046b6831c77cfcea5457e17084)
REM AIRSS Version 0.9.1 bugfix July 2018 build 013d7b7c2542+ Fri, 06 Jul 2018 19:26:36 +0100
REM compiler GCC version 9.3.0
REM options -cpp -mtune=generic -march=x86-64 -g -O0
REM seed -983188180 641230563 393429691 1851133639 1767180540 822041881 1563858300 1087952443 -672964200 -533316553 -106203567 646427130 -1740474425 1452841778 712734488 135695854 1592576079 -1869272940 1289020466 -238718545 -1532120995 371356177 -1521053397 761952754 -1496536086 31008679 1050653223 1665239272 1173927071 1140632651 898331674 1989607094 1645341992
REM
CELL 1.54180   50.00000   50.00000   50.00000   90.00000   90.00000   90.00000
LATT -1
SFAC C  
C      1  0.5472410000000  0.4661180000000  0.4882060000000 1.0
C      1  0.5311840000000  0.5453590000000  0.5178360000000 1.0
C      1  0.4521450000000  0.5309900000000  0.4849190000000 1.0
C      1  0.4661950000000  0.4517850000000  0.5174320000000 1.0
C      1  0.5554060000000  0.4561660000000  0.5148350000000 1.0
C      1  0.5404770000000  0.5519090000000  0.4894970000000 1.0
C      1  0.4418390000000  0.5411210000000  0.5108460000000 1.0
C      1  0.4585470000000  0.4439100000000  0.4898000000000 1.0
C      1  0.5488960000000  0.5261470000000  0.5318580000000 1.0
C      1  0.4715930000000  0.5485280000000  0.4729410000000 1.0
C      1  0.4477430000000  0.4716770000000  0.5292950000000 1.0
C      1  0.5268370000000  0.4507300000000  0.4740370000000 1.0
C      1  0.4593640000000  0.4993520000000  0.4466530000000 1.0
C      1  0.4958870000000  0.4545860000000  0.5557280000000 1.0
C      1  0.5503460000000  0.4942450000000  0.4488160000000 1.0
C      1  0.4994420000000  0.5439090000000  0.5555480000000 1.0
C      1  0.4382200000000  0.4926860000000  0.5109140000000 1.0
C      1  0.5059080000000  0.4400130000000  0.4915610000000 1.0
C      1  0.5598890000000  0.5048040000000  0.5149020000000 1.0
C      1  0.4929140000000  0.5577130000000  0.4911080000000 1.0
C      1  0.4836880000000  0.5417270000000  0.4486650000000 1.0
C      1  0.4561220000000  0.4867850000000  0.5518990000000 1.0
C      1  0.5138270000000  0.4605630000000  0.4504210000000 1.0
C      1  0.5392570000000  0.5114680000000  0.5543410000000 1.0
C      1  0.5176340000000  0.5612130000000  0.4749230000000 1.0
C      1  0.4333080000000  0.5178940000000  0.5260710000000 1.0
C      1  0.4819540000000  0.4365480000000  0.4752770000000 1.0
C      1  0.5633170000000  0.4795030000000  0.5304230000000 1.0
C      1  0.4865630000000  0.5677870000000  0.5175160000000 1.0
C      1  0.4322750000000  0.4871020000000  0.4830620000000 1.0
C      1  0.5106950000000  0.4302980000000  0.5184640000000 1.0
C      1  0.5691700000000  0.5095430000000  0.4882410000000 1.0
C      1  0.4672170000000  0.5068540000000  0.5028820000000 1.0
C      1  0.4932120000000  0.4678870000000  0.5067130000000 1.0
C      1  0.5308800000000  0.4909720000000  0.5042370000000 1.0
C      1  0.5046990000000  0.5302960000000  0.5063890000000 1.0
C      1  0.5250550000000  0.4842570000000  0.4382330000000 1.0
C      1  0.5129260000000  0.5188430000000  0.5590990000000 1.0
C      1  0.4814600000000  0.5152620000000  0.4370930000000 1.0
C      1  0.4822050000000  0.4796490000000  0.5581770000000 1.0
C      1  0.4612280000000  0.5563280000000  0.5265450000000 1.0
C      1  0.4454930000000  0.4636460000000  0.4740740000000 1.0
C      1  0.5351570000000  0.4415470000000  0.5292280000000 1.0
C      1  0.5574140000000  0.5330830000000  0.4758710000000 1.0
C      1  0.4854880000000  0.4533200000000  0.4523930000000 1.0
C      1  0.5460600000000  0.4824980000000  0.5527940000000 1.0
C      1  0.5111440000000  0.5513550000000  0.4493460000000 1.0
C      1  0.4493300000000  0.5155310000000  0.5494900000000 1.0
C      1  0.4871780000000  0.4906740000000  0.4898010000000 1.0
C      1  0.5134760000000  0.4800090000000  0.5252560000000 1.0
C      1  0.5261360000000  0.5313010000000  0.4369670000000 1.0
C      1  0.4835200000000  0.5182970000000  0.5244840000000 1.0
C      1  0.5630200000000  0.4856010000000  0.4723640000000 1.0
C      1  0.5096880000000  0.5599030000000  0.5346970000000 1.0
C      1  0.4414020000000  0.5095070000000  0.4668300000000 1.0
C      1  0.4870060000000  0.4381170000000  0.5344990000000 1.0
C      1  0.4701520000000  0.5369770000000  0.5465860000000 1.0
C      1  0.4620340000000  0.4704690000000  0.4510390000000 1.0
C      1  0.5253430000000  0.4611930000000  0.5486960000000 1.0
C      1  0.5498830000000  0.5234360000000  0.4495080000000 1.0
C      1  0.5093160000000  0.5080640000000  0.4315350000000 1.0
C      1  0.4980740000000  0.4992280000000  0.5421290000000 1.0
C      1  0.5106450000000  0.5065090000000  0.4899590000000 1.0
END
