TITL C-163632-8365-7 34.1152926529846 125000 -1052.51017676258 0 0 149 (C1) n - 1
REM
REM in /rds/project/t2_vol4/rds-t2-cs072/BORA/CARBON/from-Arr/AIRSS/Generating-Clusters/GAP-ML-2020/Higher-Symm/SD-CG/HFTN-CG
REM
REM
REM
REM
REM
REM ./C.cell (b20cbc046b6831c77cfcea5457e17084)
REM AIRSS Version 0.9.1 bugfix July 2018 build 013d7b7c2542+ Fri, 06 Jul 2018 19:26:36 +0100
REM compiler GCC version 9.3.0
REM options -cpp -mtune=generic -march=x86-64 -g -O0
REM seed -195443688 -1875695235 -2126671963 -844037986 619041709 -2091572127 -1772525792 -1369049894 -54313109 -696597195 -1486154859 162480272 1917309019 1961596496 1929844701 -1747612950 -1464168276 312443562 543094018 -186793816 1196399583 -802268138 -2124449791 624449734 1064699402 1982309136 1299205122 1026866538 -1327082497 849893648 -753879273 -203816622 -1377287576
REM
CELL 1.54180   50.00000   50.00000   50.00000   90.00000   90.00000   90.00000
LATT -1
SFAC C  
C      1  0.5859190000000  0.4853830000000  0.5192220000000 1.0
C      1  0.4070310000000  0.4848960000000  0.4735480000000 1.0
C      1  0.5966860000000  0.5134500000000  0.5182760000000 1.0
C      1  0.4068470000000  0.5137850000000  0.4733470000000 1.0
C      1  0.5445520000000  0.5635750000000  0.4373090000000 1.0
C      1  0.4487740000000  0.5647760000000  0.5586500000000 1.0
C      1  0.5443650000000  0.4360210000000  0.4371990000000 1.0
C      1  0.4529350000000  0.4375920000000  0.5583380000000 1.0
C      1  0.4314360000000  0.4325390000000  0.4708230000000 1.0
C      1  0.5663430000000  0.4368450000000  0.5225560000000 1.0
C      1  0.4316330000000  0.5677420000000  0.4696810000000 1.0
C      1  0.5661670000000  0.5634150000000  0.5228020000000 1.0
C      1  0.4076990000000  0.5145780000000  0.5187720000000 1.0
C      1  0.5933600000000  0.5146870000000  0.4722180000000 1.0
C      1  0.4078440000000  0.4849460000000  0.5192130000000 1.0
C      1  0.5932870000000  0.4846390000000  0.4720410000000 1.0
C      1  0.4738630000000  0.6010120000000  0.4755210000000 1.0
C      1  0.5228440000000  0.5953370000000  0.5223600000000 1.0
C      1  0.4736350000000  0.3990690000000  0.4757440000000 1.0
C      1  0.5234000000000  0.4036040000000  0.5215250000000 1.0
C      1  0.5636860000000  0.5559150000000  0.5513460000000 1.0
C      1  0.4365910000000  0.5608090000000  0.4401350000000 1.0
C      1  0.5638630000000  0.4405780000000  0.5520170000000 1.0
C      1  0.4374250000000  0.4412070000000  0.4418730000000 1.0
C      1  0.4516380000000  0.5133480000000  0.6155650000000 1.0
C      1  0.5225760000000  0.5128240000000  0.3818700000000 1.0
C      1  0.4541550000000  0.4876680000000  0.6156790000000 1.0
C      1  0.5225020000000  0.4872470000000  0.3816830000000 1.0
C      1  0.5546860000000  0.5145520000000  0.4105800000000 1.0
C      1  0.4473010000000  0.5159850000000  0.5685330000000 1.0
C      1  0.5554090000000  0.4855160000000  0.4103250000000 1.0
C      1  0.4489840000000  0.4855290000000  0.5697570000000 1.0
C      1  0.5127610000000  0.6038240000000  0.4975420000000 1.0
C      1  0.4845150000000  0.6044830000000  0.5011670000000 1.0
C      1  0.5126380000000  0.3953980000000  0.4970660000000 1.0
C      1  0.4844510000000  0.3949810000000  0.5013290000000 1.0
C      1  0.4832920000000  0.5828390000000  0.4333080000000 1.0
C      1  0.5121280000000  0.5775380000000  0.5645870000000 1.0
C      1  0.4831970000000  0.4178890000000  0.4337120000000 1.0
C      1  0.5153960000000  0.4206130000000  0.5643120000000 1.0
C      1  0.5910060000000  0.4689760000000  0.4955060000000 1.0
C      1  0.4111670000000  0.4690160000000  0.4961360000000 1.0
C      1  0.5933520000000  0.5304860000000  0.4960770000000 1.0
C      1  0.4115870000000  0.5301150000000  0.4954880000000 1.0
C      1  0.5783870000000  0.5146610000000  0.4261820000000 1.0
C      1  0.4186550000000  0.5140890000000  0.5647580000000 1.0
C      1  0.5788440000000  0.4857160000000  0.4261420000000 1.0
C      1  0.4200260000000  0.4859150000000  0.5655990000000 1.0
C      1  0.4772020000000  0.4030970000000  0.5283730000000 1.0
C      1  0.5199550000000  0.4039450000000  0.4703370000000 1.0
C      1  0.4765400000000  0.5963940000000  0.5277560000000 1.0
C      1  0.5202900000000  0.5956680000000  0.4706820000000 1.0
C      1  0.5369590000000  0.4295540000000  0.5224050000000 1.0
C      1  0.4495790000000  0.4102390000000  0.4663270000000 1.0
C      1  0.5360890000000  0.5692080000000  0.5230960000000 1.0
C      1  0.4496650000000  0.5903080000000  0.4658780000000 1.0
C      1  0.5568220000000  0.4649710000000  0.5690920000000 1.0
C      1  0.4473690000000  0.4624030000000  0.4247220000000 1.0
C      1  0.5630540000000  0.5300220000000  0.5644110000000 1.0
C      1  0.4458890000000  0.5397580000000  0.4228540000000 1.0
C      1  0.5693400000000  0.4469420000000  0.4490090000000 1.0
C      1  0.4278070000000  0.4472130000000  0.5445960000000 1.0
C      1  0.5693520000000  0.5526490000000  0.4494130000000 1.0
C      1  0.4254720000000  0.5532910000000  0.5436000000000 1.0
C      1  0.5018100000000  0.5933100000000  0.5421620000000 1.0
C      1  0.4950880000000  0.5958390000000  0.4565160000000 1.0
C      1  0.5027410000000  0.4059670000000  0.5420580000000 1.0
C      1  0.4947760000000  0.4043060000000  0.4565750000000 1.0
C      1  0.4907950000000  0.4734250000000  0.5581550000000 1.0
C      1  0.5115980000000  0.4726040000000  0.4571840000000 1.0
C      1  0.4899830000000  0.5266460000000  0.5550090000000 1.0
C      1  0.5134550000000  0.5281190000000  0.4572100000000 1.0
C      1  0.4897920000000  0.4556520000000  0.5012530000000 1.0
C      1  0.5176490000000  0.4562150000000  0.5144890000000 1.0
C      1  0.4895930000000  0.5430030000000  0.5003150000000 1.0
C      1  0.5182780000000  0.5432930000000  0.5138730000000 1.0
C      1  0.5187750000000  0.4866410000000  0.5959350000000 1.0
C      1  0.4855710000000  0.4858730000000  0.4147070000000 1.0
C      1  0.5270580000000  0.5144420000000  0.5901420000000 1.0
C      1  0.4817370000000  0.5133470000000  0.4251080000000 1.0
C      1  0.5298330000000  0.4720410000000  0.4088450000000 1.0
C      1  0.4653560000000  0.4739140000000  0.5916420000000 1.0
C      1  0.5283960000000  0.5275170000000  0.4088220000000 1.0
C      1  0.4607470000000  0.5296200000000  0.5901240000000 1.0
C      1  0.4228280000000  0.4427760000000  0.4957110000000 1.0
C      1  0.5784790000000  0.4429370000000  0.4976300000000 1.0
C      1  0.4237240000000  0.5561770000000  0.4942540000000 1.0
C      1  0.5789670000000  0.5567940000000  0.4983150000000 1.0
C      1  0.5846600000000  0.4707910000000  0.4486170000000 1.0
C      1  0.4125570000000  0.4710510000000  0.5437120000000 1.0
C      1  0.5846530000000  0.5289350000000  0.4490170000000 1.0
C      1  0.4106390000000  0.5289900000000  0.5430730000000 1.0
C      1  0.4554640000000  0.4190890000000  0.4393630000000 1.0
C      1  0.5407360000000  0.4244740000000  0.5533200000000 1.0
C      1  0.4553740000000  0.5825610000000  0.4385160000000 1.0
C      1  0.5375450000000  0.5692660000000  0.5539120000000 1.0
C      1  0.4883090000000  0.5062200000000  0.5067700000000 1.0
C      1  0.5371210000000  0.5001240000000  0.5104060000000 1.0
C      1  0.4638070000000  0.4936260000000  0.4979490000000 1.0
C      1  0.5569670000000  0.4883400000000  0.5262030000000 1.0
C      1  0.4715940000000  0.5137970000000  0.4577000000000 1.0
C      1  0.5377870000000  0.5139540000000  0.5621810000000 1.0
C      1  0.4684080000000  0.4883340000000  0.4704790000000 1.0
C      1  0.5427080000000  0.4845280000000  0.5510420000000 1.0
C      1  0.5663210000000  0.5670680000000  0.4741010000000 1.0
C      1  0.4311950000000  0.5679610000000  0.5197560000000 1.0
C      1  0.5663060000000  0.4319760000000  0.4734000000000 1.0
C      1  0.4318220000000  0.4315510000000  0.5212200000000 1.0
C      1  0.6026340000000  0.5110670000000  0.5460560000000 1.0
C      1  0.4101750000000  0.5151100000000  0.4450620000000 1.0
C      1  0.5980860000000  0.4816380000000  0.5470100000000 1.0
C      1  0.4109050000000  0.4845690000000  0.4451740000000 1.0
C      1  0.5148480000000  0.5243270000000  0.5408140000000 1.0
C      1  0.4885290000000  0.5355080000000  0.4704910000000 1.0
C      1  0.5146000000000  0.4749250000000  0.5395840000000 1.0
C      1  0.4883570000000  0.4651140000000  0.4722970000000 1.0
C      1  0.5066760000000  0.4417450000000  0.5817280000000 1.0
C      1  0.4947430000000  0.4395350000000  0.4196620000000 1.0
C      1  0.4966280000000  0.5617070000000  0.5834570000000 1.0
C      1  0.4945270000000  0.5606560000000  0.4194690000000 1.0
C      1  0.5840890000000  0.5120440000000  0.5673320000000 1.0
C      1  0.4311890000000  0.5155540000000  0.4251920000000 1.0
C      1  0.5809650000000  0.4823920000000  0.5694110000000 1.0
C      1  0.4324000000000  0.4860340000000  0.4257330000000 1.0
C      1  0.4543990000000  0.4185770000000  0.5361040000000 1.0
C      1  0.5424900000000  0.4190920000000  0.4613320000000 1.0
C      1  0.4529210000000  0.5818310000000  0.5348510000000 1.0
C      1  0.5427740000000  0.5802400000000  0.4617960000000 1.0
C      1  0.5083550000000  0.5362260000000  0.5936690000000 1.0
C      1  0.4739650000000  0.5394310000000  0.4154820000000 1.0
C      1  0.5293850000000  0.4615670000000  0.5882970000000 1.0
C      1  0.4744770000000  0.4608760000000  0.4155850000000 1.0
C      1  0.5352900000000  0.4746010000000  0.4975240000000 1.0
C      1  0.4697740000000  0.4729570000000  0.5159400000000 1.0
C      1  0.5361370000000  0.5255010000000  0.4969610000000 1.0
C      1  0.4703220000000  0.5268330000000  0.5151360000000 1.0
C      1  0.4678850000000  0.4844600000000  0.5439740000000 1.0
C      1  0.5318730000000  0.4851650000000  0.4713640000000 1.0
C      1  0.4670870000000  0.5161460000000  0.5426140000000 1.0
C      1  0.5327120000000  0.5144650000000  0.4713580000000 1.0
C      1  0.5238150000000  0.5555760000000  0.4179640000000 1.0
C      1  0.4666570000000  0.5575790000000  0.5807600000000 1.0
C      1  0.5238540000000  0.4445440000000  0.4181520000000 1.0
C      1  0.4769400000000  0.4500220000000  0.5757010000000 1.0
C      1  0.4918000000000  0.4891240000000  0.5856840000000 1.0
C      1  0.5118380000000  0.4849180000000  0.4284060000000 1.0
C      1  0.4879460000000  0.5182540000000  0.5843970000000 1.0
C      1  0.5115180000000  0.5151040000000  0.4295590000000 1.0
C      1  0.5109260000000  0.5004390000000  0.5247130000000 1.0
END
