TITL C-163619-4004-4 -213.233519401279 125000 -519.778366135852 0 0 77 (C1) n - 1
REM
REM in /rds/project/t2_vol4/rds-t2-cs072/BORA/CARBON/from-Arr/AIRSS/Generating-Clusters/GAP-ML-2020/Higher-Symm/SD-CG/HFTN-CG
REM
REM
REM
REM
REM
REM ./C.cell (b20cbc046b6831c77cfcea5457e17084)
REM AIRSS Version 0.9.1 bugfix July 2018 build 013d7b7c2542+ Fri, 06 Jul 2018 19:26:36 +0100
REM compiler GCC version 9.3.0
REM options -cpp -mtune=generic -march=x86-64 -g -O0
REM seed -1411212348 1429468646 610696922 307948384 -811429492 -78422489 1810014820 1752608441 -1980325130 773700707 -1476091188 298499092 1272061411 332787760 1406160107 -84074500 -824496105 -590604081 1046231586 -2032016766 889635760 -260016319 139022968 -21119695 -1909682613 553445254 1495696558 -122804305 1703108013 -729891464 1982033866 1374723681 -1980849705
REM
CELL 1.54180   50.00000   50.00000   50.00000   90.00000   90.00000   90.00000
LATT -1
SFAC C  
C      1  0.5302880000000  0.4953490000000  0.5425410000000 1.0
C      1  0.5176110000000  0.4705680000000  0.5529870000000 1.0
C      1  0.4852760000000  0.4686680000000  0.5497790000000 1.0
C      1  0.4702050000000  0.4943520000000  0.5430140000000 1.0
C      1  0.4740380000000  0.5219580000000  0.5565270000000 1.0
C      1  0.4991410000000  0.5355730000000  0.5429870000000 1.0
C      1  0.5267020000000  0.5248600000000  0.5520740000000 1.0
C      1  0.4688590000000  0.4884000000000  0.5923700000000 1.0
C      1  0.4774950000000  0.5144660000000  0.5852730000000 1.0
C      1  0.5034250000000  0.5188400000000  0.5967740000000 1.0
C      1  0.5272460000000  0.5217160000000  0.5819000000000 1.0
C      1  0.5218860000000  0.4971690000000  0.5943260000000 1.0
C      1  0.5123120000000  0.4732970000000  0.5822930000000 1.0
C      1  0.4841900000000  0.4695270000000  0.5798490000000 1.0
C      1  0.4817200000000  0.4731300000000  0.5043500000000 1.0
C      1  0.4730180000000  0.4973180000000  0.5147030000000 1.0
C      1  0.4798180000000  0.5202460000000  0.5017630000000 1.0
C      1  0.5023780000000  0.5282000000000  0.5142100000000 1.0
C      1  0.5273780000000  0.5197940000000  0.5026300000000 1.0
C      1  0.5273700000000  0.4935750000000  0.5144920000000 1.0
C      1  0.5111040000000  0.4735730000000  0.5019080000000 1.0
C      1  0.5656590000000  0.4973470000000  0.4239200000000 1.0
C      1  0.5452100000000  0.4507160000000  0.4256380000000 1.0
C      1  0.4974200000000  0.4328830000000  0.4233470000000 1.0
C      1  0.4691770000000  0.4709470000000  0.4260030000000 1.0
C      1  0.4603040000000  0.5222950000000  0.4240760000000 1.0
C      1  0.4800990000000  0.5418780000000  0.4235560000000 1.0
C      1  0.5312270000000  0.5324090000000  0.4232510000000 1.0
C      1  0.4938320000000  0.5655520000000  0.5356790000000 1.0
C      1  0.5439120000000  0.5423160000000  0.5338700000000 1.0
C      1  0.5554940000000  0.4854200000000  0.5214110000000 1.0
C      1  0.5321450000000  0.4493280000000  0.5393320000000 1.0
C      1  0.4758160000000  0.4498510000000  0.5244650000000 1.0
C      1  0.4420910000000  0.4926090000000  0.5356140000000 1.0
C      1  0.4494730000000  0.5364430000000  0.5483350000000 1.0
C      1  0.4584840000000  0.5454370000000  0.4419770000000 1.0
C      1  0.5071600000000  0.5384650000000  0.4336360000000 1.0
C      1  0.5531250000000  0.5196610000000  0.4341380000000 1.0
C      1  0.5585640000000  0.4732010000000  0.4362490000000 1.0
C      1  0.5216240000000  0.4392680000000  0.4357600000000 1.0
C      1  0.4777030000000  0.4472510000000  0.4365020000000 1.0
C      1  0.4623720000000  0.4952890000000  0.4346330000000 1.0
C      1  0.5227140000000  0.4319360000000  0.5185810000000 1.0
C      1  0.4480880000000  0.4468380000000  0.5232640000000 1.0
C      1  0.4314090000000  0.5189390000000  0.5339210000000 1.0
C      1  0.4488710000000  0.5553780000000  0.5266330000000 1.0
C      1  0.5142810000000  0.5834440000000  0.5380680000000 1.0
C      1  0.5550710000000  0.5291980000000  0.5130140000000 1.0
C      1  0.5553520000000  0.4573410000000  0.5242160000000 1.0
C      1  0.4763520000000  0.5648890000000  0.4878330000000 1.0
C      1  0.5246620000000  0.5680770000000  0.4951530000000 1.0
C      1  0.5686900000000  0.5012190000000  0.4773550000000 1.0
C      1  0.5456020000000  0.4488550000000  0.4771200000000 1.0
C      1  0.4952380000000  0.4308540000000  0.4799140000000 1.0
C      1  0.4281340000000  0.4828680000000  0.4960290000000 1.0
C      1  0.4358830000000  0.5303190000000  0.4851420000000 1.0
C      1  0.4739710000000  0.4445960000000  0.4649920000000 1.0
C      1  0.4370480000000  0.5021080000000  0.4793860000000 1.0
C      1  0.4582110000000  0.5454890000000  0.4708610000000 1.0
C      1  0.5034090000000  0.5612710000000  0.4797050000000 1.0
C      1  0.5551820000000  0.5232250000000  0.4629570000000 1.0
C      1  0.5541820000000  0.4767060000000  0.4655520000000 1.0
C      1  0.5190580000000  0.4433050000000  0.4652410000000 1.0
C      1  0.5084090000000  0.4719210000000  0.4711480000000 1.0
C      1  0.4768840000000  0.4718180000000  0.4748660000000 1.0
C      1  0.4628600000000  0.4964670000000  0.4641980000000 1.0
C      1  0.4783230000000  0.5222450000000  0.4724670000000 1.0
C      1  0.5049630000000  0.5353600000000  0.4632280000000 1.0
C      1  0.5275910000000  0.5188810000000  0.4727510000000 1.0
C      1  0.5272340000000  0.4907200000000  0.4621820000000 1.0
C      1  0.4964030000000  0.4305950000000  0.5081640000000 1.0
C      1  0.4331930000000  0.4695470000000  0.5196960000000 1.0
C      1  0.4309160000000  0.5369970000000  0.5113100000000 1.0
C      1  0.4716160000000  0.5674190000000  0.5160140000000 1.0
C      1  0.5303230000000  0.5670900000000  0.5226140000000 1.0
C      1  0.5697720000000  0.5051510000000  0.5055510000000 1.0
C      1  0.5477510000000  0.4397900000000  0.5027370000000 1.0
END
