TITL C-163640-8360-2 -120.885882792801 125000 -1036.86067510509 0 0 147 (C1) n - 1
REM
REM in /rds/project/t2_vol4/rds-t2-cs072/BORA/CARBON/from-Arr/AIRSS/Generating-Clusters/GAP-ML-2020/Higher-Symm/SD-CG/HFTN-CG
REM
REM
REM
REM
REM
REM ./C.cell (b20cbc046b6831c77cfcea5457e17084)
REM AIRSS Version 0.9.1 bugfix July 2018 build 013d7b7c2542+ Fri, 06 Jul 2018 19:26:36 +0100
REM compiler GCC version 9.3.0
REM options -cpp -mtune=generic -march=x86-64 -g -O0
REM seed -121768802 -1463495698 456192988 -2039528991 -1719720130 -1005382851 -1264093622 1049954862 -243139396 1130442042 -142835068 -1972596563 -1604403903 1627199796 -2144914256 -1378232077 1928581243 -1558561972 -1988501636 -232845275 -1879643984 177972123 275843127 313200068 1036898115 -504045680 -104574610 1345192778 210663594 487531042 -1069558426 745066297 70820563
REM
CELL 1.54180   50.00000   50.00000   50.00000   90.00000   90.00000   90.00000
LATT -1
SFAC C  
C      1  0.5255890000000  0.4879310000000  0.3907690000000 1.0
C      1  0.5006690000000  0.5311310000000  0.3906940000000 1.0
C      1  0.4758460000000  0.4880530000000  0.3902680000000 1.0
C      1  0.5240540000000  0.4827160000000  0.6089250000000 1.0
C      1  0.4997920000000  0.5261130000000  0.6090490000000 1.0
C      1  0.4742060000000  0.4831920000000  0.6089090000000 1.0
C      1  0.5256140000000  0.5167870000000  0.3901690000000 1.0
C      1  0.5006970000000  0.4736370000000  0.3902090000000 1.0
C      1  0.4757530000000  0.5168500000000  0.3899090000000 1.0
C      1  0.5244960000000  0.5114070000000  0.6093790000000 1.0
C      1  0.4989420000000  0.4685220000000  0.6094740000000 1.0
C      1  0.4746470000000  0.5119660000000  0.6096070000000 1.0
C      1  0.5247300000000  0.5171590000000  0.5193940000000 1.0
C      1  0.4671130000000  0.5121180000000  0.5221530000000 1.0
C      1  0.5046470000000  0.4549780000000  0.5178450000000 1.0
C      1  0.5370310000000  0.5274260000000  0.4812750000000 1.0
C      1  0.4650680000000  0.5176640000000  0.4806210000000 1.0
C      1  0.5021230000000  0.4707570000000  0.4793250000000 1.0
C      1  0.5308810000000  0.4646040000000  0.5135620000000 1.0
C      1  0.4631280000000  0.4841830000000  0.5127430000000 1.0
C      1  0.5041520000000  0.5383970000000  0.5120470000000 1.0
C      1  0.5306830000000  0.4777590000000  0.4866490000000 1.0
C      1  0.4557910000000  0.4912200000000  0.4845550000000 1.0
C      1  0.5152180000000  0.5448880000000  0.4855020000000 1.0
C      1  0.5738940000000  0.5122260000000  0.4488480000000 1.0
C      1  0.4551690000000  0.5590460000000  0.4508020000000 1.0
C      1  0.4751820000000  0.4346900000000  0.4508880000000 1.0
C      1  0.5703150000000  0.5128280000000  0.5475830000000 1.0
C      1  0.4525330000000  0.5546590000000  0.5507280000000 1.0
C      1  0.4734130000000  0.4284400000000  0.5494970000000 1.0
C      1  0.5731240000000  0.4834490000000  0.4507770000000 1.0
C      1  0.4496420000000  0.4482440000000  0.4498630000000 1.0
C      1  0.4798440000000  0.5740920000000  0.4511330000000 1.0
C      1  0.5699420000000  0.4838630000000  0.5480060000000 1.0
C      1  0.4490550000000  0.4436220000000  0.5481890000000 1.0
C      1  0.4776430000000  0.5685710000000  0.5497670000000 1.0
C      1  0.4555640000000  0.5212090000000  0.5904180000000 1.0
C      1  0.5006590000000  0.4475440000000  0.5900260000000 1.0
C      1  0.5414480000000  0.5226870000000  0.5889300000000 1.0
C      1  0.4569580000000  0.5256000000000  0.4096230000000 1.0
C      1  0.5020860000000  0.4531100000000  0.4104020000000 1.0
C      1  0.5428500000000  0.5290400000000  0.4092780000000 1.0
C      1  0.4553580000000  0.4751020000000  0.5881240000000 1.0
C      1  0.5020360000000  0.5465860000000  0.5886240000000 1.0
C      1  0.5404910000000  0.4710410000000  0.5882300000000 1.0
C      1  0.4573450000000  0.4795170000000  0.4106450000000 1.0
C      1  0.5023860000000  0.5511940000000  0.4116220000000 1.0
C      1  0.5421180000000  0.4759370000000  0.4114420000000 1.0
C      1  0.3999300000000  0.5158020000000  0.5135520000000 1.0
C      1  0.5363780000000  0.4034200000000  0.5141710000000 1.0
C      1  0.5639800000000  0.5782570000000  0.5144590000000 1.0
C      1  0.3995980000000  0.5168330000000  0.4845170000000 1.0
C      1  0.5361420000000  0.4056720000000  0.4852630000000 1.0
C      1  0.5652760000000  0.5802360000000  0.4855310000000 1.0
C      1  0.3988060000000  0.4865640000000  0.5128510000000 1.0
C      1  0.5391860000000  0.5938270000000  0.5149140000000 1.0
C      1  0.5623660000000  0.4173640000000  0.5143000000000 1.0
C      1  0.3981610000000  0.4874880000000  0.4837860000000 1.0
C      1  0.5400800000000  0.5956280000000  0.4859110000000 1.0
C      1  0.5621400000000  0.4192210000000  0.4853240000000 1.0
C      1  0.5460080000000  0.4443860000000  0.5785340000000 1.0
C      1  0.5231360000000  0.5639580000000  0.5787620000000 1.0
C      1  0.4298330000000  0.4846810000000  0.5781070000000 1.0
C      1  0.5470600000000  0.4491810000000  0.4212600000000 1.0
C      1  0.5222460000000  0.5695270000000  0.4214780000000 1.0
C      1  0.4313250000000  0.4875370000000  0.4201190000000 1.0
C      1  0.5475870000000  0.5490530000000  0.5785170000000 1.0
C      1  0.5210370000000  0.4293410000000  0.5795110000000 1.0
C      1  0.4295010000000  0.5133300000000  0.5794460000000 1.0
C      1  0.5479930000000  0.5558500000000  0.4203320000000 1.0
C      1  0.5221750000000  0.4351300000000  0.4213000000000 1.0
C      1  0.4312940000000  0.5166060000000  0.4203230000000 1.0
C      1  0.5764400000000  0.5600550000000  0.4689610000000 1.0
C      1  0.4129690000000  0.5367390000000  0.4693480000000 1.0
C      1  0.5126450000000  0.4087020000000  0.4698170000000 1.0
C      1  0.5738420000000  0.5559940000000  0.5290050000000 1.0
C      1  0.4120620000000  0.5352510000000  0.5301930000000 1.0
C      1  0.5126640000000  0.4037430000000  0.5297480000000 1.0
C      1  0.5735470000000  0.4403060000000  0.4701700000000 1.0
C      1  0.4102090000000  0.4671810000000  0.4682610000000 1.0
C      1  0.5160070000000  0.5961130000000  0.4710750000000 1.0
C      1  0.5739420000000  0.4376570000000  0.5302080000000 1.0
C      1  0.4103340000000  0.4660660000000  0.5285420000000 1.0
C      1  0.5158750000000  0.5924780000000  0.5308670000000 1.0
C      1  0.4739210000000  0.4876150000000  0.4361170000000 1.0
C      1  0.5271400000000  0.4868480000000  0.4362860000000 1.0
C      1  0.5016440000000  0.5321980000000  0.4368080000000 1.0
C      1  0.4725780000000  0.4823640000000  0.5637560000000 1.0
C      1  0.5248520000000  0.4818280000000  0.5630650000000 1.0
C      1  0.4991270000000  0.5283670000000  0.5637330000000 1.0
C      1  0.4749940000000  0.5182330000000  0.4349460000000 1.0
C      1  0.5282260000000  0.5168410000000  0.4346140000000 1.0
C      1  0.4997990000000  0.4724560000000  0.4353240000000 1.0
C      1  0.4730800000000  0.5134530000000  0.5654450000000 1.0
C      1  0.5249890000000  0.5118810000000  0.5639910000000 1.0
C      1  0.4982520000000  0.4665110000000  0.5648760000000 1.0
C      1  0.4922180000000  0.5979720000000  0.4875350000000 1.0
C      1  0.4198960000000  0.4451150000000  0.4843470000000 1.0
C      1  0.5882970000000  0.4592060000000  0.4863430000000 1.0
C      1  0.4916040000000  0.5964240000000  0.5157370000000 1.0
C      1  0.4199910000000  0.4438810000000  0.5125920000000 1.0
C      1  0.5880820000000  0.4576940000000  0.5145930000000 1.0
C      1  0.4883910000000  0.4051220000000  0.4851070000000 1.0
C      1  0.4234330000000  0.5582970000000  0.4860400000000 1.0
C      1  0.5902300000000  0.5390050000000  0.4842100000000 1.0
C      1  0.4882260000000  0.4026670000000  0.5135210000000 1.0
C      1  0.4227770000000  0.5574370000000  0.5146820000000 1.0
C      1  0.5887730000000  0.5373660000000  0.5127420000000 1.0
C      1  0.4650980000000  0.4126110000000  0.5269190000000 1.0
C      1  0.5900520000000  0.5122890000000  0.5265550000000 1.0
C      1  0.4428280000000  0.5715460000000  0.5293180000000 1.0
C      1  0.4662860000000  0.4166280000000  0.4713480000000 1.0
C      1  0.5924830000000  0.5139720000000  0.4708960000000 1.0
C      1  0.4437970000000  0.5734640000000  0.4729730000000 1.0
C      1  0.4684000000000  0.5860170000000  0.5288710000000 1.0
C      1  0.5898940000000  0.4829230000000  0.5274130000000 1.0
C      1  0.4398030000000  0.4279490000000  0.5259930000000 1.0
C      1  0.4692110000000  0.5883230000000  0.4736320000000 1.0
C      1  0.5917370000000  0.4844270000000  0.4726260000000 1.0
C      1  0.4407420000000  0.4309970000000  0.4710130000000 1.0
C      1  0.5104340000000  0.5786130000000  0.4476700000000 1.0
C      1  0.4285640000000  0.4726160000000  0.4457680000000 1.0
C      1  0.5608530000000  0.4538970000000  0.4473130000000 1.0
C      1  0.5131770000000  0.5730590000000  0.5525180000000 1.0
C      1  0.4274290000000  0.4721650000000  0.5514040000000 1.0
C      1  0.5580800000000  0.4485310000000  0.5520930000000 1.0
C      1  0.5122730000000  0.4277350000000  0.4481520000000 1.0
C      1  0.4293110000000  0.5289090000000  0.4467890000000 1.0
C      1  0.5608940000000  0.5511110000000  0.4459890000000 1.0
C      1  0.5107250000000  0.4207490000000  0.5534160000000 1.0
C      1  0.4275650000000  0.5271540000000  0.5533940000000 1.0
C      1  0.5602150000000  0.5435670000000  0.5517460000000 1.0
C      1  0.4974620000000  0.4450220000000  0.5445360000000 1.0
C      1  0.5414490000000  0.5220190000000  0.5422130000000 1.0
C      1  0.4555140000000  0.5248870000000  0.5451260000000 1.0
C      1  0.4985410000000  0.4523220000000  0.4567110000000 1.0
C      1  0.5483890000000  0.5261900000000  0.4541930000000 1.0
C      1  0.4573450000000  0.5300760000000  0.4553020000000 1.0
C      1  0.4994500000000  0.5495890000000  0.5420720000000 1.0
C      1  0.5432150000000  0.4716860000000  0.5410630000000 1.0
C      1  0.4548390000000  0.4724020000000  0.5414890000000 1.0
C      1  0.5027660000000  0.5518770000000  0.4593700000000 1.0
C      1  0.5439590000000  0.4757550000000  0.4583380000000 1.0
C      1  0.4554890000000  0.4777590000000  0.4577540000000 1.0
C      1  0.4854180000000  0.4680660000000  0.5024200000000 1.0
C      1  0.4781890000000  0.5289860000000  0.5028580000000 1.0
C      1  0.5359070000000  0.5044030000000  0.4968160000000 1.0
END
