TITL C-163631-8269-1 29.5392935005967 125000 -1209.57666309606 0 0 173 (C2v) n - 1
REM
REM in /rds/project/t2_vol4/rds-t2-cs072/BORA/CARBON/from-Arr/AIRSS/Generating-Clusters/GAP-ML-2020/Higher-Symm/SD-CG/HFTN-CG
REM
REM
REM
REM
REM
REM ./C.cell (b20cbc046b6831c77cfcea5457e17084)
REM AIRSS Version 0.9.1 bugfix July 2018 build 013d7b7c2542+ Fri, 06 Jul 2018 19:26:36 +0100
REM compiler GCC version 9.3.0
REM options -cpp -mtune=generic -march=x86-64 -g -O0
REM seed 1410168028 1824793877 1126483252 459975152 179002742 919226308 1775529413 761204816 -1342445474 1712172800 -296821671 -1435791377 -477804858 -1463659161 117477259 -472196661 1558144311 515500151 1382671964 1232289142 -199236062 733671047 1187199192 518014724 -951116197 -137308273 -531627140 601196742 -571739257 -470265396 1604695911 -1296568471 1881491250
REM
CELL 1.54180   50.00000   50.00000   50.00000   90.00000   90.00000   90.00000
LATT -1
SFAC C  
C      1  0.5528610000000  0.5240620000000  0.4616460000000 1.0
C      1  0.4471610000000  0.4757180000000  0.4616450000000 1.0
C      1  0.5528610000000  0.4757180000000  0.4616460000000 1.0
C      1  0.4471610000000  0.5240620000000  0.4616450000000 1.0
C      1  0.5972280000000  0.4429430000000  0.4776210000000 1.0
C      1  0.4027930000000  0.5568380000000  0.4776190000000 1.0
C      1  0.5972290000000  0.5568380000000  0.4776210000000 1.0
C      1  0.4027920000000  0.4429430000000  0.4776190000000 1.0
C      1  0.5288830000000  0.6026040000000  0.4970150000000 1.0
C      1  0.4711380000000  0.3971760000000  0.4970140000000 1.0
C      1  0.5288830000000  0.3971760000000  0.4970150000000 1.0
C      1  0.4711380000000  0.6026040000000  0.4970140000000 1.0
C      1  0.5796960000000  0.5571660000000  0.4331490000000 1.0
C      1  0.4203260000000  0.4426150000000  0.4331470000000 1.0
C      1  0.5796960000000  0.4426140000000  0.4331490000000 1.0
C      1  0.4203260000000  0.5571660000000  0.4331470000000 1.0
C      1  0.4844970000000  0.4690290000000  0.4298830000000 1.0
C      1  0.5155250000000  0.5307520000000  0.4298830000000 1.0
C      1  0.4844970000000  0.5307520000000  0.4298830000000 1.0
C      1  0.5155250000000  0.4690290000000  0.4298830000000 1.0
C      1  0.5295660000000  0.5735970000000  0.4603320000000 1.0
C      1  0.4704560000000  0.4261840000000  0.4603310000000 1.0
C      1  0.5295650000000  0.4261840000000  0.4603320000000 1.0
C      1  0.4704560000000  0.5735970000000  0.4603310000000 1.0
C      1  0.5862420000000  0.5294880000000  0.4285220000000 1.0
C      1  0.4137800000000  0.4702920000000  0.4285200000000 1.0
C      1  0.5862420000000  0.4702920000000  0.4285220000000 1.0
C      1  0.4137800000000  0.5294890000000  0.4285200000000 1.0
C      1  0.5937240000000  0.5716300000000  0.5021060000000 1.0
C      1  0.4062970000000  0.4281510000000  0.5021040000000 1.0
C      1  0.5937240000000  0.4281500000000  0.5021060000000 1.0
C      1  0.4062970000000  0.5716300000000  0.5021040000000 1.0
C      1  0.4739600000000  0.5156600000000  0.5055160000000 1.0
C      1  0.5260600000000  0.4841210000000  0.5055170000000 1.0
C      1  0.4739600000000  0.4841210000000  0.5055160000000 1.0
C      1  0.5260600000000  0.5156600000000  0.5055170000000 1.0
C      1  0.4735860000000  0.4846100000000  0.4560530000000 1.0
C      1  0.5264350000000  0.5151700000000  0.4560530000000 1.0
C      1  0.4735860000000  0.5151700000000  0.4560530000000 1.0
C      1  0.5264350000000  0.4846100000000  0.4560530000000 1.0
C      1  0.5241520000000  0.5197110000000  0.5501710000000 1.0
C      1  0.4758670000000  0.4800700000000  0.5501700000000 1.0
C      1  0.5241520000000  0.4800700000000  0.5501710000000 1.0
C      1  0.4758670000000  0.5197110000000  0.5501700000000 1.0
C      1  0.4433150000000  0.5821230000000  0.4666190000000 1.0
C      1  0.5567060000000  0.4176580000000  0.4666200000000 1.0
C      1  0.4433150000000  0.4176580000000  0.4666190000000 1.0
C      1  0.5567060000000  0.5821230000000  0.4666200000000 1.0
C      1  0.4852530000000  0.5336690000000  0.5968820000000 1.0
C      1  0.5147650000000  0.4661110000000  0.5968830000000 1.0
C      1  0.4852530000000  0.4661110000000  0.5968820000000 1.0
C      1  0.5147650000000  0.5336690000000  0.5968830000000 1.0
C      1  0.5167670000000  0.4436620000000  0.4847670000000 1.0
C      1  0.4832540000000  0.5561190000000  0.4847660000000 1.0
C      1  0.5167670000000  0.5561180000000  0.4847670000000 1.0
C      1  0.4832540000000  0.4436620000000  0.4847660000000 1.0
C      1  0.4253370000000  0.4842940000000  0.5614880000000 1.0
C      1  0.5746820000000  0.5154870000000  0.5614900000000 1.0
C      1  0.4253370000000  0.5154870000000  0.5614880000000 1.0
C      1  0.5746820000000  0.4842940000000  0.5614900000000 1.0
C      1  0.4013400000000  0.4730430000000  0.4770100000000 1.0
C      1  0.5986810000000  0.5267380000000  0.4770120000000 1.0
C      1  0.4013400000000  0.5267380000000  0.4770100000000 1.0
C      1  0.5986810000000  0.4730430000000  0.4770120000000 1.0
C      1  0.5161570000000  0.4112310000000  0.5206140000000 1.0
C      1  0.4838630000000  0.5885500000000  0.5206130000000 1.0
C      1  0.5161580000000  0.5885500000000  0.5206140000000 1.0
C      1  0.4838630000000  0.4112310000000  0.5206130000000 1.0
C      1  0.4119880000000  0.5535760000000  0.5224310000000 1.0
C      1  0.5880320000000  0.4462050000000  0.5224330000000 1.0
C      1  0.4119880000000  0.4462050000000  0.5224310000000 1.0
C      1  0.5880320000000  0.5535760000000  0.5224330000000 1.0
C      1  0.5595310000000  0.4715020000000  0.4138510000000 1.0
C      1  0.4404910000000  0.5282790000000  0.4138500000000 1.0
C      1  0.5595310000000  0.5282790000000  0.4138510000000 1.0
C      1  0.4404910000000  0.4715020000000  0.4138500000000 1.0
C      1  0.4858430000000  0.5352070000000  0.5266310000000 1.0
C      1  0.5141770000000  0.4645730000000  0.5266310000000 1.0
C      1  0.4858420000000  0.4645730000000  0.5266310000000 1.0
C      1  0.5141780000000  0.5352070000000  0.5266310000000 1.0
C      1  0.6043610000000  0.4701090000000  0.5243620000000 1.0
C      1  0.3956590000000  0.5296720000000  0.5243600000000 1.0
C      1  0.6043610000000  0.5296710000000  0.5243620000000 1.0
C      1  0.3956590000000  0.4701090000000  0.5243600000000 1.0
C      1  0.4855830000000  0.4388320000000  0.5878280000000 1.0
C      1  0.5144360000000  0.5609480000000  0.5878280000000 1.0
C      1  0.4855830000000  0.5609490000000  0.5878280000000 1.0
C      1  0.5144360000000  0.4388320000000  0.5878280000000 1.0
C      1  0.6005370000000  0.4856300000000  0.5475300000000 1.0
C      1  0.3994830000000  0.5141510000000  0.5475270000000 1.0
C      1  0.6005370000000  0.5141510000000  0.5475300000000 1.0
C      1  0.3994830000000  0.4856300000000  0.5475270000000 1.0
C      1  0.5538920000000  0.5551490000000  0.4214180000000 1.0
C      1  0.4461300000000  0.4446320000000  0.4214170000000 1.0
C      1  0.5538920000000  0.4446320000000  0.4214180000000 1.0
C      1  0.4461310000000  0.5551490000000  0.4214170000000 1.0
C      1  0.4196610000000  0.5685680000000  0.4581020000000 1.0
C      1  0.5803610000000  0.4312130000000  0.4581030000000 1.0
C      1  0.4196600000000  0.4312130000000  0.4581020000000 1.0
C      1  0.5803610000000  0.5685680000000  0.4581030000000 1.0
C      1  0.4323360000000  0.4843410000000  0.4848840000000 1.0
C      1  0.5676850000000  0.5154390000000  0.4848850000000 1.0
C      1  0.4323360000000  0.5154390000000  0.4848840000000 1.0
C      1  0.5676850000000  0.4843410000000  0.4848850000000 1.0
C      1  0.5518420000000  0.5570790000000  0.5593470000000 1.0
C      1  0.4481770000000  0.4427010000000  0.5593460000000 1.0
C      1  0.5518420000000  0.4427010000000  0.5593470000000 1.0
C      1  0.4481770000000  0.5570790000000  0.5593460000000 1.0
C      1  0.4005720000000  0.5139800000000  0.4489590000000 1.0
C      1  0.5994500000000  0.4858000000000  0.4489610000000 1.0
C      1  0.4005720000000  0.4858010000000  0.4489590000000 1.0
C      1  0.5994500000000  0.5139800000000  0.4489610000000 1.0
C      1  0.5543490000000  0.5245550000000  0.5113130000000 1.0
C      1  0.4456720000000  0.4752260000000  0.5113120000000 1.0
C      1  0.5543490000000  0.4752260000000  0.5113130000000 1.0
C      1  0.4456720000000  0.5245550000000  0.5113120000000 1.0
C      1  0.5300730000000  0.5731360000000  0.5673950000000 1.0
C      1  0.4699460000000  0.4266450000000  0.5673940000000 1.0
C      1  0.5300730000000  0.4266450000000  0.5673950000000 1.0
C      1  0.4699460000000  0.5731360000000  0.5673940000000 1.0
C      1  0.5276110000000  0.5605720000000  0.5143790000000 1.0
C      1  0.4724100000000  0.4392080000000  0.5143780000000 1.0
C      1  0.5276110000000  0.4392080000000  0.5143790000000 1.0
C      1  0.4724100000000  0.5605720000000  0.5143780000000 1.0
C      1  0.5331820000000  0.4829090000000  0.5819820000000 1.0
C      1  0.4668370000000  0.5168720000000  0.5819810000000 1.0
C      1  0.5331820000000  0.5168710000000  0.5819820000000 1.0
C      1  0.4668370000000  0.4829090000000  0.5819810000000 1.0
C      1  0.5352980000000  0.5140610000000  0.4121450000000 1.0
C      1  0.4647250000000  0.4857200000000  0.4121440000000 1.0
C      1  0.5352980000000  0.4857200000000  0.4121450000000 1.0
C      1  0.4647250000000  0.5140610000000  0.4121440000000 1.0
C      1  0.4429250000000  0.4470500000000  0.5279790000000 1.0
C      1  0.5570950000000  0.5527310000000  0.5279800000000 1.0
C      1  0.4429250000000  0.5527310000000  0.5279790000000 1.0
C      1  0.5570950000000  0.4470500000000  0.5279810000000 1.0
C      1  0.4465780000000  0.4856710000000  0.5389400000000 1.0
C      1  0.5534420000000  0.5141100000000  0.5389410000000 1.0
C      1  0.4465780000000  0.5141100000000  0.5389400000000 1.0
C      1  0.5534420000000  0.4856700000000  0.5389410000000 1.0
C      1  0.5138680000000  0.4022470000000  0.4721800000000 1.0
C      1  0.4861540000000  0.5975340000000  0.4721790000000 1.0
C      1  0.5138680000000  0.5975340000000  0.4721800000000 1.0
C      1  0.4861530000000  0.4022470000000  0.4721790000000 1.0
C      1  0.6104380000000  0.4855050000000  0.5008560000000 1.0
C      1  0.3895830000000  0.5142750000000  0.5008540000000 1.0
C      1  0.6104380000000  0.5142750000000  0.5008560000000 1.0
C      1  0.3895830000000  0.4855060000000  0.5008540000000 1.0
C      1  0.4856650000000  0.4098160000000  0.5504410000000 1.0
C      1  0.5143550000000  0.5899650000000  0.5504420000000 1.0
C      1  0.4856650000000  0.5899650000000  0.5504410000000 1.0
C      1  0.5143550000000  0.4098160000000  0.5504420000000 1.0
C      1  0.5293360000000  0.4415010000000  0.4340310000000 1.0
C      1  0.4706860000000  0.5582790000000  0.4340300000000 1.0
C      1  0.5293360000000  0.5582790000000  0.4340310000000 1.0
C      1  0.4706860000000  0.4415010000000  0.4340300000000 1.0
C      1  0.4418870000000  0.4663410000000  0.5762430000000 1.0
C      1  0.5581320000000  0.5334390000000  0.5762440000000 1.0
C      1  0.4418870000000  0.5334400000000  0.5762430000000 1.0
C      1  0.5581320000000  0.4663410000000  0.5762440000000 1.0
C      1  0.5150060000000  0.5263410000000  0.4804360000000 1.0
C      1  0.4850150000000  0.4734400000000  0.4804360000000 1.0
C      1  0.5150060000000  0.4734400000000  0.4804360000000 1.0
C      1  0.4850150000000  0.5263410000000  0.4804360000000 1.0
C      1  0.4435500000000  0.4017780000000  0.4903920000000 1.0
C      1  0.5564700000000  0.5980030000000  0.4903930000000 1.0
C      1  0.4435510000000  0.5980030000000  0.4903920000000 1.0
C      1  0.5564700000000  0.4017780000000  0.4903930000000 1.0
C      1  0.5808880000000  0.4027210000000  0.5025210000000 1.0
C      1  0.4191320000000  0.5970600000000  0.5025200000000 1.0
C      1  0.5808890000000  0.5970600000000  0.5025210000000 1.0
C      1  0.4191320000000  0.4027210000000  0.5025200000000 1.0
C      1  0.5000100000000  0.4998900000000  0.5508390000000 1.0
END
