TITL C-163642-8296-2 0.0215292296450915 125000 -628.480151306271 0 0 92 (C1) n - 1
REM
REM in /rds/project/t2_vol4/rds-t2-cs072/BORA/CARBON/from-Arr/AIRSS/Generating-Clusters/GAP-ML-2020/Higher-Symm/SD-CG/HFTN-CG
REM
REM
REM
REM
REM
REM ./C.cell (b20cbc046b6831c77cfcea5457e17084)
REM AIRSS Version 0.9.1 bugfix July 2018 build 013d7b7c2542+ Fri, 06 Jul 2018 19:26:36 +0100
REM compiler GCC version 9.3.0
REM options -cpp -mtune=generic -march=x86-64 -g -O0
REM seed -1931575067 1495195090 1110262133 1129713572 -1219968131 -1727788108 323909518 778388640 -619609664 512770789 789615485 1050416978 395480192 -1058737751 -1995129338 -1289084632 -2036080475 1133635533 2060803957 722624453 1334945532 -1167423487 -1682148584 804861479 -2045539681 -1047624182 1660387815 -63337717 768616047 749048768 -1783685634 2093871240 1993773417
REM
CELL 1.54180   50.00000   50.00000   50.00000   90.00000   90.00000   90.00000
LATT -1
SFAC C  
C      1  0.5657910000000  0.4525710000000  0.5155100000000 1.0
C      1  0.5472000000000  0.4548740000000  0.5382420000000 1.0
C      1  0.5030410000000  0.4362550000000  0.5480550000000 1.0
C      1  0.5832590000000  0.5161570000000  0.4923080000000 1.0
C      1  0.4422820000000  0.4940670000000  0.5630050000000 1.0
C      1  0.5214660000000  0.5230080000000  0.4706140000000 1.0
C      1  0.5404430000000  0.5011320000000  0.5126060000000 1.0
C      1  0.5171020000000  0.5052900000000  0.5724610000000 1.0
C      1  0.5056980000000  0.5341620000000  0.5204460000000 1.0
C      1  0.5334250000000  0.4755480000000  0.5182490000000 1.0
C      1  0.5566000000000  0.4539100000000  0.4675290000000 1.0
C      1  0.5481800000000  0.4722060000000  0.5615780000000 1.0
C      1  0.4453940000000  0.5044660000000  0.4329680000000 1.0
C      1  0.5475720000000  0.5404110000000  0.5472960000000 1.0
C      1  0.4531510000000  0.5719270000000  0.5289220000000 1.0
C      1  0.4180270000000  0.4980470000000  0.5157290000000 1.0
C      1  0.5596390000000  0.5294340000000  0.4487230000000 1.0
C      1  0.4850790000000  0.5486230000000  0.5635160000000 1.0
C      1  0.4687950000000  0.4729430000000  0.4395010000000 1.0
C      1  0.4566850000000  0.4843270000000  0.5197170000000 1.0
C      1  0.5515910000000  0.4401120000000  0.4937950000000 1.0
C      1  0.4894500000000  0.4591310000000  0.5107320000000 1.0
C      1  0.5713560000000  0.5347040000000  0.5333490000000 1.0
C      1  0.4397980000000  0.4772130000000  0.4441720000000 1.0
C      1  0.4393760000000  0.5050020000000  0.5364200000000 1.0
C      1  0.5108320000000  0.5839560000000  0.4413930000000 1.0
C      1  0.4734800000000  0.4690310000000  0.5709310000000 1.0
C      1  0.5867660000000  0.4697060000000  0.5128740000000 1.0
C      1  0.4769190000000  0.5558860000000  0.4609880000000 1.0
C      1  0.4687120000000  0.4975800000000  0.5751750000000 1.0
C      1  0.4852530000000  0.5711170000000  0.4875980000000 1.0
C      1  0.4418580000000  0.5290770000000  0.4419600000000 1.0
C      1  0.5261260000000  0.5722630000000  0.4626220000000 1.0
C      1  0.4466040000000  0.4656160000000  0.5592240000000 1.0
C      1  0.4393500000000  0.5665640000000  0.5045650000000 1.0
C      1  0.4251660000000  0.4546070000000  0.4872270000000 1.0
C      1  0.4609080000000  0.5832240000000  0.5031600000000 1.0
C      1  0.4862490000000  0.5491990000000  0.5052900000000 1.0
C      1  0.5886710000000  0.4966640000000  0.5140610000000 1.0
C      1  0.5433950000000  0.5477820000000  0.4665960000000 1.0
C      1  0.4384490000000  0.5406630000000  0.4887690000000 1.0
C      1  0.4545070000000  0.4910100000000  0.4897080000000 1.0
C      1  0.5723260000000  0.5084840000000  0.4669960000000 1.0
C      1  0.4875940000000  0.4219510000000  0.4563400000000 1.0
C      1  0.4277240000000  0.5112450000000  0.4933180000000 1.0
C      1  0.5609310000000  0.4974660000000  0.5577750000000 1.0
C      1  0.4542910000000  0.4338040000000  0.5210550000000 1.0
C      1  0.5416930000000  0.5176670000000  0.5637620000000 1.0
C      1  0.5213710000000  0.5100250000000  0.4202220000000 1.0
C      1  0.4954250000000  0.4439620000000  0.4424320000000 1.0
C      1  0.4878230000000  0.5146050000000  0.5365830000000 1.0
C      1  0.4595840000000  0.5260780000000  0.5314390000000 1.0
C      1  0.4230380000000  0.4662020000000  0.4624880000000 1.0
C      1  0.5743200000000  0.5403530000000  0.5054120000000 1.0
C      1  0.5279400000000  0.4338370000000  0.5355620000000 1.0
C      1  0.4972930000000  0.4972770000000  0.4958190000000 1.0
C      1  0.5174280000000  0.4598180000000  0.5001030000000 1.0
C      1  0.4752430000000  0.5110660000000  0.4834470000000 1.0
C      1  0.4523440000000  0.4361420000000  0.4924450000000 1.0
C      1  0.4621160000000  0.5518200000000  0.5463710000000 1.0
C      1  0.5290930000000  0.4928110000000  0.4612580000000 1.0
C      1  0.5213080000000  0.4769440000000  0.5714900000000 1.0
C      1  0.4632430000000  0.5318950000000  0.5019910000000 1.0
C      1  0.4486040000000  0.5462390000000  0.4611140000000 1.0
C      1  0.4970550000000  0.4184040000000  0.5033310000000 1.0
C      1  0.5426740000000  0.4473410000000  0.4456010000000 1.0
C      1  0.4870850000000  0.5740610000000  0.4394200000000 1.0
C      1  0.4899440000000  0.5163660000000  0.5668810000000 1.0
C      1  0.5229540000000  0.4848560000000  0.4333210000000 1.0
C      1  0.4698940000000  0.4595190000000  0.4870170000000 1.0
C      1  0.5570540000000  0.4840340000000  0.4657310000000 1.0
C      1  0.4414990000000  0.4579760000000  0.5306910000000 1.0
C      1  0.5066560000000  0.5631660000000  0.5571440000000 1.0
C      1  0.4791480000000  0.4188950000000  0.4818480000000 1.0
C      1  0.4834680000000  0.4319350000000  0.5259720000000 1.0
C      1  0.5449490000000  0.5227900000000  0.4266650000000 1.0
C      1  0.5206930000000  0.4555590000000  0.4327830000000 1.0
C      1  0.5090380000000  0.4771980000000  0.4764180000000 1.0
C      1  0.5257370000000  0.4303200000000  0.5060570000000 1.0
C      1  0.5253120000000  0.5551570000000  0.5351010000000 1.0
C      1  0.5196950000000  0.5159830000000  0.5008060000000 1.0
C      1  0.4923570000000  0.5266610000000  0.4606040000000 1.0
C      1  0.5146460000000  0.5772710000000  0.4883390000000 1.0
C      1  0.4850570000000  0.4638840000000  0.4616540000000 1.0
C      1  0.5333210000000  0.5684530000000  0.5079360000000 1.0
C      1  0.4944040000000  0.5151820000000  0.4320850000000 1.0
C      1  0.4859430000000  0.4871200000000  0.5216760000000 1.0
C      1  0.5797310000000  0.5082280000000  0.5392030000000 1.0
C      1  0.4729810000000  0.4979450000000  0.4262820000000 1.0
C      1  0.5546300000000  0.5561960000000  0.4933500000000 1.0
C      1  0.4994560000000  0.4581000000000  0.5667850000000 1.0
C      1  0.4202440000000  0.4682400000000  0.5122890000000 1.0
END
