TITL C-163632-8365-8 0.0312919064690379 125000 -530.474853135339 0 0 78 (C1) n - 1
REM
REM in /rds/project/t2_vol4/rds-t2-cs072/BORA/CARBON/from-Arr/AIRSS/Generating-Clusters/GAP-ML-2020/Higher-Symm/SD-CG/HFTN-CG
REM
REM
REM
REM
REM
REM ./C.cell (b20cbc046b6831c77cfcea5457e17084)
REM AIRSS Version 0.9.1 bugfix July 2018 build 013d7b7c2542+ Fri, 06 Jul 2018 19:26:36 +0100
REM compiler GCC version 9.3.0
REM options -cpp -mtune=generic -march=x86-64 -g -O0
REM seed -1828852852 -642553484 -644810814 -854784080 -167006332 -439554755 1440885664 174164520 1932455686 -24355795 -560933886 139255016 1597337849 1598977670 958406416 -1702922770 -2132516543 -1939196296 157792982 -1421502804 -1506240552 -944180740 1933890825 612744213 -455230586 1000865526 1877910701 -1404406574 1730460100 712532186 905594367 97309011 693770150
REM
CELL 1.54180   50.00000   50.00000   50.00000   90.00000   90.00000   90.00000
LATT -1
SFAC C  
C      1  0.5577500000000  0.4986420000000  0.4757570000000 1.0
C      1  0.4734900000000  0.5530460000000  0.4748010000000 1.0
C      1  0.4678380000000  0.4532060000000  0.4786730000000 1.0
C      1  0.4428540000000  0.4969050000000  0.5240860000000 1.0
C      1  0.5274420000000  0.5499100000000  0.5228940000000 1.0
C      1  0.5310070000000  0.4498320000000  0.5252330000000 1.0
C      1  0.4866750000000  0.5205010000000  0.5096620000000 1.0
C      1  0.4910950000000  0.4774080000000  0.5308180000000 1.0
C      1  0.5290330000000  0.5023100000000  0.5182310000000 1.0
C      1  0.5178720000000  0.5248690000000  0.4740230000000 1.0
C      1  0.5097360000000  0.4773070000000  0.4852900000000 1.0
C      1  0.4774820000000  0.5043200000000  0.4663000000000 1.0
C      1  0.5156500000000  0.4748010000000  0.5172080000000 1.0
C      1  0.5115430000000  0.5241360000000  0.5221070000000 1.0
C      1  0.4743500000000  0.4937720000000  0.5139800000000 1.0
C      1  0.4803310000000  0.4822910000000  0.4853380000000 1.0
C      1  0.4891950000000  0.5266850000000  0.4799990000000 1.0
C      1  0.5288830000000  0.5015920000000  0.4856860000000 1.0
C      1  0.5358270000000  0.4540530000000  0.5548850000000 1.0
C      1  0.5206500000000  0.5497750000000  0.5523710000000 1.0
C      1  0.4438200000000  0.4872410000000  0.5524920000000 1.0
C      1  0.4630760000000  0.4575120000000  0.4489690000000 1.0
C      1  0.4777240000000  0.5557610000000  0.4452620000000 1.0
C      1  0.5554610000000  0.4926200000000  0.4459640000000 1.0
C      1  0.5110130000000  0.5121630000000  0.5837880000000 1.0
C      1  0.4839310000000  0.5038660000000  0.5833240000000 1.0
C      1  0.5048870000000  0.4848320000000  0.5849510000000 1.0
C      1  0.4876880000000  0.5144620000000  0.4158290000000 1.0
C      1  0.5135190000000  0.5033790000000  0.4149300000000 1.0
C      1  0.4909960000000  0.4867510000000  0.4190700000000 1.0
C      1  0.5159670000000  0.4261000000000  0.4883500000000 1.0
C      1  0.5573340000000  0.5525130000000  0.4873220000000 1.0
C      1  0.4371210000000  0.5212390000000  0.4716630000000 1.0
C      1  0.4826100000000  0.4269420000000  0.5141440000000 1.0
C      1  0.4452300000000  0.5481640000000  0.5110870000000 1.0
C      1  0.5744700000000  0.5223360000000  0.5118210000000 1.0
C      1  0.5562150000000  0.5457120000000  0.5153810000000 1.0
C      1  0.4401000000000  0.5268510000000  0.5292440000000 1.0
C      1  0.5121210000000  0.4275420000000  0.5167440000000 1.0
C      1  0.4460000000000  0.5445040000000  0.4834040000000 1.0
C      1  0.5695710000000  0.5256500000000  0.4837390000000 1.0
C      1  0.4867670000000  0.4308270000000  0.4858830000000 1.0
C      1  0.5242150000000  0.5622630000000  0.4509560000000 1.0
C      1  0.4390460000000  0.4847910000000  0.4506180000000 1.0
C      1  0.5388720000000  0.4511930000000  0.4543220000000 1.0
C      1  0.4722140000000  0.5560700000000  0.5474550000000 1.0
C      1  0.5663890000000  0.4889690000000  0.5467530000000 1.0
C      1  0.4589190000000  0.4509680000000  0.5501570000000 1.0
C      1  0.5114920000000  0.4613290000000  0.4565450000000 1.0
C      1  0.5298300000000  0.5334910000000  0.4487360000000 1.0
C      1  0.4536730000000  0.5119160000000  0.4488400000000 1.0
C      1  0.4869610000000  0.4584670000000  0.5524980000000 1.0
C      1  0.4546600000000  0.5324820000000  0.5525550000000 1.0
C      1  0.5459770000000  0.5092680000000  0.5479130000000 1.0
C      1  0.4698860000000  0.5307240000000  0.4317530000000 1.0
C      1  0.4890240000000  0.4652530000000  0.4379640000000 1.0
C      1  0.5365980000000  0.5106380000000  0.4322050000000 1.0
C      1  0.5302920000000  0.5255830000000  0.5659010000000 1.0
C      1  0.5106470000000  0.4610600000000  0.5690470000000 1.0
C      1  0.4602180000000  0.5079820000000  0.5665120000000 1.0
C      1  0.4326090000000  0.4797570000000  0.5020150000000 1.0
C      1  0.5525770000000  0.4530350000000  0.5020380000000 1.0
C      1  0.5148740000000  0.5676710000000  0.5012100000000 1.0
C      1  0.5669650000000  0.4777740000000  0.4977570000000 1.0
C      1  0.4469350000000  0.4542420000000  0.5008000000000 1.0
C      1  0.4861530000000  0.5686560000000  0.4984080000000 1.0
C      1  0.5333130000000  0.5668530000000  0.4789590000000 1.0
C      1  0.4295450000000  0.4937280000000  0.4774420000000 1.0
C      1  0.5406860000000  0.4386340000000  0.4805030000000 1.0
C      1  0.4675710000000  0.5641930000000  0.5197230000000 1.0
C      1  0.5758060000000  0.4944070000000  0.5192890000000 1.0
C      1  0.4586250000000  0.4407030000000  0.5228070000000 1.0
C      1  0.4379250000000  0.4610770000000  0.4365160000000 1.0
C      1  0.5589820000000  0.4651680000000  0.4411370000000 1.0
C      1  0.5004100000000  0.5719090000000  0.4404850000000 1.0
C      1  0.5616060000000  0.4643940000000  0.5587530000000 1.0
C      1  0.4359730000000  0.4621780000000  0.5618300000000 1.0
C      1  0.4962090000000  0.5608450000000  0.5589000000000 1.0
END
