TITL C-163623-8347-2 -0.11190450705167 125000 -436.296328408704 0 0 64 (D2) n - 1
REM
REM in /rds/project/t2_vol4/rds-t2-cs072/BORA/CARBON/from-Arr/AIRSS/Generating-Clusters/GAP-ML-2020/Higher-Symm/SD-CG/HFTN-CG
REM
REM
REM
REM
REM
REM ./C.cell (b20cbc046b6831c77cfcea5457e17084)
REM AIRSS Version 0.9.1 bugfix July 2018 build 013d7b7c2542+ Fri, 06 Jul 2018 19:26:36 +0100
REM compiler GCC version 9.3.0
REM options -cpp -mtune=generic -march=x86-64 -g -O0
REM seed 1002369955 -1332170441 -1289659225 1303578846 -2093990379 650623142 708376909 -432666599 1196881884 -1285129675 -1568933497 -1441332173 -463257235 553099435 1460184224 1354346098 1404147166 1525580934 2074631735 1012267785 -1960765364 577527570 -1794242931 -2026828058 -183572993 1214202441 735670598 -576433494 390331087 -813382778 -1821710014 878349851 -1593585894
REM
CELL 1.54180   50.00000   50.00000   50.00000   90.00000   90.00000   90.00000
LATT -1
SFAC C  
C      1  0.4850630000000  0.4992050000000  0.5208300000000 1.0
C      1  0.4850650000000  0.5007940000000  0.4791690000000 1.0
C      1  0.5149370000000  0.4992050000000  0.4791700000000 1.0
C      1  0.5149350000000  0.5007960000000  0.5208310000000 1.0
C      1  0.5187460000000  0.5594440000000  0.4701590000000 1.0
C      1  0.5187500000000  0.4405580000000  0.5298420000000 1.0
C      1  0.4812470000000  0.5594430000000  0.5298390000000 1.0
C      1  0.4812570000000  0.4405550000000  0.4701600000000 1.0
C      1  0.5059270000000  0.5333060000000  0.4266460000000 1.0
C      1  0.5059240000000  0.4666950000000  0.5733540000000 1.0
C      1  0.4940690000000  0.5333080000000  0.5733520000000 1.0
C      1  0.4940800000000  0.4666910000000  0.4266470000000 1.0
C      1  0.4455760000000  0.5302220000000  0.4970610000000 1.0
C      1  0.4455790000000  0.4697720000000  0.5029340000000 1.0
C      1  0.5544200000000  0.5302280000000  0.5029380000000 1.0
C      1  0.5544240000000  0.4697780000000  0.4970670000000 1.0
C      1  0.5068870000000  0.4356180000000  0.4585020000000 1.0
C      1  0.5068760000000  0.5643830000000  0.5414990000000 1.0
C      1  0.4931200000000  0.4356180000000  0.5415000000000 1.0
C      1  0.4931170000000  0.5643810000000  0.4584990000000 1.0
C      1  0.5153660000000  0.5485030000000  0.5625100000000 1.0
C      1  0.5153770000000  0.4514990000000  0.4374910000000 1.0
C      1  0.4846280000000  0.5484990000000  0.4374880000000 1.0
C      1  0.4846280000000  0.4515000000000  0.5625110000000 1.0
C      1  0.4610110000000  0.4685050000000  0.5520690000000 1.0
C      1  0.4610120000000  0.5314910000000  0.4479270000000 1.0
C      1  0.5389930000000  0.4685070000000  0.4479320000000 1.0
C      1  0.5389840000000  0.5314970000000  0.5520720000000 1.0
C      1  0.5411890000000  0.5449000000000  0.4583780000000 1.0
C      1  0.5411900000000  0.4551040000000  0.5416250000000 1.0
C      1  0.4588060000000  0.5448970000000  0.5416200000000 1.0
C      1  0.4588150000000  0.4550980000000  0.4583760000000 1.0
C      1  0.5307330000000  0.4740550000000  0.5596610000000 1.0
C      1  0.5307360000000  0.5259480000000  0.4403410000000 1.0
C      1  0.4692700000000  0.4740500000000  0.4403390000000 1.0
C      1  0.4692610000000  0.5259470000000  0.5596580000000 1.0
C      1  0.4721860000000  0.4382420000000  0.5217630000000 1.0
C      1  0.4721810000000  0.5617550000000  0.4782340000000 1.0
C      1  0.5278210000000  0.4382440000000  0.4782390000000 1.0
C      1  0.5278120000000  0.5617590000000  0.5217640000000 1.0
C      1  0.4909560000000  0.4899160000000  0.5776560000000 1.0
C      1  0.4909620000000  0.5100830000000  0.4223430000000 1.0
C      1  0.5090450000000  0.4899140000000  0.4223450000000 1.0
C      1  0.5090370000000  0.5100870000000  0.5776560000000 1.0
C      1  0.4725110000000  0.4959380000000  0.5528440000000 1.0
C      1  0.4725160000000  0.5040590000000  0.4471530000000 1.0
C      1  0.5274890000000  0.4959390000000  0.4471560000000 1.0
C      1  0.5274840000000  0.5040640000000  0.5528470000000 1.0
C      1  0.5250780000000  0.4790680000000  0.5004680000000 1.0
C      1  0.5250750000000  0.5209340000000  0.4995340000000 1.0
C      1  0.4749250000000  0.4790650000000  0.4995320000000 1.0
C      1  0.4749220000000  0.5209320000000  0.5004650000000 1.0
C      1  0.5595620000000  0.4594750000000  0.5212360000000 1.0
C      1  0.5595590000000  0.5405320000000  0.4787690000000 1.0
C      1  0.4404430000000  0.4594670000000  0.4787650000000 1.0
C      1  0.4404360000000  0.5405260000000  0.5212290000000 1.0
C      1  0.4505190000000  0.4557740000000  0.5290840000000 1.0
C      1  0.4505160000000  0.5442200000000  0.4709120000000 1.0
C      1  0.5494870000000  0.4557790000000  0.4709180000000 1.0
C      1  0.5494790000000  0.5442270000000  0.5290870000000 1.0
C      1  0.5145240000000  0.5513150000000  0.4977020000000 1.0
C      1  0.5145300000000  0.4486870000000  0.5023000000000 1.0
C      1  0.4854700000000  0.5513140000000  0.5022960000000 1.0
C      1  0.4854760000000  0.4486850000000  0.4977020000000 1.0
END
