TITL C-163618-8356-5 0.158461892827588 125000 -867.139163417255 0 0 123 (C1) n - 1
REM
REM in /rds/project/t2_vol4/rds-t2-cs072/BORA/CARBON/from-Arr/AIRSS/Generating-Clusters/GAP-ML-2020/Higher-Symm/SD-CG/HFTN-CG
REM
REM
REM
REM
REM
REM ./C.cell (b20cbc046b6831c77cfcea5457e17084)
REM AIRSS Version 0.9.1 bugfix July 2018 build 013d7b7c2542+ Fri, 06 Jul 2018 19:26:36 +0100
REM compiler GCC version 9.3.0
REM options -cpp -mtune=generic -march=x86-64 -g -O0
REM seed -308741731 -1310785019 -81003384 -1313471050 1254749656 -1278582089 -154589826 759257618 1373785906 1797667499 1648428836 1070372409 -1728197975 -574073090 -2053848631 -1113788413 871184307 1945128561 1369837810 1916963548 -1565943646 1390173883 1887941960 -1511814008 1946597467 -582651676 429051838 -38300251 2043026580 -1195257640 1249608426 -10586808 996216062
REM
CELL 1.54180   50.00000   50.00000   50.00000   90.00000   90.00000   90.00000
LATT -1
SFAC C  
C      1  0.5570330000000  0.4597250000000  0.4178600000000 1.0
C      1  0.5558530000000  0.5709600000000  0.5129220000000 1.0
C      1  0.5608750000000  0.4530150000000  0.5517790000000 1.0
C      1  0.4466760000000  0.4592950000000  0.4207200000000 1.0
C      1  0.4464650000000  0.5706260000000  0.5121370000000 1.0
C      1  0.4396720000000  0.4538920000000  0.5516070000000 1.0
C      1  0.5546320000000  0.4750140000000  0.5671230000000 1.0
C      1  0.5628190000000  0.5701110000000  0.4862860000000 1.0
C      1  0.5691980000000  0.4701310000000  0.4398060000000 1.0
C      1  0.4467130000000  0.4753140000000  0.5666360000000 1.0
C      1  0.4400950000000  0.5686210000000  0.4854980000000 1.0
C      1  0.4285340000000  0.4679240000000  0.4385760000000 1.0
C      1  0.5281640000000  0.4267310000000  0.4666230000000 1.0
C      1  0.5296550000000  0.5646120000000  0.4497820000000 1.0
C      1  0.5292880000000  0.5181720000000  0.5873490000000 1.0
C      1  0.4699380000000  0.4195530000000  0.4642410000000 1.0
C      1  0.4713990000000  0.5667720000000  0.4485070000000 1.0
C      1  0.4729570000000  0.5182720000000  0.5857950000000 1.0
C      1  0.5283670000000  0.4204750000000  0.5356130000000 1.0
C      1  0.5298620000000  0.5671590000000  0.5600790000000 1.0
C      1  0.5273310000000  0.5075170000000  0.4156690000000 1.0
C      1  0.4720390000000  0.4206290000000  0.5343590000000 1.0
C      1  0.4721410000000  0.5668380000000  0.5593570000000 1.0
C      1  0.4703620000000  0.5078420000000  0.4111730000000 1.0
C      1  0.5169110000000  0.4709220000000  0.5289760000000 1.0
C      1  0.5215720000000  0.5046880000000  0.4663870000000 1.0
C      1  0.5259320000000  0.5176060000000  0.5103480000000 1.0
C      1  0.4866890000000  0.4691180000000  0.5176540000000 1.0
C      1  0.4736820000000  0.4929480000000  0.4560660000000 1.0
C      1  0.4792520000000  0.5188980000000  0.5096390000000 1.0
C      1  0.5222850000000  0.4767340000000  0.4834260000000 1.0
C      1  0.5293330000000  0.4888860000000  0.5109010000000 1.0
C      1  0.5327800000000  0.5252530000000  0.4836200000000 1.0
C      1  0.4750930000000  0.4681480000000  0.4683240000000 1.0
C      1  0.4708580000000  0.4938350000000  0.5173200000000 1.0
C      1  0.4786130000000  0.5297300000000  0.4825710000000 1.0
C      1  0.4220620000000  0.5011730000000  0.5317330000000 1.0
C      1  0.4186590000000  0.4750890000000  0.4843150000000 1.0
C      1  0.4169680000000  0.5264540000000  0.4868040000000 1.0
C      1  0.5801560000000  0.5015500000000  0.5327910000000 1.0
C      1  0.5821560000000  0.4765700000000  0.4852400000000 1.0
C      1  0.5850700000000  0.5276750000000  0.4879020000000 1.0
C      1  0.4164760000000  0.5014240000000  0.4700740000000 1.0
C      1  0.4217680000000  0.4754410000000  0.5139930000000 1.0
C      1  0.4198720000000  0.5276310000000  0.5177790000000 1.0
C      1  0.5836060000000  0.5027030000000  0.4712590000000 1.0
C      1  0.5805750000000  0.4758230000000  0.5151480000000 1.0
C      1  0.5823010000000  0.5281770000000  0.5189330000000 1.0
C      1  0.5677030000000  0.4983940000000  0.4458510000000 1.0
C      1  0.5660520000000  0.5509490000000  0.5304930000000 1.0
C      1  0.5681630000000  0.4528990000000  0.5259480000000 1.0
C      1  0.4282310000000  0.4966300000000  0.4427020000000 1.0
C      1  0.4363210000000  0.5502960000000  0.5292700000000 1.0
C      1  0.4355110000000  0.4534690000000  0.5250700000000 1.0
C      1  0.5635700000000  0.5004600000000  0.5576630000000 1.0
C      1  0.5746810000000  0.5498890000000  0.4732820000000 1.0
C      1  0.5669330000000  0.4591360000000  0.4667920000000 1.0
C      1  0.4382260000000  0.5005210000000  0.5566380000000 1.0
C      1  0.4286770000000  0.5480520000000  0.4723810000000 1.0
C      1  0.4302300000000  0.4557050000000  0.4648530000000 1.0
C      1  0.4848290000000  0.5321370000000  0.4103200000000 1.0
C      1  0.4861990000000  0.5643420000000  0.5829230000000 1.0
C      1  0.4857760000000  0.4060510000000  0.5141060000000 1.0
C      1  0.5138400000000  0.5316530000000  0.4111770000000 1.0
C      1  0.5154060000000  0.5645420000000  0.5834460000000 1.0
C      1  0.5146620000000  0.4073920000000  0.5144930000000 1.0
C      1  0.4862420000000  0.5395280000000  0.5972470000000 1.0
C      1  0.4856140000000  0.5564730000000  0.4264570000000 1.0
C      1  0.4854350000000  0.4077600000000  0.4850620000000 1.0
C      1  0.5153510000000  0.5395980000000  0.5977200000000 1.0
C      1  0.5149250000000  0.5557200000000  0.4271940000000 1.0
C      1  0.5145390000000  0.4102020000000  0.4856500000000 1.0
C      1  0.4573100000000  0.5496090000000  0.4675900000000 1.0
C      1  0.4513390000000  0.5230960000000  0.5673670000000 1.0
C      1  0.4560890000000  0.4447320000000  0.4677320000000 1.0
C      1  0.5458630000000  0.5489930000000  0.4683420000000 1.0
C      1  0.5507410000000  0.5232940000000  0.5685290000000 1.0
C      1  0.5405810000000  0.4521940000000  0.4734430000000 1.0
C      1  0.4505500000000  0.5481860000000  0.5537250000000 1.0
C      1  0.4542690000000  0.5044500000000  0.4352130000000 1.0
C      1  0.4630990000000  0.4463570000000  0.5255610000000 1.0
C      1  0.5517310000000  0.5486590000000  0.5549480000000 1.0
C      1  0.5411260000000  0.5065150000000  0.4408690000000 1.0
C      1  0.5395160000000  0.4462450000000  0.5299270000000 1.0
C      1  0.4866850000000  0.5902330000000  0.4926320000000 1.0
C      1  0.4718950000000  0.4708230000000  0.5798940000000 1.0
C      1  0.4865070000000  0.4361980000000  0.4171730000000 1.0
C      1  0.5151500000000  0.5897060000000  0.4929640000000 1.0
C      1  0.5297900000000  0.4701400000000  0.5811610000000 1.0
C      1  0.5149750000000  0.4378570000000  0.4180640000000 1.0
C      1  0.4718120000000  0.5833330000000  0.5153710000000 1.0
C      1  0.4709570000000  0.4589400000000  0.4096960000000 1.0
C      1  0.4859950000000  0.4465550000000  0.5777260000000 1.0
C      1  0.5302400000000  0.5833170000000  0.5158170000000 1.0
C      1  0.5306950000000  0.4596490000000  0.4094230000000 1.0
C      1  0.5147380000000  0.4462770000000  0.5783030000000 1.0
C      1  0.3861120000000  0.5005100000000  0.4741490000000 1.0
C      1  0.3885260000000  0.5238400000000  0.5188790000000 1.0
C      1  0.3912390000000  0.4746850000000  0.5166350000000 1.0
C      1  0.6141090000000  0.5012240000000  0.4735720000000 1.0
C      1  0.6135810000000  0.5242680000000  0.5191150000000 1.0
C      1  0.6110340000000  0.4753590000000  0.5162460000000 1.0
C      1  0.3914120000000  0.4987450000000  0.5317710000000 1.0
C      1  0.3862730000000  0.5244860000000  0.4902420000000 1.0
C      1  0.3881400000000  0.4750360000000  0.4881180000000 1.0
C      1  0.6109640000000  0.4991060000000  0.5320260000000 1.0
C      1  0.6152000000000  0.5244950000000  0.4904890000000 1.0
C      1  0.6123900000000  0.4756840000000  0.4876220000000 1.0
C      1  0.4864420000000  0.5856970000000  0.4637720000000 1.0
C      1  0.4867480000000  0.4935530000000  0.5869800000000 1.0
C      1  0.4861320000000  0.4192440000000  0.4407280000000 1.0
C      1  0.5153810000000  0.5844520000000  0.4642380000000 1.0
C      1  0.5153680000000  0.4932570000000  0.5882980000000 1.0
C      1  0.5150150000000  0.4220070000000  0.4422800000000 1.0
C      1  0.4864170000000  0.5807720000000  0.5392540000000 1.0
C      1  0.4857080000000  0.4841160000000  0.4039060000000 1.0
C      1  0.4854520000000  0.4234770000000  0.5594690000000 1.0
C      1  0.5156320000000  0.5808570000000  0.5395930000000 1.0
C      1  0.5144380000000  0.4842500000000  0.4056740000000 1.0
C      1  0.5143870000000  0.4227920000000  0.5604710000000 1.0
C      1  0.4943480000000  0.4670330000000  0.4886240000000 1.0
C      1  0.5028950000000  0.5263230000000  0.5240340000000 1.0
C      1  0.4923760000000  0.5119020000000  0.4649070000000 1.0
END
