TITL C-163617-8398-1 -0.0785659200127599 125000 -365.870679651446 0 0 54 (C1) n - 1
REM
REM in /rds/project/t2_vol4/rds-t2-cs072/BORA/CARBON/from-Arr/AIRSS/Generating-Clusters/GAP-ML-2020/Higher-Symm/SD-CG/HFTN-CG
REM
REM
REM
REM
REM
REM ./C.cell (b20cbc046b6831c77cfcea5457e17084)
REM AIRSS Version 0.9.1 bugfix July 2018 build 013d7b7c2542+ Fri, 06 Jul 2018 19:26:36 +0100
REM compiler GCC version 9.3.0
REM options -cpp -mtune=generic -march=x86-64 -g -O0
REM seed -810248253 214083605 284458404 -156126744 -1614831378 551627454 476715762 2061990383 1598266691 -306053313 -1161895271 1123285825 -990256508 1053568107 -2024311445 -2020576705 1250417680 -180910311 -1465881522 1490633324 -1142403611 -429553484 -336857187 79445182 -889159119 -2096465044 -383332714 -380263867 -709401466 -206317394 -1764464136 -579655009 487124280
REM
CELL 1.54180   50.00000   50.00000   50.00000   90.00000   90.00000   90.00000
LATT -1
SFAC C  
C      1  0.5103140000000  0.5549580000000  0.5280190000000 1.0
C      1  0.4481130000000  0.4837470000000  0.5370310000000 1.0
C      1  0.5467330000000  0.4674710000000  0.5401130000000 1.0
C      1  0.4886750000000  0.5533780000000  0.4721480000000 1.0
C      1  0.5568350000000  0.4869500000000  0.4738420000000 1.0
C      1  0.4623200000000  0.4684890000000  0.4659770000000 1.0
C      1  0.5162830000000  0.5472920000000  0.4671880000000 1.0
C      1  0.4509140000000  0.4922580000000  0.4532970000000 1.0
C      1  0.5366570000000  0.4682820000000  0.4642010000000 1.0
C      1  0.4837130000000  0.5475380000000  0.5359390000000 1.0
C      1  0.5505050000000  0.4953220000000  0.5416090000000 1.0
C      1  0.4734180000000  0.4695040000000  0.5411100000000 1.0
C      1  0.5322390000000  0.4421240000000  0.4755940000000 1.0
C      1  0.5384210000000  0.5596680000000  0.4804680000000 1.0
C      1  0.4330970000000  0.5019930000000  0.4757250000000 1.0
C      1  0.4695270000000  0.4380590000000  0.5070480000000 1.0
C      1  0.4610800000000  0.5549750000000  0.5193050000000 1.0
C      1  0.5696470000000  0.5095300000000  0.5248870000000 1.0
C      1  0.4679150000000  0.5122850000000  0.4484720000000 1.0
C      1  0.5100850000000  0.4784690000000  0.4617980000000 1.0
C      1  0.5245400000000  0.5206510000000  0.4657850000000 1.0
C      1  0.5267740000000  0.5083650000000  0.5309880000000 1.0
C      1  0.4950860000000  0.4612310000000  0.5567280000000 1.0
C      1  0.4721190000000  0.5253010000000  0.5464010000000 1.0
C      1  0.4512630000000  0.5121260000000  0.5342400000000 1.0
C      1  0.5188070000000  0.4612980000000  0.5441760000000 1.0
C      1  0.5312440000000  0.5363040000000  0.5282230000000 1.0
C      1  0.5519900000000  0.5154030000000  0.4705250000000 1.0
C      1  0.4899810000000  0.4589260000000  0.4608640000000 1.0
C      1  0.4701040000000  0.5305630000000  0.4714510000000 1.0
C      1  0.4448660000000  0.5315330000000  0.5132810000000 1.0
C      1  0.4849740000000  0.4233660000000  0.4900800000000 1.0
C      1  0.5572560000000  0.5341960000000  0.5155600000000 1.0
C      1  0.5579870000000  0.5383990000000  0.4869710000000 1.0
C      1  0.5025760000000  0.4361520000000  0.4734000000000 1.0
C      1  0.4429350000000  0.5262040000000  0.4857310000000 1.0
C      1  0.4388570000000  0.4558560000000  0.4791060000000 1.0
C      1  0.5715490000000  0.4783730000000  0.4971500000000 1.0
C      1  0.4855770000000  0.5737720000000  0.4918110000000 1.0
C      1  0.5579880000000  0.4572340000000  0.5140840000000 1.0
C      1  0.4325210000000  0.4696310000000  0.5172490000000 1.0
C      1  0.5103200000000  0.5760800000000  0.5084990000000 1.0
C      1  0.4822790000000  0.4657420000000  0.5129860000000 1.0
C      1  0.5215680000000  0.4914090000000  0.5076510000000 1.0
C      1  0.4829320000000  0.5083350000000  0.4875430000000 1.0
C      1  0.5101830000000  0.4674980000000  0.5165350000000 1.0
C      1  0.4699470000000  0.4843630000000  0.4935740000000 1.0
C      1  0.5090180000000  0.5009990000000  0.4816690000000 1.0
C      1  0.5879980000000  0.4967620000000  0.5100280000000 1.0
C      1  0.4620190000000  0.5780830000000  0.5053020000000 1.0
C      1  0.4422550000000  0.4443910000000  0.5047270000000 1.0
C      1  0.4248710000000  0.4798170000000  0.4910320000000 1.0
C      1  0.5335110000000  0.5816150000000  0.4950230000000 1.0
C      1  0.5476140000000  0.4377290000000  0.4978550000000 1.0
END
