TITL C-163621-8348-1 -29.4557391755246 125000 -84.6538110085594 0 0 14 (C1) n - 1
REM
REM in /rds/project/t2_vol4/rds-t2-cs072/BORA/CARBON/from-Arr/AIRSS/Generating-Clusters/GAP-ML-2020/Higher-Symm/SD-CG/HFTN-CG
REM
REM
REM
REM
REM
REM ./C.cell (b20cbc046b6831c77cfcea5457e17084)
REM AIRSS Version 0.9.1 bugfix July 2018 build 013d7b7c2542+ Fri, 06 Jul 2018 19:26:36 +0100
REM compiler GCC version 9.3.0
REM options -cpp -mtune=generic -march=x86-64 -g -O0
REM seed 2108167946 1385853779 -1654729806 906821630 -1846376949 -639538321 -883791465 153040546 581845521 661212986 2098058818 2085806965 1346426051 1679813328 65318390 759265724 439620717 -1069898869 504981753 130388263 2031132353 -1232554341 677540738 -2102029513 -884431647 1497006490 -1811369890 13224399 -647120430 -725726838 -903213773 599136851 824040157
REM
CELL 1.54180   50.00000   50.00000   50.00000   90.00000   90.00000   90.00000
LATT -1
SFAC C  
C      1  0.5667570000000  0.5225120000000  0.5011770000000 1.0
C      1  0.5602750000000  0.5183060000000  0.4759220000000 1.0
C      1  0.5451830000000  0.4979560000000  0.4685730000000 1.0
C      1  0.5477260000000  0.4836770000000  0.5159490000000 1.0
C      1  0.5618760000000  0.5053410000000  0.5208540000000 1.0
C      1  0.4472290000000  0.4778620000000  0.5076430000000 1.0
C      1  0.4486320000000  0.4960120000000  0.5262330000000 1.0
C      1  0.4469300000000  0.5253720000000  0.4854000000000 1.0
C      1  0.4464110000000  0.5017220000000  0.4744780000000 1.0
C      1  0.4454310000000  0.4756760000000  0.4809160000000 1.0
C      1  0.5294390000000  0.4877660000000  0.4921440000000 1.0
C      1  0.4869340000000  0.5136430000000  0.5068310000000 1.0
C      1  0.5057980000000  0.5003300000000  0.4981060000000 1.0
C      1  0.4603220000000  0.5183110000000  0.5108010000000 1.0
END
