TITL C-163626-8365-4 -133.419957786088 125000 -594.33347448499 0 0 87 (C1) n - 1
REM
REM in /rds/project/t2_vol4/rds-t2-cs072/BORA/CARBON/from-Arr/AIRSS/Generating-Clusters/GAP-ML-2020/Higher-Symm/SD-CG/HFTN-CG
REM
REM
REM
REM
REM
REM ./C.cell (b20cbc046b6831c77cfcea5457e17084)
REM AIRSS Version 0.9.1 bugfix July 2018 build 013d7b7c2542+ Fri, 06 Jul 2018 19:26:36 +0100
REM compiler GCC version 9.3.0
REM options -cpp -mtune=generic -march=x86-64 -g -O0
REM seed 1384578594 -525484188 -770502809 970885941 2126422303 -1592690354 1687665929 -870847839 958270261 1949137753 236100371 1119267186 1466111073 1835741365 -1983456270 715125100 -2141799127 -221834677 446059140 -643634558 -1336679893 -1767752514 795341967 354359283 -1536293450 -1613536145 -1036647119 -167730469 -418870986 -455659590 -551947767 -1381243654 892433052
REM
CELL 1.54180   50.00000   50.00000   50.00000   90.00000   90.00000   90.00000
LATT -1
SFAC C  
C      1  0.4490540000000  0.5653300000000  0.4752350000000 1.0
C      1  0.4678480000000  0.5664910000000  0.4516270000000 1.0
C      1  0.5263380000000  0.5717840000000  0.4428140000000 1.0
C      1  0.5548870000000  0.5650050000000  0.4932570000000 1.0
C      1  0.5506100000000  0.5642610000000  0.5224800000000 1.0
C      1  0.5036780000000  0.5643250000000  0.5575050000000 1.0
C      1  0.4593060000000  0.5545950000000  0.5276720000000 1.0
C      1  0.5336070000000  0.4361670000000  0.4568120000000 1.0
C      1  0.5530810000000  0.4364750000000  0.4982220000000 1.0
C      1  0.5337240000000  0.4353720000000  0.5395630000000 1.0
C      1  0.4895680000000  0.4337920000000  0.5513790000000 1.0
C      1  0.4519030000000  0.4348490000000  0.5230480000000 1.0
C      1  0.4528940000000  0.4372360000000  0.4761220000000 1.0
C      1  0.4887080000000  0.4366220000000  0.4471920000000 1.0
C      1  0.5253520000000  0.4968760000000  0.5821840000000 1.0
C      1  0.4538210000000  0.4951170000000  0.5689400000000 1.0
C      1  0.4212990000000  0.5004520000000  0.5025760000000 1.0
C      1  0.4466730000000  0.4996950000000  0.4350670000000 1.0
C      1  0.5148390000000  0.5011010000000  0.4207440000000 1.0
C      1  0.5716090000000  0.4999380000000  0.4613350000000 1.0
C      1  0.5761910000000  0.4985820000000  0.5320040000000 1.0
C      1  0.5516160000000  0.5382090000000  0.5325050000000 1.0
C      1  0.5097640000000  0.5393460000000  0.5646720000000 1.0
C      1  0.4584230000000  0.5343140000000  0.5483510000000 1.0
C      1  0.4393210000000  0.5391710000000  0.4808760000000 1.0
C      1  0.4720770000000  0.5403710000000  0.4409540000000 1.0
C      1  0.5246210000000  0.5452550000000  0.4421790000000 1.0
C      1  0.5573280000000  0.5396070000000  0.4812550000000 1.0
C      1  0.5090010000000  0.5217060000000  0.5396260000000 1.0
C      1  0.4805340000000  0.5181220000000  0.5329920000000 1.0
C      1  0.4647840000000  0.5231410000000  0.4873150000000 1.0
C      1  0.4843340000000  0.5244630000000  0.4634090000000 1.0
C      1  0.5112390000000  0.5352030000000  0.4676160000000 1.0
C      1  0.5306990000000  0.5244970000000  0.4863100000000 1.0
C      1  0.5302300000000  0.5234540000000  0.5180540000000 1.0
C      1  0.5185510000000  0.4770490000000  0.4372440000000 1.0
C      1  0.5564510000000  0.4786160000000  0.4734040000000 1.0
C      1  0.5570980000000  0.4774090000000  0.5265020000000 1.0
C      1  0.5176540000000  0.4749630000000  0.5645380000000 1.0
C      1  0.4630230000000  0.4740280000000  0.5517280000000 1.0
C      1  0.4388250000000  0.4783020000000  0.4954760000000 1.0
C      1  0.4645190000000  0.4778330000000  0.4438150000000 1.0
C      1  0.4904800000000  0.5098810000000  0.4123090000000 1.0
C      1  0.5595390000000  0.5116460000000  0.4397300000000 1.0
C      1  0.5855080000000  0.5109770000000  0.5089670000000 1.0
C      1  0.5488640000000  0.5093980000000  0.5731980000000 1.0
C      1  0.4754690000000  0.5078980000000  0.5824480000000 1.0
C      1  0.4241090000000  0.5099730000000  0.5279850000000 1.0
C      1  0.4269120000000  0.5078670000000  0.4516650000000 1.0
C      1  0.5313970000000  0.5815980000000  0.4893010000000 1.0
C      1  0.5259460000000  0.5799450000000  0.5183170000000 1.0
C      1  0.5013710000000  0.5779200000000  0.5332330000000 1.0
C      1  0.4746450000000  0.5763890000000  0.5194060000000 1.0
C      1  0.4685850000000  0.5804130000000  0.4910410000000 1.0
C      1  0.4863900000000  0.5828550000000  0.4673590000000 1.0
C      1  0.5150850000000  0.5845730000000  0.4660320000000 1.0
C      1  0.5208090000000  0.4149930000000  0.5234590000000 1.0
C      1  0.4934610000000  0.4146240000000  0.5300880000000 1.0
C      1  0.4706860000000  0.4150300000000  0.5130010000000 1.0
C      1  0.4710010000000  0.4163700000000  0.4846570000000 1.0
C      1  0.4930970000000  0.4163160000000  0.4671160000000 1.0
C      1  0.5207270000000  0.4158850000000  0.4728510000000 1.0
C      1  0.5330080000000  0.4153980000000  0.4981050000000 1.0
C      1  0.5322880000000  0.4907910000000  0.5168070000000 1.0
C      1  0.5113140000000  0.4896150000000  0.5399160000000 1.0
C      1  0.4818150000000  0.4875510000000  0.5324290000000 1.0
C      1  0.4651280000000  0.4916170000000  0.4879370000000 1.0
C      1  0.4827940000000  0.4923040000000  0.4623420000000 1.0
C      1  0.5105960000000  0.4825930000000  0.4645930000000 1.0
C      1  0.5312260000000  0.4922980000000  0.4844030000000 1.0
C      1  0.5361260000000  0.5210470000000  0.4297330000000 1.0
C      1  0.5775570000000  0.5191500000000  0.4844660000000 1.0
C      1  0.5624080000000  0.5180630000000  0.5515810000000 1.0
C      1  0.5007130000000  0.5166630000000  0.5834470000000 1.0
C      1  0.4378830000000  0.5142580000000  0.5510130000000 1.0
C      1  0.4203370000000  0.5182420000000  0.4769020000000 1.0
C      1  0.4662290000000  0.5201020000000  0.4212290000000 1.0
C      1  0.5538320000000  0.4493390000000  0.5240500000000 1.0
C      1  0.5151450000000  0.4471530000000  0.5580240000000 1.0
C      1  0.4632350000000  0.4460000000000  0.5478010000000 1.0
C      1  0.4410050000000  0.4498490000000  0.4995210000000 1.0
C      1  0.4639190000000  0.4503020000000  0.4519640000000 1.0
C      1  0.5141850000000  0.4488680000000  0.4396280000000 1.0
C      1  0.5530820000000  0.4504530000000  0.4728800000000 1.0
C      1  0.4737190000000  0.5351730000000  0.5106720000000 1.0
C      1  0.4833850000000  0.4762490000000  0.5057240000000 1.0
C      1  0.4986110000000  0.4553360000000  0.4994960000000 1.0
END
