TITL C-163634-8276-9 -0.154020901399883 125000 -626.468185818043 0 0 90 (C1) n - 1
REM
REM in /rds/project/t2_vol4/rds-t2-cs072/BORA/CARBON/from-Arr/AIRSS/Generating-Clusters/GAP-ML-2020/Higher-Symm/SD-CG/HFTN-CG
REM
REM
REM
REM
REM
REM ./C.cell (b20cbc046b6831c77cfcea5457e17084)
REM AIRSS Version 0.9.1 bugfix July 2018 build 013d7b7c2542+ Fri, 06 Jul 2018 19:26:36 +0100
REM compiler GCC version 9.3.0
REM options -cpp -mtune=generic -march=x86-64 -g -O0
REM seed -1448843485 -343776146 -1841402472 188086636 783618914 -649138789 1358496077 685544252 1472678489 -110983745 -1028157384 -1757052287 1811621023 -257253342 -1514139523 323762851 1622764453 -1012163177 -733507376 1235168115 -1484273173 -1115544548 -18086238 1466508908 747356870 -1294175756 1522565775 -1878350833 -869049429 2035809267 327629731 -1965109361 895275464
REM
CELL 1.54180   50.00000   50.00000   50.00000   90.00000   90.00000   90.00000
LATT -1
SFAC C  
C      1  0.5116810000000  0.5159460000000  0.5700540000000 1.0
C      1  0.5722490000000  0.4629470000000  0.5076910000000 1.0
C      1  0.5281120000000  0.5417710000000  0.5693600000000 1.0
C      1  0.5558770000000  0.4398380000000  0.5053220000000 1.0
C      1  0.4606370000000  0.4846150000000  0.4972560000000 1.0
C      1  0.4905460000000  0.4354200000000  0.4539990000000 1.0
C      1  0.4688220000000  0.5199620000000  0.4277920000000 1.0
C      1  0.4217270000000  0.4648480000000  0.4921070000000 1.0
C      1  0.4262920000000  0.4729900000000  0.4639110000000 1.0
C      1  0.4098000000000  0.5104180000000  0.5041720000000 1.0
C      1  0.4538530000000  0.4809370000000  0.4271090000000 1.0
C      1  0.5538130000000  0.5329850000000  0.5629330000000 1.0
C      1  0.4397490000000  0.5130040000000  0.5503750000000 1.0
C      1  0.4254430000000  0.5013660000000  0.4583280000000 1.0
C      1  0.4506580000000  0.4221770000000  0.4720380000000 1.0
C      1  0.5679920000000  0.5117050000000  0.4963540000000 1.0
C      1  0.5361910000000  0.5024500000000  0.4947440000000 1.0
C      1  0.4886920000000  0.4545540000000  0.4792980000000 1.0
C      1  0.4710630000000  0.4705980000000  0.5615120000000 1.0
C      1  0.4621530000000  0.4981740000000  0.5641980000000 1.0
C      1  0.4474360000000  0.4592520000000  0.5024550000000 1.0
C      1  0.5435770000000  0.4776260000000  0.4476110000000 1.0
C      1  0.4912260000000  0.5796220000000  0.5044110000000 1.0
C      1  0.5570710000000  0.5631490000000  0.5256410000000 1.0
C      1  0.5222420000000  0.4689610000000  0.4288050000000 1.0
C      1  0.4193370000000  0.5208030000000  0.4782880000000 1.0
C      1  0.4770120000000  0.5743410000000  0.5298830000000 1.0
C      1  0.5253410000000  0.4870450000000  0.4695540000000 1.0
C      1  0.5063740000000  0.4920790000000  0.4179240000000 1.0
C      1  0.4899090000000  0.5649090000000  0.5533440000000 1.0
C      1  0.5475310000000  0.4544170000000  0.5483660000000 1.0
C      1  0.4658280000000  0.4399030000000  0.4933380000000 1.0
C      1  0.4589910000000  0.4359580000000  0.4492300000000 1.0
C      1  0.5566920000000  0.5388530000000  0.4312520000000 1.0
C      1  0.5566900000000  0.5048490000000  0.5661290000000 1.0
C      1  0.4986960000000  0.4999210000000  0.4661470000000 1.0
C      1  0.5189160000000  0.5825840000000  0.5084640000000 1.0
C      1  0.5663650000000  0.4725700000000  0.4615760000000 1.0
C      1  0.4978630000000  0.5264240000000  0.4789180000000 1.0
C      1  0.4524700000000  0.5598700000000  0.5291250000000 1.0
C      1  0.4987780000000  0.5522410000000  0.4603830000000 1.0
C      1  0.4337920000000  0.5445820000000  0.4809530000000 1.0
C      1  0.5669400000000  0.5405720000000  0.5388590000000 1.0
C      1  0.5752840000000  0.4820000000000  0.4859230000000 1.0
C      1  0.4527040000000  0.5453990000000  0.5045070000000 1.0
C      1  0.4707120000000  0.4261220000000  0.5485670000000 1.0
C      1  0.5355090000000  0.4372690000000  0.4853460000000 1.0
C      1  0.5746110000000  0.5168150000000  0.5247740000000 1.0
C      1  0.4960420000000  0.4121950000000  0.4756700000000 1.0
C      1  0.5021170000000  0.4866920000000  0.5273830000000 1.0
C      1  0.5176940000000  0.4615080000000  0.4857590000000 1.0
C      1  0.5166500000000  0.4168450000000  0.4936950000000 1.0
C      1  0.4801910000000  0.5261860000000  0.5059020000000 1.0
C      1  0.5214080000000  0.5272230000000  0.4978520000000 1.0
C      1  0.4702020000000  0.4112780000000  0.4874460000000 1.0
C      1  0.4436250000000  0.5068680000000  0.4362890000000 1.0
C      1  0.5724790000000  0.4957630000000  0.5441820000000 1.0
C      1  0.4447070000000  0.4599150000000  0.4447670000000 1.0
C      1  0.4735820000000  0.5437410000000  0.5650740000000 1.0
C      1  0.5663020000000  0.5395430000000  0.4824470000000 1.0
C      1  0.4115520000000  0.4842280000000  0.5101480000000 1.0
C      1  0.5059570000000  0.5318490000000  0.5212210000000 1.0
C      1  0.5594780000000  0.5623350000000  0.4976520000000 1.0
C      1  0.5088230000000  0.4467470000000  0.4360220000000 1.0
C      1  0.4795650000000  0.4817910000000  0.4768110000000 1.0
C      1  0.5687260000000  0.4699220000000  0.5354490000000 1.0
C      1  0.4780080000000  0.4934170000000  0.4175260000000 1.0
C      1  0.5320210000000  0.5750920000000  0.5331440000000 1.0
C      1  0.5276780000000  0.5618120000000  0.4635950000000 1.0
C      1  0.5131300000000  0.5205200000000  0.4213960000000 1.0
C      1  0.5238640000000  0.4790040000000  0.5095650000000 1.0
C      1  0.4912440000000  0.5368760000000  0.4340340000000 1.0
C      1  0.5120090000000  0.5114310000000  0.5394200000000 1.0
C      1  0.5519270000000  0.5460560000000  0.4578450000000 1.0
C      1  0.5320040000000  0.4932930000000  0.5733640000000 1.0
C      1  0.4546160000000  0.5624920000000  0.4803870000000 1.0
C      1  0.5386820000000  0.5298290000000  0.4154530000000 1.0
C      1  0.5356660000000  0.5753380000000  0.4868400000000 1.0
C      1  0.4772740000000  0.4985380000000  0.5130630000000 1.0
C      1  0.5159380000000  0.4229160000000  0.5231020000000 1.0
C      1  0.5178700000000  0.5647020000000  0.5557510000000 1.0
C      1  0.5268460000000  0.4672790000000  0.5635530000000 1.0
C      1  0.4494840000000  0.5409040000000  0.5508180000000 1.0
C      1  0.4209470000000  0.5033410000000  0.5304660000000 1.0
C      1  0.4576890000000  0.4459060000000  0.5601640000000 1.0
C      1  0.5416630000000  0.4341720000000  0.5293710000000 1.0
C      1  0.4960810000000  0.4350260000000  0.5394830000000 1.0
C      1  0.4993140000000  0.4641700000000  0.5490530000000 1.0
C      1  0.4823220000000  0.5177480000000  0.5725880000000 1.0
C      1  0.4813750000000  0.5706680000000  0.4779240000000 1.0
END
