TITL C-163640-8360-1 -0.0703828175501559 125000 -853.822702998594 0 0 122 (C3) n - 1
REM
REM in /rds/project/t2_vol4/rds-t2-cs072/BORA/CARBON/from-Arr/AIRSS/Generating-Clusters/GAP-ML-2020/Higher-Symm/SD-CG/HFTN-CG
REM
REM
REM
REM
REM
REM ./C.cell (b20cbc046b6831c77cfcea5457e17084)
REM AIRSS Version 0.9.1 bugfix July 2018 build 013d7b7c2542+ Fri, 06 Jul 2018 19:26:36 +0100
REM compiler GCC version 9.3.0
REM options -cpp -mtune=generic -march=x86-64 -g -O0
REM seed 983475461 1308551388 -1136287237 1993024668 -2018070518 -1526666285 -1505549484 -1578694279 2075626944 644055668 2000547249 1677668078 -1216429662 -1468548876 1172554061 1395147504 406880629 1789885386 -721426898 1113329836 -1466272340 -128679759 1478025948 -1531390220 543406042 -1611262339 1422416544 660118385 -1030393298 -1678143823 1302713617 -903949277 -931792326
REM
CELL 1.54180   50.00000   50.00000   50.00000   90.00000   90.00000   90.00000
LATT -1
SFAC C  
C      1  0.4759620000000  0.4308670000000  0.5610190000000 1.0
C      1  0.4759600000000  0.4814700000000  0.4099100000000 1.0
C      1  0.4759620000000  0.5870330000000  0.5292870000000 1.0
C      1  0.4242840000000  0.5571360000000  0.4747700000000 1.0
C      1  0.4242860000000  0.4930290000000  0.5623870000000 1.0
C      1  0.4242840000000  0.4492050000000  0.4630610000000 1.0
C      1  0.5789020000000  0.5013550000000  0.5552670000000 1.0
C      1  0.5789010000000  0.4512060000000  0.4738270000000 1.0
C      1  0.5789010000000  0.5468090000000  0.4711170000000 1.0
C      1  0.4618270000000  0.5233850000000  0.5183440000000 1.0
C      1  0.4618270000000  0.4721680000000  0.5113700000000 1.0
C      1  0.4618260000000  0.5038160000000  0.4705020000000 1.0
C      1  0.4810500000000  0.4087110000000  0.4723990000000 1.0
C      1  0.4810500000000  0.5692950000000  0.4350310000000 1.0
C      1  0.4810520000000  0.5213640000000  0.5927850000000 1.0
C      1  0.5358500000000  0.5126210000000  0.5277510000000 1.0
C      1  0.5358490000000  0.4694030000000  0.4973430000000 1.0
C      1  0.5358490000000  0.5173460000000  0.4751190000000 1.0
C      1  0.4362370000000  0.5383050000000  0.5588130000000 1.0
C      1  0.4362360000000  0.4296610000000  0.5040570000000 1.0
C      1  0.4362350000000  0.5314040000000  0.4373470000000 1.0
C      1  0.5823490000000  0.4765410000000  0.5188240000000 1.0
C      1  0.5823480000000  0.4951740000000  0.4705590000000 1.0
C      1  0.5823480000000  0.5276560000000  0.5108280000000 1.0
C      1  0.4947520000000  0.4037180000000  0.4961620000000 1.0
C      1  0.4947510000000  0.5512120000000  0.4188250000000 1.0
C      1  0.4947530000000  0.5444400000000  0.5852270000000 1.0
C      1  0.5368390000000  0.4154280000000  0.5201610000000 1.0
C      1  0.5368370000000  0.5245730000000  0.4169660000000 1.0
C      1  0.5368400000000  0.5593690000000  0.5630860000000 1.0
C      1  0.5880600000000  0.5216610000000  0.4823720000000 1.0
C      1  0.5880600000000  0.5041810000000  0.5278600000000 1.0
C      1  0.5880600000000  0.4735270000000  0.4899780000000 1.0
C      1  0.5350920000000  0.4218140000000  0.4727590000000 1.0
C      1  0.5350920000000  0.5624300000000  0.4461980000000 1.0
C      1  0.5350940000000  0.5151250000000  0.5812560000000 1.0
C      1  0.4373010000000  0.4290260000000  0.4755400000000 1.0
C      1  0.4373010000000  0.5564180000000  0.4510560000000 1.0
C      1  0.4373030000000  0.5139260000000  0.5736220000000 1.0
C      1  0.4944640000000  0.4166860000000  0.5445080000000 1.0
C      1  0.4944620000000  0.5028590000000  0.4058830000000 1.0
C      1  0.4944640000000  0.5798250000000  0.5498230000000 1.0
C      1  0.5230300000000  0.4080040000000  0.4957390000000 1.0
C      1  0.5230290000000  0.5494350000000  0.4227490000000 1.0
C      1  0.5230310000000  0.5419310000000  0.5817260000000 1.0
C      1  0.5563840000000  0.5357470000000  0.5269330000000 1.0
C      1  0.5563840000000  0.4585480000000  0.5177800000000 1.0
C      1  0.5563830000000  0.5050740000000  0.4554990000000 1.0
C      1  0.5081710000000  0.5136350000000  0.4615290000000 1.0
C      1  0.5081720000000  0.5262460000000  0.5313330000000 1.0
C      1  0.5081720000000  0.4594890000000  0.5073520000000 1.0
C      1  0.4893110000000  0.5071710000000  0.5697060000000 1.0
C      1  0.4893090000000  0.4357940000000  0.4716470000000 1.0
C      1  0.4893090000000  0.5564050000000  0.4588620000000 1.0
C      1  0.5754500000000  0.4700530000000  0.4526380000000 1.0
C      1  0.5754510000000  0.5557360000000  0.4980340000000 1.0
C      1  0.5754520000000  0.4735810000000  0.5495390000000 1.0
C      1  0.5101180000000  0.4617140000000  0.5758160000000 1.0
C      1  0.5101150000000  0.4532310000000  0.4292240000000 1.0
C      1  0.5101160000000  0.5844250000000  0.4951730000000 1.0
C      1  0.4809050000000  0.5644560000000  0.5701020000000 1.0
C      1  0.4809040000000  0.4068090000000  0.5210590000000 1.0
C      1  0.4809020000000  0.5281050000000  0.4090540000000 1.0
C      1  0.4610600000000  0.5739120000000  0.4557640000000 1.0
C      1  0.4610620000000  0.5011010000000  0.5864180000000 1.0
C      1  0.4610600000000  0.4243570000000  0.4580340000000 1.0
C      1  0.5041880000000  0.4874670000000  0.4700990000000 1.0
C      1  0.5041890000000  0.5319090000000  0.5043850000000 1.0
C      1  0.5041890000000  0.4799940000000  0.5257300000000 1.0
C      1  0.4599330000000  0.4427060000000  0.4349440000000 1.0
C      1  0.4599340000000  0.5847340000000  0.4832000000000 1.0
C      1  0.4599360000000  0.4719300000000  0.5820720000000 1.0
C      1  0.4774130000000  0.5347120000000  0.4965850000000 1.0
C      1  0.4774140000000  0.4853490000000  0.5320590000000 1.0
C      1  0.4774130000000  0.4793090000000  0.4715720000000 1.0
C      1  0.5616920000000  0.5506590000000  0.4486200000000 1.0
C      1  0.5616940000000  0.5189130000000  0.5698500000000 1.0
C      1  0.5616920000000  0.4297970000000  0.4817420000000 1.0
C      1  0.5591990000000  0.4301980000000  0.5108060000000 1.0
C      1  0.5591970000000  0.5252890000000  0.4344350000000 1.0
C      1  0.5591990000000  0.5438830000000  0.5549710000000 1.0
C      1  0.5287770000000  0.4457390000000  0.5602050000000 1.0
C      1  0.5287740000000  0.4747370000000  0.4231950000000 1.0
C      1  0.5287760000000  0.5788930000000  0.5168130000000 1.0
C      1  0.5472410000000  0.5572870000000  0.5075880000000 1.0
C      1  0.5472410000000  0.4645310000000  0.5461060000000 1.0
C      1  0.5472400000000  0.4775520000000  0.4465180000000 1.0
C      1  0.4318960000000  0.4487720000000  0.5467220000000 1.0
C      1  0.4318940000000  0.4848990000000  0.4325650000000 1.0
C      1  0.4318950000000  0.5656980000000  0.5209310000000 1.0
C      1  0.4336550000000  0.5130330000000  0.5113880000000 1.0
C      1  0.4336540000000  0.4833690000000  0.5058830000000 1.0
C      1  0.4336540000000  0.5029680000000  0.4829460000000 1.0
C      1  0.4506140000000  0.4279250000000  0.5482130000000 1.0
C      1  0.4506120000000  0.4940320000000  0.4137650000000 1.0
C      1  0.4506140000000  0.5774130000000  0.5382390000000 1.0
C      1  0.4284260000000  0.4549550000000  0.5178020000000 1.0
C      1  0.4284250000000  0.5068530000000  0.4523800000000 1.0
C      1  0.4284270000000  0.5375610000000  0.5300360000000 1.0
C      1  0.5155080000000  0.5654680000000  0.4704800000000 1.0
C      1  0.5155090000000  0.4925770000000  0.5717460000000 1.0
C      1  0.5155080000000  0.4413240000000  0.4579880000000 1.0
C      1  0.4816820000000  0.5273110000000  0.4686160000000 1.0
C      1  0.4816830000000  0.5132710000000  0.5396330000000 1.0
C      1  0.4816820000000  0.4587880000000  0.4919660000000 1.0
C      1  0.5273390000000  0.4675060000000  0.4682600000000 1.0
C      1  0.5273390000000  0.5434810000000  0.4880180000000 1.0
C      1  0.5273400000000  0.4883830000000  0.5439350000000 1.0
C      1  0.4825100000000  0.4537840000000  0.5774270000000 1.0
C      1  0.4825070000000  0.4558010000000  0.4215520000000 1.0
C      1  0.4825090000000  0.5897850000000  0.5012360000000 1.0
C      1  0.4350960000000  0.5736950000000  0.4940570000000 1.0
C      1  0.4350970000000  0.4680470000000  0.5670840000000 1.0
C      1  0.4350950000000  0.4576280000000  0.4390770000000 1.0
C      1  0.5225050000000  0.4999390000000  0.4105550000000 1.0
C      1  0.5225070000000  0.5772390000000  0.5449580000000 1.0
C      1  0.5225070000000  0.4221920000000  0.5447000000000 1.0
C      1  0.4537090000000  0.4158230000000  0.5224740000000 1.0
C      1  0.4537070000000  0.5223730000000  0.4161530000000 1.0
C      1  0.4537090000000  0.5611740000000  0.5615890000000 1.0
C      1  0.5071540000000  0.4997900000000  0.5000710000000 1.0
C      1  0.5361610000000  0.4997900000000  0.5000710000000 1.0
END
