TITL C-163635-8285-2 4.93904059229614 125000 -250.17631459941 0 0 39 (C1) n - 1
REM
REM in /rds/project/t2_vol4/rds-t2-cs072/BORA/CARBON/from-Arr/AIRSS/Generating-Clusters/GAP-ML-2020/Higher-Symm/SD-CG/HFTN-CG
REM
REM
REM
REM
REM
REM ./C.cell (b20cbc046b6831c77cfcea5457e17084)
REM AIRSS Version 0.9.1 bugfix July 2018 build 013d7b7c2542+ Fri, 06 Jul 2018 19:26:36 +0100
REM compiler GCC version 9.3.0
REM options -cpp -mtune=generic -march=x86-64 -g -O0
REM seed -143984167 -2115594644 -1619740052 1138178665 -898156599 1867021639 -1233088773 -2004247034 -298784284 -944148298 -612294035 1232685984 1305560177 -535058383 34313463 -107826758 1588314541 -2118464603 2135767388 -547096384 -1968366818 -1138933531 -27282832 2016026195 362676469 567326511 -1605162360 843644683 -72027175 1849859228 1518033599 -1993066200 2062802426
REM
CELL 1.54180   50.00000   50.00000   50.00000   90.00000   90.00000   90.00000
LATT -1
SFAC C  
C      1  0.4448230000000  0.4686460000000  0.4999650000000 1.0
C      1  0.4514150000000  0.4745090000000  0.4746700000000 1.0
C      1  0.4468380000000  0.5273490000000  0.4972200000000 1.0
C      1  0.4456830000000  0.5165910000000  0.5233740000000 1.0
C      1  0.4451580000000  0.4883990000000  0.5233920000000 1.0
C      1  0.5302320000000  0.5352740000000  0.5129630000000 1.0
C      1  0.5307280000000  0.5098400000000  0.5423670000000 1.0
C      1  0.5357060000000  0.4683100000000  0.5166400000000 1.0
C      1  0.5309970000000  0.4769710000000  0.4727060000000 1.0
C      1  0.5337710000000  0.5122110000000  0.4539570000000 1.0
C      1  0.4865840000000  0.5573390000000  0.4921860000000 1.0
C      1  0.4896530000000  0.5295490000000  0.5370050000000 1.0
C      1  0.4940460000000  0.4770070000000  0.5418760000000 1.0
C      1  0.4892790000000  0.4409900000000  0.5084840000000 1.0
C      1  0.4866880000000  0.4973430000000  0.4429890000000 1.0
C      1  0.5015490000000  0.5331880000000  0.5056370000000 1.0
C      1  0.5036370000000  0.5045530000000  0.5451010000000 1.0
C      1  0.5065450000000  0.4672540000000  0.5108600000000 1.0
C      1  0.5056920000000  0.4834950000000  0.4855430000000 1.0
C      1  0.5043890000000  0.5159070000000  0.4565250000000 1.0
C      1  0.5506250000000  0.4749340000000  0.4923300000000 1.0
C      1  0.5390140000000  0.4854060000000  0.4482460000000 1.0
C      1  0.5515000000000  0.5280440000000  0.4678700000000 1.0
C      1  0.5342490000000  0.5396240000000  0.5409780000000 1.0
C      1  0.5464920000000  0.4900370000000  0.5308130000000 1.0
C      1  0.4960590000000  0.5817330000000  0.4875120000000 1.0
C      1  0.5104600000000  0.5494060000000  0.5503500000000 1.0
C      1  0.5059320000000  0.4587380000000  0.5617460000000 1.0
C      1  0.4964570000000  0.4163740000000  0.5018570000000 1.0
C      1  0.4969350000000  0.4854160000000  0.4219400000000 1.0
C      1  0.4613910000000  0.5449370000000  0.4829960000000 1.0
C      1  0.4620620000000  0.5308040000000  0.5402350000000 1.0
C      1  0.4649680000000  0.4721650000000  0.5355310000000 1.0
C      1  0.4626570000000  0.4512360000000  0.5159320000000 1.0
C      1  0.4613110000000  0.4946950000000  0.4597330000000 1.0
C      1  0.5605490000000  0.4989240000000  0.5052420000000 1.0
C      1  0.5499660000000  0.5246760000000  0.4950340000000 1.0
C      1  0.4955200000000  0.5115460000000  0.4845930000000 1.0
C      1  0.4665510000000  0.5149930000000  0.4794080000000 1.0
END
