TITL C-163625-8289-5 -0.00711662206388126 125000 -398.418305059258 0 0 58 (D2) n - 1
REM
REM in /rds/project/t2_vol4/rds-t2-cs072/BORA/CARBON/from-Arr/AIRSS/Generating-Clusters/GAP-ML-2020/Higher-Symm/SD-CG/HFTN-CG
REM
REM
REM
REM
REM
REM ./C.cell (b20cbc046b6831c77cfcea5457e17084)
REM AIRSS Version 0.9.1 bugfix July 2018 build 013d7b7c2542+ Fri, 06 Jul 2018 19:26:36 +0100
REM compiler GCC version 9.3.0
REM options -cpp -mtune=generic -march=x86-64 -g -O0
REM seed -1464122776 -1985368680 -251655012 -764130787 536232205 242991717 -1665460483 518526600 1494937529 853013973 1620843832 -1563509691 630806504 -356374374 1996713975 -765287715 -96376465 -166268934 -1827345849 -178843880 265173067 -1514003542 1861217445 1031004182 1945566641 -1706252062 -775176058 984636841 1776644360 1393753049 607655067 987804417 30934828
REM
CELL 1.54180   50.00000   50.00000   50.00000   90.00000   90.00000   90.00000
LATT -1
SFAC C  
C      1  0.5020400000000  0.4258160000000  0.5144130000000 1.0
C      1  0.5022550000000  0.5741740000000  0.4855900000000 1.0
C      1  0.4948960000000  0.4258290000000  0.4855680000000 1.0
C      1  0.4950830000000  0.5741800000000  0.5144290000000 1.0
C      1  0.5349940000000  0.4845740000000  0.4789620000000 1.0
C      1  0.5350150000000  0.5153280000000  0.5210740000000 1.0
C      1  0.4621020000000  0.4846670000000  0.5210340000000 1.0
C      1  0.4621640000000  0.5154320000000  0.4789300000000 1.0
C      1  0.5285330000000  0.5656070000000  0.4827910000000 1.0
C      1  0.5283380000000  0.4343120000000  0.5172380000000 1.0
C      1  0.4687830000000  0.5656840000000  0.5172260000000 1.0
C      1  0.4686220000000  0.4343970000000  0.4827450000000 1.0
C      1  0.5358290000000  0.4528010000000  0.5391920000000 1.0
C      1  0.5359950000000  0.5470980000000  0.4608450000000 1.0
C      1  0.4611810000000  0.4529120000000  0.4607960000000 1.0
C      1  0.4612700000000  0.5471890000000  0.5391670000000 1.0
C      1  0.4700520000000  0.4820290000000  0.5491880000000 1.0
C      1  0.4701490000000  0.5180480000000  0.4507840000000 1.0
C      1  0.5270370000000  0.4819650000000  0.4508070000000 1.0
C      1  0.5270380000000  0.5179580000000  0.5492200000000 1.0
C      1  0.5139100000000  0.4668780000000  0.5531360000000 1.0
C      1  0.5140510000000  0.5330800000000  0.4468790000000 1.0
C      1  0.4831380000000  0.4669330000000  0.4468550000000 1.0
C      1  0.4831760000000  0.5331090000000  0.5531300000000 1.0
C      1  0.4349260000000  0.4632010000000  0.4653420000000 1.0
C      1  0.4349920000000  0.5369710000000  0.5345960000000 1.0
C      1  0.5621120000000  0.4630200000000  0.5346490000000 1.0
C      1  0.5622450000000  0.5368070000000  0.4654130000000 1.0
C      1  0.4325230000000  0.4736600000000  0.4906640000000 1.0
C      1  0.4325850000000  0.5265190000000  0.5092710000000 1.0
C      1  0.5645430000000  0.4734780000000  0.5093290000000 1.0
C      1  0.5646240000000  0.5263430000000  0.4907350000000 1.0
C      1  0.4852010000000  0.4955890000000  0.4413860000000 1.0
C      1  0.4851560000000  0.5044480000000  0.5586010000000 1.0
C      1  0.5119240000000  0.4955370000000  0.5586130000000 1.0
C      1  0.5119940000000  0.5044260000000  0.4414000000000 1.0
C      1  0.4597240000000  0.4382670000000  0.5104540000000 1.0
C      1  0.4599010000000  0.5618380000000  0.4895090000000 1.0
C      1  0.5372470000000  0.4381650000000  0.4895310000000 1.0
C      1  0.5374040000000  0.5617300000000  0.5105070000000 1.0
C      1  0.5032240000000  0.5144460000000  0.5131150000000 1.0
C      1  0.5031970000000  0.4855410000000  0.4868890000000 1.0
C      1  0.4939530000000  0.5144620000000  0.4868880000000 1.0
C      1  0.4939010000000  0.4855510000000  0.5131070000000 1.0
C      1  0.5517450000000  0.5388700000000  0.5135470000000 1.0
C      1  0.5516520000000  0.4609860000000  0.4865050000000 1.0
C      1  0.4454980000000  0.5390170000000  0.4864630000000 1.0
C      1  0.4453800000000  0.4611270000000  0.5134850000000 1.0
C      1  0.5101290000000  0.4579130000000  0.4509290000000 1.0
C      1  0.5101950000000  0.5420550000000  0.5490820000000 1.0
C      1  0.4868950000000  0.4579320000000  0.5490600000000 1.0
C      1  0.4870570000000  0.5420990000000  0.4509290000000 1.0
C      1  0.5156760000000  0.5629520000000  0.5298900000000 1.0
C      1  0.5155340000000  0.4370020000000  0.4701260000000 1.0
C      1  0.4816330000000  0.5630060000000  0.4701260000000 1.0
C      1  0.4814330000000  0.4370410000000  0.5298580000000 1.0
C      1  0.4436770000000  0.5000740000000  0.4999730000000 1.0
C      1  0.5534600000000  0.4999260000000  0.5000270000000 1.0
END
