TITL C-163622-8347-6 -30.1156618025431 125000 -874.202024378326 0 0 127 (C1) n - 1
REM
REM in /rds/project/t2_vol4/rds-t2-cs072/BORA/CARBON/from-Arr/AIRSS/Generating-Clusters/GAP-ML-2020/Higher-Symm/SD-CG/HFTN-CG
REM
REM
REM
REM
REM
REM ./C.cell (b20cbc046b6831c77cfcea5457e17084)
REM AIRSS Version 0.9.1 bugfix July 2018 build 013d7b7c2542+ Fri, 06 Jul 2018 19:26:36 +0100
REM compiler GCC version 9.3.0
REM options -cpp -mtune=generic -march=x86-64 -g -O0
REM seed -33276572 1420984418 -1821033354 612849277 2055610010 603302497 -1790291811 1106655399 -1183178402 -1358365357 38951299 88888747 1918500151 -1774120148 -133410370 -881465897 -1936122872 225712707 -729628037 1567538341 979402358 -221279393 1836181254 713163028 2025396533 649625127 979601202 -514702928 -629439812 51580688 -346722408 -1810118054 1376927403
REM
CELL 1.54180   50.00000   50.00000   50.00000   90.00000   90.00000   90.00000
LATT -1
SFAC C  
C      1  0.3839800000000  0.5167370000000  0.5026650000000 1.0
C      1  0.3879070000000  0.5076840000000  0.5306490000000 1.0
C      1  0.3885960000000  0.4783210000000  0.5276390000000 1.0
C      1  0.3863570000000  0.4690530000000  0.4998520000000 1.0
C      1  0.3840130000000  0.4937580000000  0.4838500000000 1.0
C      1  0.4717270000000  0.4729540000000  0.5796590000000 1.0
C      1  0.4773160000000  0.4147590000000  0.4871970000000 1.0
C      1  0.4672000000000  0.4783160000000  0.4175790000000 1.0
C      1  0.4831180000000  0.5772030000000  0.4555220000000 1.0
C      1  0.4738430000000  0.5651990000000  0.5521920000000 1.0
C      1  0.4707360000000  0.4260580000000  0.5831310000000 1.0
C      1  0.4755650000000  0.4077890000000  0.4419070000000 1.0
C      1  0.4749130000000  0.5044970000000  0.4133840000000 1.0
C      1  0.4751800000000  0.6010790000000  0.4882680000000 1.0
C      1  0.4739010000000  0.5454530000000  0.5943400000000 1.0
C      1  0.5252840000000  0.4920180000000  0.4027770000000 1.0
C      1  0.5304400000000  0.5916650000000  0.4585730000000 1.0
C      1  0.5203670000000  0.5663240000000  0.5690290000000 1.0
C      1  0.5171150000000  0.4565980000000  0.5828660000000 1.0
C      1  0.5227710000000  0.4058660000000  0.4764910000000 1.0
C      1  0.5367090000000  0.4397220000000  0.4490490000000 1.0
C      1  0.5441200000000  0.5294560000000  0.4248120000000 1.0
C      1  0.5409080000000  0.5803780000000  0.5018510000000 1.0
C      1  0.5327610000000  0.5235340000000  0.5720520000000 1.0
C      1  0.5299310000000  0.4357240000000  0.5429430000000 1.0
C      1  0.4729950000000  0.4756490000000  0.4631120000000 1.0
C      1  0.4776850000000  0.5304170000000  0.4541440000000 1.0
C      1  0.4711940000000  0.5524380000000  0.5005850000000 1.0
C      1  0.4654770000000  0.5138420000000  0.5388060000000 1.0
C      1  0.4561310000000  0.4308980000000  0.5252480000000 1.0
C      1  0.4970100000000  0.4669380000000  0.4469930000000 1.0
C      1  0.5037130000000  0.5418130000000  0.4476870000000 1.0
C      1  0.4965580000000  0.5620250000000  0.5138450000000 1.0
C      1  0.4886260000000  0.5019480000000  0.5542750000000 1.0
C      1  0.4832380000000  0.4249380000000  0.5304830000000 1.0
C      1  0.4924440000000  0.5511680000000  0.5715140000000 1.0
C      1  0.4895610000000  0.4486780000000  0.5730970000000 1.0
C      1  0.4952240000000  0.4156450000000  0.4631140000000 1.0
C      1  0.5031590000000  0.5096590000000  0.4094440000000 1.0
C      1  0.4996770000000  0.5903570000000  0.4746960000000 1.0
C      1  0.5613940000000  0.5566710000000  0.5445120000000 1.0
C      1  0.5571770000000  0.4760690000000  0.5662760000000 1.0
C      1  0.5587430000000  0.4314130000000  0.4960320000000 1.0
C      1  0.5637080000000  0.4814930000000  0.4305840000000 1.0
C      1  0.5668980000000  0.5608290000000  0.4603440000000 1.0
C      1  0.5258160000000  0.5179960000000  0.5154890000000 1.0
C      1  0.5229640000000  0.4879140000000  0.5203350000000 1.0
C      1  0.5223460000000  0.4738780000000  0.4940680000000 1.0
C      1  0.5302490000000  0.4951520000000  0.4746040000000 1.0
C      1  0.5293760000000  0.5230330000000  0.4849530000000 1.0
C      1  0.5582390000000  0.4856450000000  0.4776850000000 1.0
C      1  0.5564750000000  0.5340090000000  0.4888490000000 1.0
C      1  0.5553310000000  0.5248260000000  0.5157110000000 1.0
C      1  0.5516870000000  0.4779690000000  0.5223370000000 1.0
C      1  0.5541410000000  0.4618560000000  0.4968000000000 1.0
C      1  0.5402850000000  0.4969830000000  0.5798930000000 1.0
C      1  0.5392470000000  0.4220940000000  0.5191240000000 1.0
C      1  0.5432790000000  0.4587840000000  0.4287660000000 1.0
C      1  0.5513270000000  0.5555000000000  0.4358610000000 1.0
C      1  0.5442380000000  0.5772100000000  0.5298950000000 1.0
C      1  0.5203050000000  0.4660630000000  0.4111120000000 1.0
C      1  0.5292730000000  0.5764300000000  0.4356330000000 1.0
C      1  0.5203150000000  0.5822080000000  0.5465480000000 1.0
C      1  0.5169410000000  0.4835380000000  0.5894650000000 1.0
C      1  0.5202900000000  0.4058320000000  0.5047960000000 1.0
C      1  0.4328350000000  0.4457040000000  0.4810680000000 1.0
C      1  0.4293420000000  0.4961410000000  0.4524500000000 1.0
C      1  0.4281630000000  0.5453400000000  0.4921350000000 1.0
C      1  0.4391310000000  0.5252740000000  0.5464360000000 1.0
C      1  0.4331550000000  0.4670810000000  0.5504570000000 1.0
C      1  0.4766180000000  0.4797710000000  0.5116410000000 1.0
C      1  0.4763720000000  0.4601020000000  0.4903590000000 1.0
C      1  0.4838060000000  0.5039390000000  0.4688720000000 1.0
C      1  0.4665410000000  0.5536090000000  0.4689920000000 1.0
C      1  0.4779930000000  0.5252460000000  0.5143560000000 1.0
C      1  0.5769550000000  0.5366230000000  0.5310220000000 1.0
C      1  0.5721710000000  0.4803280000000  0.5429600000000 1.0
C      1  0.5821860000000  0.4496650000000  0.4978160000000 1.0
C      1  0.5778070000000  0.4860110000000  0.4557950000000 1.0
C      1  0.5802700000000  0.5396520000000  0.4751540000000 1.0
C      1  0.5019360000000  0.5679520000000  0.4359160000000 1.0
C      1  0.4932940000000  0.5793000000000  0.5360870000000 1.0
C      1  0.4909030000000  0.4928630000000  0.5824220000000 1.0
C      1  0.4929880000000  0.4096700000000  0.5096580000000 1.0
C      1  0.4925230000000  0.4627710000000  0.4193590000000 1.0
C      1  0.5524330000000  0.5839050000000  0.4749180000000 1.0
C      1  0.5439030000000  0.5495690000000  0.5676310000000 1.0
C      1  0.5397550000000  0.4512650000000  0.5658470000000 1.0
C      1  0.5457280000000  0.4210200000000  0.4694850000000 1.0
C      1  0.5508000000000  0.5028840000000  0.4150170000000 1.0
C      1  0.4388860000000  0.5441210000000  0.4663140000000 1.0
C      1  0.4488940000000  0.5556410000000  0.5410120000000 1.0
C      1  0.4460410000000  0.4820290000000  0.5705540000000 1.0
C      1  0.4561150000000  0.4353050000000  0.4959090000000 1.0
C      1  0.4482610000000  0.4739250000000  0.4435050000000 1.0
C      1  0.5924760000000  0.4911160000000  0.5223800000000 1.0
C      1  0.5979550000000  0.4730470000000  0.4990970000000 1.0
C      1  0.5988520000000  0.4926470000000  0.4749360000000 1.0
C      1  0.5986890000000  0.5208570000000  0.4865960000000 1.0
C      1  0.5975920000000  0.5198090000000  0.5175080000000 1.0
C      1  0.5139040000000  0.5697440000000  0.4924070000000 1.0
C      1  0.5054710000000  0.5268900000000  0.5570350000000 1.0
C      1  0.5002160000000  0.4453560000000  0.5436290000000 1.0
C      1  0.5090040000000  0.4435090000000  0.4593730000000 1.0
C      1  0.5163300000000  0.5211670000000  0.4324450000000 1.0
C      1  0.4551450000000  0.4246830000000  0.4409350000000 1.0
C      1  0.4616010000000  0.5233660000000  0.4306960000000 1.0
C      1  0.4542880000000  0.5915250000000  0.5009050000000 1.0
C      1  0.4542320000000  0.5289400000000  0.5911620000000 1.0
C      1  0.4481430000000  0.4246670000000  0.5711750000000 1.0
C      1  0.5156220000000  0.5452480000000  0.4749110000000 1.0
C      1  0.5050470000000  0.5344210000000  0.5263410000000 1.0
C      1  0.4973250000000  0.4786530000000  0.5335860000000 1.0
C      1  0.5050900000000  0.4525630000000  0.4880510000000 1.0
C      1  0.5105290000000  0.4956760000000  0.4539860000000 1.0
C      1  0.4456310000000  0.5631340000000  0.5114560000000 1.0
C      1  0.4417260000000  0.5117760000000  0.5733540000000 1.0
C      1  0.4413610000000  0.4400210000000  0.5472570000000 1.0
C      1  0.4413900000000  0.4460460000000  0.4521460000000 1.0
C      1  0.4372820000000  0.5222620000000  0.4461300000000 1.0
C      1  0.4184220000000  0.5107480000000  0.5282860000000 1.0
C      1  0.4194170000000  0.4793680000000  0.5271760000000 1.0
C      1  0.4174880000000  0.4684530000000  0.4952490000000 1.0
C      1  0.4150100000000  0.4947360000000  0.4790530000000 1.0
C      1  0.4148590000000  0.5205830000000  0.4997190000000 1.0
C      1  0.4778800000000  0.5036990000000  0.4969980000000 1.0
C      1  0.5658720000000  0.4993260000000  0.5047160000000 1.0
END
