TITL C-163614-8385-1 0.0264929237401816 125000 -297.012962287303 0 0 44 (C3) n - 1
REM
REM in /rds/project/t2_vol4/rds-t2-cs072/BORA/CARBON/from-Arr/AIRSS/Generating-Clusters/GAP-ML-2020/Higher-Symm/SD-CG/HFTN-CG
REM
REM
REM
REM
REM
REM ./C.cell (b20cbc046b6831c77cfcea5457e17084)
REM AIRSS Version 0.9.1 bugfix July 2018 build 013d7b7c2542+ Fri, 06 Jul 2018 19:26:36 +0100
REM compiler GCC version 9.3.0
REM options -cpp -mtune=generic -march=x86-64 -g -O0
REM seed -1114637059 -1082375563 -1212467889 1011239241 -567539195 -1008290207 2069851007 269775155 -81743442 1034657073 1528709346 -1892915967 1428809380 -1125850436 704568940 -587442793 799177986 1229251949 1772992467 -325090261 -706934217 -450719939 1111591758 -494646277 -227932804 1074847592 1978675615 -512520409 -749331725 -1055812923 -1073666545 1275362821 471053205
REM
CELL 1.54180   50.00000   50.00000   50.00000   90.00000   90.00000   90.00000
LATT -1
SFAC C  
C      1  0.4396560000000  0.5261910000000  0.5304550000000 1.0
C      1  0.5534390000000  0.5256780000000  0.5379250000000 1.0
C      1  0.5030180000000  0.5262960000000  0.4356510000000 1.0
C      1  0.5325140000000  0.4831510000000  0.4655940000000 1.0
C      1  0.4507140000000  0.4834030000000  0.4895270000000 1.0
C      1  0.5123390000000  0.4829090000000  0.5484010000000 1.0
C      1  0.4727780000000  0.5008020000000  0.5073850000000 1.0
C      1  0.5168250000000  0.5005630000000  0.5205320000000 1.0
C      1  0.5061880000000  0.5007850000000  0.4758120000000 1.0
C      1  0.4782070000000  0.4464180000000  0.4817100000000 1.0
C      1  0.4917150000000  0.4461770000000  0.5281450000000 1.0
C      1  0.5251750000000  0.4461730000000  0.4932290000000 1.0
C      1  0.4533230000000  0.5138490000000  0.4872250000000 1.0
C      1  0.5091310000000  0.5133740000000  0.5475850000000 1.0
C      1  0.5335010000000  0.5135810000000  0.4690730000000 1.0
C      1  0.5421860000000  0.4688770000000  0.4885580000000 1.0
C      1  0.4657240000000  0.4692770000000  0.4695320000000 1.0
C      1  0.4874770000000  0.4688850000000  0.5452640000000 1.0
C      1  0.4618200000000  0.5081390000000  0.5362560000000 1.0
C      1  0.5473290000000  0.5078570000000  0.5156570000000 1.0
C      1  0.4867370000000  0.5083660000000  0.4519040000000 1.0
C      1  0.5417240000000  0.5254270000000  0.4933190000000 1.0
C      1  0.4702450000000  0.5258300000000  0.4680950000000 1.0
C      1  0.4841380000000  0.5254760000000  0.5426100000000 1.0
C      1  0.5188020000000  0.4460350000000  0.5207080000000 1.0
C      1  0.5051910000000  0.4462790000000  0.4734890000000 1.0
C      1  0.4711030000000  0.4462840000000  0.5088860000000 1.0
C      1  0.5310360000000  0.5319210000000  0.5528950000000 1.0
C      1  0.5272030000000  0.5323530000000  0.4476260000000 1.0
C      1  0.4379540000000  0.5325110000000  0.5035820000000 1.0
C      1  0.4811430000000  0.5471060000000  0.5235110000000 1.0
C      1  0.5267450000000  0.5469830000000  0.5056700000000 1.0
C      1  0.4884940000000  0.5472660000000  0.4750990000000 1.0
C      1  0.5498830000000  0.4795370000000  0.5139990000000 1.0
C      1  0.4839390000000  0.4800690000000  0.4502490000000 1.0
C      1  0.4617020000000  0.4798110000000  0.5392340000000 1.0
C      1  0.5379190000000  0.5494630000000  0.5321570000000 1.0
C      1  0.5058530000000  0.5499150000000  0.4522030000000 1.0
C      1  0.4526430000000  0.5498730000000  0.5199510000000 1.0
C      1  0.4533220000000  0.4678740000000  0.5141260000000 1.0
C      1  0.5322940000000  0.4674620000000  0.5336940000000 1.0
C      1  0.5097550000000  0.4678670000000  0.4555180000000 1.0
C      1  0.4988100000000  0.5510120000000  0.5014420000000 1.0
C      1  0.4985430000000  0.4879750000000  0.5011930000000 1.0
END
