TITL C-163632-8365-3 -13.2835716147489 125000 -897.673021059764 0 0 126 (C1) n - 1
REM
REM in /rds/project/t2_vol4/rds-t2-cs072/BORA/CARBON/from-Arr/AIRSS/Generating-Clusters/GAP-ML-2020/Higher-Symm/SD-CG/HFTN-CG
REM
REM
REM
REM
REM
REM ./C.cell (b20cbc046b6831c77cfcea5457e17084)
REM AIRSS Version 0.9.1 bugfix July 2018 build 013d7b7c2542+ Fri, 06 Jul 2018 19:26:36 +0100
REM compiler GCC version 9.3.0
REM options -cpp -mtune=generic -march=x86-64 -g -O0
REM seed 1072234167 -1609177234 -836935670 -150959346 613470166 581274439 431383641 -1338818205 23260757 825726033 248444762 -1398302898 -482298753 1100954546 791874224 1892745881 -1019585429 399523535 -1008396826 -940966927 290342066 -396929038 -1375969939 -45182109 -637859169 -1690485518 652910832 -864597393 -1323207163 1630921103 -1337744419 608100651 -244199275
REM
CELL 1.54180   50.00000   50.00000   50.00000   90.00000   90.00000   90.00000
LATT -1
SFAC C  
C      1  0.4484170000000  0.4552260000000  0.4409530000000 1.0
C      1  0.4857470000000  0.5712610000000  0.4370190000000 1.0
C      1  0.5607190000000  0.4822910000000  0.4457150000000 1.0
C      1  0.4534900000000  0.4556140000000  0.5565030000000 1.0
C      1  0.4860770000000  0.5657510000000  0.5573440000000 1.0
C      1  0.5665410000000  0.4761340000000  0.5614350000000 1.0
C      1  0.5520560000000  0.4552090000000  0.4411750000000 1.0
C      1  0.5142130000000  0.5718330000000  0.4365370000000 1.0
C      1  0.4396510000000  0.4823740000000  0.4454720000000 1.0
C      1  0.5477160000000  0.4545580000000  0.5570660000000 1.0
C      1  0.5136300000000  0.5585920000000  0.5514330000000 1.0
C      1  0.4342400000000  0.4768300000000  0.5606490000000 1.0
C      1  0.4735480000000  0.4766250000000  0.4880050000000 1.0
C      1  0.4872470000000  0.5343840000000  0.4822100000000 1.0
C      1  0.5400890000000  0.4955760000000  0.4687850000000 1.0
C      1  0.4766080000000  0.4671630000000  0.5345660000000 1.0
C      1  0.4872120000000  0.5347880000000  0.5115000000000 1.0
C      1  0.5322220000000  0.4897920000000  0.5155650000000 1.0
C      1  0.5243900000000  0.4777510000000  0.4884540000000 1.0
C      1  0.5156560000000  0.5361670000000  0.4714410000000 1.0
C      1  0.4581040000000  0.4955240000000  0.4687430000000 1.0
C      1  0.5258220000000  0.4652100000000  0.5344900000000 1.0
C      1  0.5149290000000  0.5364350000000  0.5279810000000 1.0
C      1  0.4664380000000  0.4889370000000  0.5145610000000 1.0
C      1  0.4719360000000  0.4980440000000  0.5882230000000 1.0
C      1  0.5148670000000  0.5230560000000  0.5877190000000 1.0
C      1  0.5151420000000  0.4729560000000  0.5918320000000 1.0
C      1  0.4717500000000  0.5014540000000  0.4109750000000 1.0
C      1  0.5147330000000  0.5272610000000  0.4089580000000 1.0
C      1  0.5150620000000  0.4770110000000  0.4126750000000 1.0
C      1  0.5292690000000  0.4975740000000  0.5898300000000 1.0
C      1  0.4864220000000  0.5234270000000  0.5869390000000 1.0
C      1  0.4858460000000  0.4732590000000  0.5912910000000 1.0
C      1  0.5293070000000  0.5016390000000  0.4104020000000 1.0
C      1  0.4863770000000  0.5268680000000  0.4097480000000 1.0
C      1  0.4858840000000  0.4768180000000  0.4127280000000 1.0
C      1  0.4291550000000  0.4412020000000  0.5148500000000 1.0
C      1  0.4855890000000  0.5898380000000  0.5131830000000 1.0
C      1  0.5850520000000  0.4660330000000  0.5164180000000 1.0
C      1  0.4281350000000  0.4433730000000  0.4849180000000 1.0
C      1  0.4849580000000  0.5912910000000  0.4831060000000 1.0
C      1  0.5858980000000  0.4685670000000  0.4866270000000 1.0
C      1  0.5706870000000  0.4409800000000  0.5152420000000 1.0
C      1  0.5146950000000  0.5895900000000  0.5123520000000 1.0
C      1  0.4144170000000  0.4661770000000  0.5159820000000 1.0
C      1  0.5716000000000  0.4433710000000  0.4854160000000 1.0
C      1  0.5138280000000  0.5910890000000  0.4825090000000 1.0
C      1  0.4135700000000  0.4684800000000  0.4860140000000 1.0
C      1  0.5295370000000  0.5782280000000  0.5331490000000 1.0
C      1  0.5556380000000  0.4317730000000  0.5372550000000 1.0
C      1  0.4167730000000  0.4833870000000  0.5385250000000 1.0
C      1  0.5285130000000  0.5817490000000  0.4602580000000 1.0
C      1  0.5547550000000  0.4371290000000  0.4635310000000 1.0
C      1  0.4145710000000  0.4862730000000  0.4641940000000 1.0
C      1  0.4714870000000  0.5790020000000  0.5357130000000 1.0
C      1  0.4453590000000  0.4330470000000  0.5364770000000 1.0
C      1  0.5832940000000  0.4831240000000  0.5388780000000 1.0
C      1  0.4708940000000  0.5812900000000  0.4601470000000 1.0
C      1  0.4451420000000  0.4369710000000  0.4631580000000 1.0
C      1  0.5847720000000  0.4866680000000  0.4651980000000 1.0
C      1  0.5274250000000  0.5515970000000  0.4196120000000 1.0
C      1  0.5290170000000  0.4538270000000  0.4239900000000 1.0
C      1  0.4449670000000  0.5006810000000  0.4220350000000 1.0
C      1  0.5274040000000  0.5457990000000  0.5750380000000 1.0
C      1  0.5286470000000  0.4498270000000  0.5799690000000 1.0
C      1  0.4447050000000  0.4977110000000  0.5775270000000 1.0
C      1  0.4730790000000  0.5505380000000  0.4206010000000 1.0
C      1  0.4715530000000  0.4537820000000  0.4240170000000 1.0
C      1  0.5557320000000  0.5009400000000  0.4224500000000 1.0
C      1  0.4734490000000  0.5474070000000  0.5757160000000 1.0
C      1  0.4721580000000  0.4503240000000  0.5796020000000 1.0
C      1  0.5561460000000  0.4971450000000  0.5783190000000 1.0
C      1  0.4855460000000  0.4099510000000  0.5545090000000 1.0
C      1  0.4318290000000  0.5552190000000  0.5522000000000 1.0
C      1  0.5820020000000  0.5294770000000  0.5512460000000 1.0
C      1  0.4856020000000  0.4155170000000  0.4508630000000 1.0
C      1  0.4303730000000  0.5570610000000  0.4447170000000 1.0
C      1  0.5839160000000  0.5327190000000  0.4474090000000 1.0
C      1  0.5147810000000  0.4097430000000  0.5545820000000 1.0
C      1  0.5687680000000  0.5553120000000  0.5505770000000 1.0
C      1  0.4179820000000  0.5296130000000  0.5520590000000 1.0
C      1  0.5144430000000  0.4155980000000  0.4508290000000 1.0
C      1  0.5687050000000  0.5576310000000  0.4471920000000 1.0
C      1  0.4152560000000  0.5320670000000  0.4452500000000 1.0
C      1  0.5560120000000  0.5126550000000  0.5127240000000 1.0
C      1  0.4854380000000  0.4405790000000  0.5199370000000 1.0
C      1  0.4552190000000  0.5419590000000  0.5127810000000 1.0
C      1  0.5579710000000  0.5168070000000  0.4827840000000 1.0
C      1  0.4840610000000  0.4458930000000  0.4901500000000 1.0
C      1  0.4541530000000  0.5438000000000  0.4830160000000 1.0
C      1  0.4420790000000  0.5137620000000  0.5121430000000 1.0
C      1  0.5155130000000  0.4402610000000  0.5198600000000 1.0
C      1  0.5418760000000  0.5398830000000  0.5143800000000 1.0
C      1  0.4403350000000  0.5169860000000  0.4818740000000 1.0
C      1  0.5157520000000  0.4461870000000  0.4901090000000 1.0
C      1  0.5422320000000  0.5429540000000  0.4840350000000 1.0
C      1  0.4449000000000  0.5494070000000  0.4211660000000 1.0
C      1  0.5696910000000  0.5248270000000  0.4230710000000 1.0
C      1  0.4856210000000  0.4295270000000  0.4253880000000 1.0
C      1  0.4451610000000  0.5477780000000  0.5769660000000 1.0
C      1  0.5693650000000  0.5219790000000  0.5758700000000 1.0
C      1  0.4855200000000  0.4260370000000  0.5789710000000 1.0
C      1  0.5550250000000  0.5500850000000  0.4228500000000 1.0
C      1  0.4301180000000  0.5242130000000  0.4209400000000 1.0
C      1  0.5147520000000  0.4295640000000  0.4253510000000 1.0
C      1  0.5552430000000  0.5472920000000  0.5756710000000 1.0
C      1  0.4306980000000  0.5222300000000  0.5770320000000 1.0
C      1  0.5149450000000  0.4257140000000  0.5791850000000 1.0
C      1  0.5302220000000  0.4180120000000  0.5332690000000 1.0
C      1  0.4191260000000  0.5112350000000  0.5311440000000 1.0
C      1  0.5540540000000  0.5634210000000  0.5289950000000 1.0
C      1  0.5293160000000  0.4264270000000  0.4714410000000 1.0
C      1  0.4144920000000  0.5153070000000  0.4670980000000 1.0
C      1  0.5518860000000  0.5659770000000  0.4674890000000 1.0
C      1  0.4703590000000  0.4184730000000  0.5330400000000 1.0
C      1  0.5798160000000  0.5104560000000  0.5310960000000 1.0
C      1  0.4469930000000  0.5637900000000  0.5307270000000 1.0
C      1  0.4705310000000  0.4260410000000  0.4714830000000 1.0
C      1  0.5843970000000  0.5155010000000  0.4688680000000 1.0
C      1  0.4468960000000  0.5656650000000  0.4654760000000 1.0
C      1  0.5113750000000  0.5048840000000  0.5317940000000 1.0
C      1  0.5148070000000  0.5094370000000  0.4605960000000 1.0
C      1  0.4850580000000  0.5088150000000  0.5226070000000 1.0
C      1  0.4845120000000  0.5092340000000  0.4658310000000 1.0
C      1  0.5022610000000  0.4790640000000  0.5445250000000 1.0
C      1  0.4990630000000  0.4863680000000  0.4759330000000 1.0
END
