TITL C-163623-8347-8 0.209291143963249 125000 -737.755277053624 0 0 107 (C1) n - 1
REM
REM in /rds/project/t2_vol4/rds-t2-cs072/BORA/CARBON/from-Arr/AIRSS/Generating-Clusters/GAP-ML-2020/Higher-Symm/SD-CG/HFTN-CG
REM
REM
REM
REM
REM
REM ./C.cell (b20cbc046b6831c77cfcea5457e17084)
REM AIRSS Version 0.9.1 bugfix July 2018 build 013d7b7c2542+ Fri, 06 Jul 2018 19:26:36 +0100
REM compiler GCC version 9.3.0
REM options -cpp -mtune=generic -march=x86-64 -g -O0
REM seed -902560390 1258867663 -1136763126 -1958846819 -808360576 1477548430 -298248881 1016350808 -757124564 -757564262 -1384543591 500145919 -6875178 4047621 -1956399982 -509078913 -455229773 -349084455 -992173839 -1828486057 1651573891 -1392934584 1882656657 1565977307 1264853282 -1400695286 971442558 1360569042 1631573228 -273671018 891551495 11806670 -1499913885
REM
CELL 1.54180   50.00000   50.00000   50.00000   90.00000   90.00000   90.00000
LATT -1
SFAC C  
C      1  0.5165810000000  0.5448300000000  0.4850930000000 1.0
C      1  0.5165720000000  0.4629780000000  0.4675660000000 1.0
C      1  0.5165620000000  0.4905070000000  0.5478620000000 1.0
C      1  0.4813690000000  0.5466630000000  0.4837190000000 1.0
C      1  0.4813460000000  0.4649780000000  0.4677660000000 1.0
C      1  0.4813190000000  0.4902980000000  0.5459280000000 1.0
C      1  0.4834440000000  0.5363190000000  0.5313910000000 1.0
C      1  0.4834010000000  0.5098330000000  0.4524210000000 1.0
C      1  0.4832190000000  0.4545560000000  0.5146700000000 1.0
C      1  0.5146360000000  0.5358150000000  0.5315410000000 1.0
C      1  0.5145970000000  0.5093020000000  0.4526710000000 1.0
C      1  0.5144090000000  0.4543960000000  0.5152510000000 1.0
C      1  0.5692570000000  0.5280530000000  0.5435680000000 1.0
C      1  0.5688330000000  0.5237630000000  0.4532490000000 1.0
C      1  0.5690020000000  0.4478600000000  0.5028230000000 1.0
C      1  0.4292520000000  0.5286510000000  0.5435250000000 1.0
C      1  0.4288170000000  0.5239970000000  0.4531380000000 1.0
C      1  0.4289940000000  0.4479330000000  0.5016870000000 1.0
C      1  0.5237810000000  0.4717530000000  0.4942770000000 1.0
C      1  0.5237320000000  0.5088410000000  0.5266780000000 1.0
C      1  0.5238190000000  0.5179640000000  0.4786680000000 1.0
C      1  0.4739960000000  0.4728610000000  0.4941550000000 1.0
C      1  0.4739380000000  0.5095640000000  0.5261080000000 1.0
C      1  0.4740360000000  0.5192390000000  0.4780400000000 1.0
C      1  0.4729680000000  0.5270780000000  0.4255240000000 1.0
C      1  0.4729360000000  0.4226140000000  0.5132780000000 1.0
C      1  0.4733710000000  0.5509280000000  0.5597980000000 1.0
C      1  0.5248150000000  0.5266810000000  0.4257870000000 1.0
C      1  0.5247850000000  0.4224770000000  0.5136050000000 1.0
C      1  0.5252130000000  0.5505070000000  0.5599620000000 1.0
C      1  0.5129100000000  0.4171990000000  0.5409930000000 1.0
C      1  0.5137600000000  0.5769610000000  0.5506620000000 1.0
C      1  0.5132020000000  0.5056740000000  0.4074300000000 1.0
C      1  0.4842790000000  0.4174020000000  0.5407590000000 1.0
C      1  0.4851290000000  0.5772510000000  0.5507350000000 1.0
C      1  0.4845710000000  0.5058140000000  0.4073400000000 1.0
C      1  0.5876570000000  0.4873520000000  0.5099560000000 1.0
C      1  0.5881140000000  0.5147410000000  0.5051600000000 1.0
C      1  0.5878040000000  0.4969040000000  0.4838360000000 1.0
C      1  0.4098370000000  0.4880060000000  0.5098570000000 1.0
C      1  0.4102580000000  0.5154440000000  0.5052890000000 1.0
C      1  0.4099750000000  0.4977660000000  0.4838160000000 1.0
C      1  0.5140570000000  0.5798500000000  0.5215520000000 1.0
C      1  0.5136180000000  0.4788880000000  0.4192610000000 1.0
C      1  0.5133260000000  0.4408420000000  0.5582840000000 1.0
C      1  0.4846410000000  0.5804070000000  0.5215900000000 1.0
C      1  0.4842030000000  0.4791160000000  0.4193710000000 1.0
C      1  0.4839210000000  0.4411760000000  0.5578380000000 1.0
C      1  0.4242520000000  0.5369310000000  0.5166840000000 1.0
C      1  0.4242450000000  0.4967640000000  0.4597020000000 1.0
C      1  0.4241200000000  0.4672040000000  0.5221710000000 1.0
C      1  0.5737700000000  0.5358860000000  0.5166460000000 1.0
C      1  0.5737780000000  0.4963680000000  0.4595600000000 1.0
C      1  0.5736370000000  0.4670570000000  0.5232030000000 1.0
C      1  0.4701300000000  0.4811120000000  0.4459160000000 1.0
C      1  0.4699850000000  0.4633050000000  0.5428010000000 1.0
C      1  0.4703000000000  0.5569030000000  0.5092070000000 1.0
C      1  0.5277580000000  0.4798930000000  0.4459860000000 1.0
C      1  0.5275840000000  0.4633290000000  0.5440650000000 1.0
C      1  0.5279300000000  0.5557150000000  0.5099370000000 1.0
C      1  0.4473320000000  0.5156090000000  0.5786140000000 1.0
C      1  0.4460330000000  0.5610130000000  0.4456800000000 1.0
C      1  0.4472550000000  0.4238950000000  0.4730850000000 1.0
C      1  0.5520590000000  0.5162080000000  0.5794590000000 1.0
C      1  0.5507860000000  0.5606790000000  0.4468340000000 1.0
C      1  0.5519810000000  0.4228890000000  0.4743840000000 1.0
C      1  0.4411630000000  0.4741460000000  0.4546800000000 1.0
C      1  0.4410420000000  0.4744640000000  0.5442100000000 1.0
C      1  0.4410220000000  0.5525460000000  0.4991990000000 1.0
C      1  0.5569640000000  0.4734730000000  0.4549230000000 1.0
C      1  0.5568360000000  0.4741550000000  0.5454250000000 1.0
C      1  0.5568350000000  0.5514430000000  0.4995500000000 1.0
C      1  0.5133890000000  0.5407410000000  0.5844010000000 1.0
C      1  0.5129480000000  0.5531460000000  0.4219810000000 1.0
C      1  0.5131090000000  0.4063270000000  0.4927180000000 1.0
C      1  0.4852400000000  0.5408720000000  0.5845550000000 1.0
C      1  0.4847950000000  0.5531440000000  0.4219600000000 1.0
C      1  0.4849640000000  0.4061220000000  0.4923710000000 1.0
C      1  0.4693510000000  0.5743330000000  0.4349700000000 1.0
C      1  0.4709110000000  0.4091740000000  0.4670990000000 1.0
C      1  0.4709380000000  0.5175650000000  0.5944690000000 1.0
C      1  0.5272200000000  0.5734130000000  0.4371870000000 1.0
C      1  0.5287600000000  0.4069380000000  0.4679970000000 1.0
C      1  0.5287570000000  0.5188870000000  0.5963030000000 1.0
C      1  0.5641890000000  0.4496420000000  0.4719220000000 1.0
C      1  0.5642620000000  0.5005970000000  0.5575920000000 1.0
C      1  0.5639570000000  0.5491630000000  0.4704430000000 1.0
C      1  0.4340190000000  0.4500710000000  0.4711190000000 1.0
C      1  0.4340860000000  0.5009250000000  0.5568350000000 1.0
C      1  0.4337580000000  0.5498480000000  0.4701060000000 1.0
C      1  0.5528740000000  0.5405510000000  0.5632690000000 1.0
C      1  0.5524460000000  0.5347870000000  0.4328360000000 1.0
C      1  0.5525780000000  0.4245140000000  0.5035390000000 1.0
C      1  0.4457070000000  0.5407300000000  0.5632940000000 1.0
C      1  0.4452620000000  0.5349140000000  0.4325410000000 1.0
C      1  0.4453900000000  0.4247790000000  0.5025130000000 1.0
C      1  0.5145710000000  0.4998130000000  0.6099320000000 1.0
C      1  0.5064600000000  0.5848090000000  0.4545970000000 1.0
C      1  0.5148020000000  0.4046660000000  0.4445180000000 1.0
C      1  0.4916930000000  0.4967450000000  0.5956290000000 1.0
C      1  0.4835650000000  0.5956200000000  0.4447660000000 1.0
C      1  0.4918450000000  0.4185710000000  0.4487140000000 1.0
C      1  0.4974380000000  0.4433230000000  0.4636130000000 1.0
C      1  0.4974670000000  0.4972320000000  0.5667950000000 1.0
C      1  0.5006290000000  0.5595440000000  0.4685280000000 1.0
C      1  0.5279090000000  0.4993920000000  0.4999130000000 1.0
C      1  0.4697670000000  0.5006880000000  0.4994000000000 1.0
END
