TITL C-170971-8988-10 0.0353954483907383 125000 -410.736053681031 0 0 61 (C1) n - 1
REM
REM in /rds/project/t2_vol4/rds-t2-cs072/BORA/CARBON/from-Arr/AIRSS/Generating-Clusters/GAP-ML-2020/Higher-Symm/SD-CG/HFTN-CG
REM
REM
REM
REM
REM
REM ./C.cell (b20cbc046b6831c77cfcea5457e17084)
REM AIRSS Version 0.9.1 bugfix July 2018 build 013d7b7c2542+ Fri, 06 Jul 2018 19:26:36 +0100
REM compiler GCC version 9.3.0
REM options -cpp -mtune=generic -march=x86-64 -g -O0
REM seed -268977467 -1938449314 -95715855 1278770693 1910819909 1609021284 -404876680 -1780101201 81407221 335362142 176942186 -905444446 -798392563 -511799878 1963275249 1874258842 -576979152 1189173294 194644264 324534223 1154009844 1330748034 1442999530 -2109241895 1691332052 -1047584396 -1835068155 -1909975277 -1835964645 1142326223 1133778245 1390433565 -477958739
REM
CELL 1.54180   50.00000   50.00000   50.00000   90.00000   90.00000   90.00000
LATT -1
SFAC C  
C      1  0.5362610000000  0.4754750000000  0.4369780000000 1.0
C      1  0.4891670000000  0.4581640000000  0.4362310000000 1.0
C      1  0.4583080000000  0.4981940000000  0.4351040000000 1.0
C      1  0.4861730000000  0.5390250000000  0.4359500000000 1.0
C      1  0.5344390000000  0.5251610000000  0.4370340000000 1.0
C      1  0.4809280000000  0.4790440000000  0.5111450000000 1.0
C      1  0.4770660000000  0.5085060000000  0.5120160000000 1.0
C      1  0.5111290000000  0.5426640000000  0.5131470000000 1.0
C      1  0.5231500000000  0.4994430000000  0.5151940000000 1.0
C      1  0.5097830000000  0.4742420000000  0.5126680000000 1.0
C      1  0.4793760000000  0.4942840000000  0.5623520000000 1.0
C      1  0.4957930000000  0.5192210000000  0.5565770000000 1.0
C      1  0.5246240000000  0.5121550000000  0.5640430000000 1.0
C      1  0.5253710000000  0.4829160000000  0.5648620000000 1.0
C      1  0.4979080000000  0.4722500000000  0.5639480000000 1.0
C      1  0.4564900000000  0.5281600000000  0.4714050000000 1.0
C      1  0.5150830000000  0.5520510000000  0.4701120000000 1.0
C      1  0.5512540000000  0.5010050000000  0.4741590000000 1.0
C      1  0.5180020000000  0.4513970000000  0.4732700000000 1.0
C      1  0.4592860000000  0.4677510000000  0.4712470000000 1.0
C      1  0.4529220000000  0.4916180000000  0.5557150000000 1.0
C      1  0.4822340000000  0.5455540000000  0.5557630000000 1.0
C      1  0.5453520000000  0.5279750000000  0.5564310000000 1.0
C      1  0.5485370000000  0.4670280000000  0.5643440000000 1.0
C      1  0.4901800000000  0.4465480000000  0.5570090000000 1.0
C      1  0.5426480000000  0.4534400000000  0.4905310000000 1.0
C      1  0.4693120000000  0.4440630000000  0.4868150000000 1.0
C      1  0.4381520000000  0.5106660000000  0.4873400000000 1.0
C      1  0.4891570000000  0.5652870000000  0.4844810000000 1.0
C      1  0.5591470000000  0.5253260000000  0.4877960000000 1.0
C      1  0.4807380000000  0.5151550000000  0.4830230000000 1.0
C      1  0.5071610000000  0.5268630000000  0.4828410000000 1.0
C      1  0.5237060000000  0.5035700000000  0.4855120000000 1.0
C      1  0.5084390000000  0.4780370000000  0.4823590000000 1.0
C      1  0.4810140000000  0.4854520000000  0.4808760000000 1.0
C      1  0.4634550000000  0.5518590000000  0.4868400000000 1.0
C      1  0.5437750000000  0.5499790000000  0.4852830000000 1.0
C      1  0.5573660000000  0.4772410000000  0.4911980000000 1.0
C      1  0.4967610000000  0.4365640000000  0.4881800000000 1.0
C      1  0.4388370000000  0.4821990000000  0.4873050000000 1.0
C      1  0.5052110000000  0.4342280000000  0.5148600000000 1.0
C      1  0.4398200000000  0.4724580000000  0.5138240000000 1.0
C      1  0.4553380000000  0.5469160000000  0.5138530000000 1.0
C      1  0.5384260000000  0.5515080000000  0.5129080000000 1.0
C      1  0.5553540000000  0.4889850000000  0.5179510000000 1.0
C      1  0.4469890000000  0.5177370000000  0.5150560000000 1.0
C      1  0.4942860000000  0.5658260000000  0.5123550000000 1.0
C      1  0.5652830000000  0.5172740000000  0.5145790000000 1.0
C      1  0.5301440000000  0.4509580000000  0.5173230000000 1.0
C      1  0.4631200000000  0.4535440000000  0.5142800000000 1.0
C      1  0.4643250000000  0.5240510000000  0.4425880000000 1.0
C      1  0.5128160000000  0.5415020000000  0.4425210000000 1.0
C      1  0.5440520000000  0.5007300000000  0.4446820000000 1.0
C      1  0.5156280000000  0.4587780000000  0.4441260000000 1.0
C      1  0.4667490000000  0.4732290000000  0.4426500000000 1.0
C      1  0.4741990000000  0.5582980000000  0.5325130000000 1.0
C      1  0.5551880000000  0.5371490000000  0.5326390000000 1.0
C      1  0.5488290000000  0.4664270000000  0.5373550000000 1.0
C      1  0.4823910000000  0.4382340000000  0.5328680000000 1.0
C      1  0.4379760000000  0.4948910000000  0.5331630000000 1.0
C      1  0.5014220000000  0.5178450000000  0.5264090000000 1.0
END
