TITL C-170982-9352-4 -248.857471502173 125000 -806.98529852101 0 0 112 (C1) n - 1
REM
REM in /rds/project/t2_vol4/rds-t2-cs072/BORA/CARBON/from-Arr/AIRSS/Generating-Clusters/GAP-ML-2020/Higher-Symm/SD-CG/HFTN-CG
REM
REM
REM
REM
REM
REM ./C.cell (b20cbc046b6831c77cfcea5457e17084)
REM AIRSS Version 0.9.1 bugfix July 2018 build 013d7b7c2542+ Fri, 06 Jul 2018 19:26:36 +0100
REM compiler GCC version 9.3.0
REM options -cpp -mtune=generic -march=x86-64 -g -O0
REM seed 560825510 -1663445583 -524040692 189458720 -675556220 -61159451 104414893 757560141 107790931 -865448176 2129749050 44727414 -1743221983 -1451451017 -1398737267 -1582539878 -63434557 2095241698 -1462888943 1564933517 1825188094 266691831 -122559000 125944415 690062947 -1648149049 -1506918422 1453460569 -659687023 -1219160643 -1256235841 -284579473 1392039863
REM
CELL 1.54180   50.00000   50.00000   50.00000   90.00000   90.00000   90.00000
LATT -1
SFAC C  
C      1  0.4701570000000  0.5554550000000  0.4398040000000 1.0
C      1  0.5680790000000  0.4974700000000  0.4406340000000 1.0
C      1  0.4626980000000  0.4469810000000  0.4398990000000 1.0
C      1  0.5905290000000  0.5256480000000  0.5044840000000 1.0
C      1  0.4760980000000  0.4128240000000  0.5044880000000 1.0
C      1  0.4346240000000  0.5629470000000  0.5047920000000 1.0
C      1  0.5342300000000  0.4594380000000  0.4310940000000 1.0
C      1  0.4408160000000  0.4918420000000  0.4320860000000 1.0
C      1  0.5196770000000  0.5497380000000  0.4314870000000 1.0
C      1  0.5225410000000  0.4259870000000  0.5606850000000 1.0
C      1  0.4264920000000  0.5151900000000  0.5604700000000 1.0
C      1  0.5496070000000  0.5539180000000  0.5587510000000 1.0
C      1  0.5469040000000  0.4655140000000  0.5702930000000 1.0
C      1  0.4481950000000  0.4724720000000  0.5723940000000 1.0
C      1  0.5022110000000  0.5550810000000  0.5692870000000 1.0
C      1  0.4180570000000  0.4728680000000  0.4759720000000 1.0
C      1  0.5151840000000  0.5818140000000  0.4743400000000 1.0
C      1  0.5646070000000  0.4461960000000  0.4749970000000 1.0
C      1  0.5275030000000  0.5399940000000  0.5709150000000 1.0
C      1  0.5231800000000  0.4503570000000  0.5768000000000 1.0
C      1  0.4483290000000  0.5017790000000  0.5749410000000 1.0
C      1  0.5813480000000  0.4697060000000  0.4819600000000 1.0
C      1  0.4330740000000  0.4482830000000  0.4822700000000 1.0
C      1  0.4864600000000  0.5827320000000  0.4805740000000 1.0
C      1  0.5738160000000  0.5399870000000  0.4570740000000 1.0
C      1  0.4973330000000  0.4226570000000  0.4570630000000 1.0
C      1  0.4284380000000  0.5432130000000  0.4570270000000 1.0
C      1  0.4550450000000  0.5548030000000  0.5476530000000 1.0
C      1  0.5722270000000  0.5106540000000  0.5458100000000 1.0
C      1  0.4721080000000  0.4311020000000  0.5489460000000 1.0
C      1  0.4123610000000  0.4938480000000  0.5478330000000 1.0
C      1  0.5375050000000  0.5767860000000  0.5462740000000 1.0
C      1  0.5483950000000  0.4250730000000  0.5474940000000 1.0
C      1  0.5612260000000  0.5782290000000  0.4839980000000 1.0
C      1  0.5356930000000  0.4099880000000  0.4837220000000 1.0
C      1  0.3993600000000  0.5152800000000  0.4856040000000 1.0
C      1  0.5820530000000  0.5484800000000  0.5205520000000 1.0
C      1  0.4993960000000  0.4063570000000  0.5203230000000 1.0
C      1  0.4175950000000  0.5460590000000  0.5214640000000 1.0
C      1  0.4687550000000  0.5153350000000  0.4861990000000 1.0
C      1  0.5360590000000  0.5197490000000  0.4940790000000 1.0
C      1  0.5055250000000  0.4623690000000  0.5047480000000 1.0
C      1  0.5472530000000  0.5848460000000  0.5214540000000 1.0
C      1  0.5487020000000  0.4158240000000  0.5211580000000 1.0
C      1  0.4004450000000  0.4990860000000  0.5231650000000 1.0
C      1  0.4703570000000  0.4536680000000  0.5691020000000 1.0
C      1  0.4757380000000  0.5436300000000  0.5654300000000 1.0
C      1  0.5478370000000  0.4948540000000  0.5557600000000 1.0
C      1  0.5632310000000  0.5249590000000  0.4364330000000 1.0
C      1  0.4898340000000  0.4402300000000  0.4364970000000 1.0
C      1  0.4468080000000  0.5403190000000  0.4358810000000 1.0
C      1  0.5467680000000  0.4842760000000  0.4259440000000 1.0
C      1  0.4605820000000  0.4721770000000  0.4270530000000 1.0
C      1  0.4924330000000  0.5409930000000  0.4277390000000 1.0
C      1  0.5254320000000  0.5142000000000  0.5600610000000 1.0
C      1  0.4972020000000  0.4621630000000  0.5763010000000 1.0
C      1  0.4721120000000  0.5148440000000  0.5680410000000 1.0
C      1  0.5305080000000  0.5044660000000  0.4158290000000 1.0
C      1  0.4865590000000  0.4834820000000  0.4194140000000 1.0
C      1  0.4820010000000  0.5135700000000  0.4194780000000 1.0
C      1  0.4272880000000  0.4694810000000  0.5530590000000 1.0
C      1  0.5091200000000  0.5762700000000  0.5511200000000 1.0
C      1  0.5632690000000  0.4489810000000  0.5531330000000 1.0
C      1  0.5869080000000  0.5212320000000  0.4760280000000 1.0
C      1  0.4747910000000  0.4198640000000  0.4760280000000 1.0
C      1  0.4397560000000  0.5625610000000  0.4759530000000 1.0
C      1  0.5053090000000  0.5161830000000  0.5370750000000 1.0
C      1  0.4980310000000  0.4746230000000  0.5511540000000 1.0
C      1  0.4835720000000  0.4985130000000  0.5436660000000 1.0
C      1  0.5256470000000  0.4215450000000  0.4607680000000 1.0
C      1  0.4137900000000  0.5190080000000  0.4622370000000 1.0
C      1  0.5575550000000  0.5637540000000  0.4608210000000 1.0
C      1  0.4404560000000  0.4640580000000  0.5286940000000 1.0
C      1  0.4962680000000  0.5707130000000  0.5267220000000 1.0
C      1  0.5689190000000  0.4639040000000  0.5295510000000 1.0
C      1  0.5439880000000  0.4419640000000  0.4523590000000 1.0
C      1  0.4224810000000  0.4925690000000  0.4540270000000 1.0
C      1  0.5295830000000  0.5671940000000  0.4526230000000 1.0
C      1  0.4022450000000  0.4878060000000  0.4955160000000 1.0
C      1  0.5357070000000  0.5881270000000  0.4939760000000 1.0
C      1  0.5583510000000  0.4251050000000  0.4940950000000 1.0
C      1  0.5384750000000  0.5297120000000  0.4235590000000 1.0
C      1  0.5057400000000  0.4607160000000  0.4244800000000 1.0
C      1  0.4536290000000  0.5158640000000  0.4243340000000 1.0
C      1  0.4304280000000  0.5403660000000  0.5465970000000 1.0
C      1  0.5709640000000  0.5393140000000  0.5456760000000 1.0
C      1  0.4979500000000  0.4182990000000  0.5465250000000 1.0
C      1  0.4634390000000  0.4865420000000  0.5216420000000 1.0
C      1  0.5031420000000  0.5400190000000  0.5180340000000 1.0
C      1  0.5422340000000  0.4799210000000  0.5285940000000 1.0
C      1  0.5869610000000  0.5026820000000  0.5210020000000 1.0
C      1  0.4583270000000  0.4267450000000  0.5222910000000 1.0
C      1  0.4565370000000  0.5706500000000  0.5216790000000 1.0
C      1  0.5860890000000  0.4757740000000  0.5106950000000 1.0
C      1  0.4381380000000  0.4430890000000  0.5105130000000 1.0
C      1  0.4791900000000  0.5826820000000  0.5089350000000 1.0
C      1  0.5139450000000  0.5195510000000  0.4756340000000 1.0
C      1  0.5225580000000  0.4761550000000  0.4861650000000 1.0
C      1  0.4796990000000  0.4893710000000  0.4767740000000 1.0
C      1  0.5385970000000  0.4931900000000  0.5027370000000 1.0
C      1  0.4799930000000  0.4729260000000  0.5004090000000 1.0
C      1  0.4919910000000  0.5305550000000  0.4912000000000 1.0
C      1  0.4657200000000  0.5712860000000  0.4643240000000 1.0
C      1  0.5826260000000  0.4937920000000  0.4656470000000 1.0
C      1  0.4531630000000  0.4361770000000  0.4654310000000 1.0
C      1  0.4544970000000  0.5095730000000  0.5084260000000 1.0
C      1  0.5311970000000  0.5399070000000  0.5113970000000 1.0
C      1  0.5163770000000  0.4646710000000  0.5306300000000 1.0
C      1  0.5713280000000  0.5723040000000  0.5103130000000 1.0
C      1  0.5252510000000  0.4033690000000  0.5096650000000 1.0
C      1  0.3999590000000  0.5264260000000  0.5121190000000 1.0
C      1  0.5067590000000  0.4929200000000  0.4686860000000 1.0
END
