TITL C-170960-5768-7 -1802.63249488058 125000 -573.287220184878 0 0 84 (C1) n - 1
REM
REM in /rds/project/t2_vol4/rds-t2-cs072/BORA/CARBON/from-Arr/AIRSS/Generating-Clusters/GAP-ML-2020/Higher-Symm/SD-CG/HFTN-CG
REM
REM
REM
REM
REM
REM ./C.cell (b20cbc046b6831c77cfcea5457e17084)
REM AIRSS Version 0.9.1 bugfix July 2018 build 013d7b7c2542+ Fri, 06 Jul 2018 19:26:36 +0100
REM compiler GCC version 9.3.0
REM options -cpp -mtune=generic -march=x86-64 -g -O0
REM seed -1469834887 -868337849 634517714 -1315428555 1129916054 -622471562 -1588835824 -986696837 -1586152557 -1061416334 2023725707 -1701992604 -302876923 -242138640 130141160 -1186636368 -562058465 -549484453 1804703540 -1234841296 -1033274072 1309222334 -1289817148 1565307866 -1079387854 1875746234 -1312867263 851908780 545160503 -527193715 -1987317785 -977186069 -731294410
REM
CELL 1.54180   50.00000   50.00000   50.00000   90.00000   90.00000   90.00000
LATT -1
SFAC C  
C      1  0.4974110000000  0.5820020000000  0.4747130000000 1.0
C      1  0.4992060000000  0.4342310000000  0.4436840000000 1.0
C      1  0.4909870000000  0.4929810000000  0.5856410000000 1.0
C      1  0.5796360000000  0.4986850000000  0.5485850000000 1.0
C      1  0.5729630000000  0.5305890000000  0.4794200000000 1.0
C      1  0.5824720000000  0.4586480000000  0.4524990000000 1.0
C      1  0.5751770000000  0.4884130000000  0.5006330000000 1.0
C      1  0.5702340000000  0.5083920000000  0.5210850000000 1.0
C      1  0.5706290000000  0.5010270000000  0.4751450000000 1.0
C      1  0.5167430000000  0.5137290000000  0.5165110000000 1.0
C      1  0.5154090000000  0.4912120000000  0.4771910000000 1.0
C      1  0.5108900000000  0.4894910000000  0.5044240000000 1.0
C      1  0.5292190000000  0.4374030000000  0.4973060000000 1.0
C      1  0.5345020000000  0.5379560000000  0.5698270000000 1.0
C      1  0.5213250000000  0.5412300000000  0.4408380000000 1.0
C      1  0.5584690000000  0.5426980000000  0.4586690000000 1.0
C      1  0.5655220000000  0.4515140000000  0.4731460000000 1.0
C      1  0.5623230000000  0.4973500000000  0.5710300000000 1.0
C      1  0.5169370000000  0.5598750000000  0.5754910000000 1.0
C      1  0.4944980000000  0.5332820000000  0.4387140000000 1.0
C      1  0.5017830000000  0.4325980000000  0.5037790000000 1.0
C      1  0.4664550000000  0.4921020000000  0.5207900000000 1.0
C      1  0.4776920000000  0.5368820000000  0.4893550000000 1.0
C      1  0.4747290000000  0.4680450000000  0.4695310000000 1.0
C      1  0.4183230000000  0.4924310000000  0.5681710000000 1.0
C      1  0.4198460000000  0.5602820000000  0.4773190000000 1.0
C      1  0.4196140000000  0.4425980000000  0.4566880000000 1.0
C      1  0.5401720000000  0.5023610000000  0.4666940000000 1.0
C      1  0.5678440000000  0.4613920000000  0.5005870000000 1.0
C      1  0.5413570000000  0.5144500000000  0.5310530000000 1.0
C      1  0.5159720000000  0.4888120000000  0.5752830000000 1.0
C      1  0.5231480000000  0.5740010000000  0.4815090000000 1.0
C      1  0.5231980000000  0.4472870000000  0.4465430000000 1.0
C      1  0.5186200000000  0.4669520000000  0.5556310000000 1.0
C      1  0.5273440000000  0.5677420000000  0.5097670000000 1.0
C      1  0.5238170000000  0.4733830000000  0.4322880000000 1.0
C      1  0.4940520000000  0.5320400000000  0.5171460000000 1.0
C      1  0.4911410000000  0.4929640000000  0.4617470000000 1.0
C      1  0.4874520000000  0.4733950000000  0.5155860000000 1.0
C      1  0.4414120000000  0.4949510000000  0.4500360000000 1.0
C      1  0.4464880000000  0.4392430000000  0.5262670000000 1.0
C      1  0.4419430000000  0.5386440000000  0.5253900000000 1.0
C      1  0.5470900000000  0.4501400000000  0.5165110000000 1.0
C      1  0.5461420000000  0.5398300000000  0.5446800000000 1.0
C      1  0.5429700000000  0.5216320000000  0.4428600000000 1.0
C      1  0.4234920000000  0.4689970000000  0.5593640000000 1.0
C      1  0.4297770000000  0.5725070000000  0.4980100000000 1.0
C      1  0.4296410000000  0.4548710000000  0.4360090000000 1.0
C      1  0.4483290000000  0.5213830000000  0.4538720000000 1.0
C      1  0.4513110000000  0.4420660000000  0.5005180000000 1.0
C      1  0.4510600000000  0.5250740000000  0.5477320000000 1.0
C      1  0.4956210000000  0.4307260000000  0.5309310000000 1.0
C      1  0.5035030000000  0.5685970000000  0.5554530000000 1.0
C      1  0.4931140000000  0.5132480000000  0.4199550000000 1.0
C      1  0.5461630000000  0.4914200000000  0.4383890000000 1.0
C      1  0.5432500000000  0.4609330000000  0.5428540000000 1.0
C      1  0.5504120000000  0.5542560000000  0.5201700000000 1.0
C      1  0.4769330000000  0.4495370000000  0.4454050000000 1.0
C      1  0.4672100000000  0.4867290000000  0.5752060000000 1.0
C      1  0.4777180000000  0.5675660000000  0.4862110000000 1.0
C      1  0.4793520000000  0.4524770000000  0.4946910000000 1.0
C      1  0.4749630000000  0.5164520000000  0.5345840000000 1.0
C      1  0.4780350000000  0.5219810000000  0.4625200000000 1.0
C      1  0.4336340000000  0.4520540000000  0.4789740000000 1.0
C      1  0.4436700000000  0.5047130000000  0.5662520000000 1.0
C      1  0.4329200000000  0.5360510000000  0.4731610000000 1.0
C      1  0.4462810000000  0.5261730000000  0.4975910000000 1.0
C      1  0.4464520000000  0.4792730000000  0.4755230000000 1.0
C      1  0.4499060000000  0.4973310000000  0.4991280000000 1.0
C      1  0.4690930000000  0.4620970000000  0.5606300000000 1.0
C      1  0.4746360000000  0.5740880000000  0.5141390000000 1.0
C      1  0.4731800000000  0.4693340000000  0.4247990000000 1.0
C      1  0.4476440000000  0.5665920000000  0.5191800000000 1.0
C      1  0.4458060000000  0.4763940000000  0.4287440000000 1.0
C      1  0.4439230000000  0.4517590000000  0.5505480000000 1.0
C      1  0.5003740000000  0.5629530000000  0.5261130000000 1.0
C      1  0.4965840000000  0.4871260000000  0.4304110000000 1.0
C      1  0.4935830000000  0.4568560000000  0.5436820000000 1.0
C      1  0.5697190000000  0.5358350000000  0.5070430000000 1.0
C      1  0.5725570000000  0.4838180000000  0.4498790000000 1.0
C      1  0.5653250000000  0.4747560000000  0.5549920000000 1.0
C      1  0.5371880000000  0.5088310000000  0.5773930000000 1.0
C      1  0.5350410000000  0.5591220000000  0.4596300000000 1.0
C      1  0.5394430000000  0.4411580000000  0.4705540000000 1.0
END
