TITL C-175312-9339-4 -0.00801404766193292 125000 -29.7959810033998 0 0 5 (D(inf)h) n - 1
REM
REM in /rds/project/t2_vol4/rds-t2-cs072/BORA/CARBON/from-Arr/AIRSS/Generating-Clusters/GAP-ML-2020/Higher-Symm/SD-CG/HFTN-CG
REM
REM
REM
REM
REM
REM ./C.cell (b20cbc046b6831c77cfcea5457e17084)
REM AIRSS Version 0.9.1 bugfix July 2018 build 013d7b7c2542+ Fri, 06 Jul 2018 19:26:36 +0100
REM compiler GCC version 9.3.0
REM options -cpp -mtune=generic -march=x86-64 -g -O0
REM seed -581494003 -1049449178 -205085105 -901417360 -2120422019 -608006479 1690816535 1964283066 -1141573659 602546203 -1831079757 -850345574 1700287103 -248792216 1935903357 1928276022 40282603 -2145768667 1807666016 537515195 -260707403 1561345909 1676156147 1577219716 120410000 592873525 151228199 1331177733 -1671894110 120871782 2145603695 1455950527 -98533626
REM
CELL 1.54180   50.00000   50.00000   50.00000   90.00000   90.00000   90.00000
LATT -1
SFAC C  
C      1  0.5005900000000  0.4482930000000  0.5013390000000 1.0
C      1  0.5005900000000  0.4741540000000  0.5013390000000 1.0
C      1  0.5005900000000  0.5258460000000  0.5013390000000 1.0
C      1  0.5005900000000  0.5000000000000  0.5013390000000 1.0
C      1  0.5005900000000  0.5517070000000  0.5013390000000 1.0
END
