TITL C-170978-8038-2 -0.023945404205263 125000 -173.663248810177 0 0 27 (S4) n - 1
REM
REM in /rds/project/t2_vol4/rds-t2-cs072/BORA/CARBON/from-Arr/AIRSS/Generating-Clusters/GAP-ML-2020/Higher-Symm/SD-CG/HFTN-CG
REM
REM
REM
REM
REM
REM ./C.cell (b20cbc046b6831c77cfcea5457e17084)
REM AIRSS Version 0.9.1 bugfix July 2018 build 013d7b7c2542+ Fri, 06 Jul 2018 19:26:36 +0100
REM compiler GCC version 9.3.0
REM options -cpp -mtune=generic -march=x86-64 -g -O0
REM seed 1245598104 1266864291 -1091388301 -989914841 -645267790 1825258868 -1993302129 1474122926 -1676880649 -1916037374 1690018909 1365031230 -773383595 271046506 109919595 70495393 367829831 670584526 -1462978969 -421154680 -1831273109 1190093229 -1465438575 1735026752 854475184 -729929289 -1293635878 -606353410 1240163763 1110935025 -731720229 1379239046 436354523
REM
CELL 1.54180   50.00000   50.00000   50.00000   90.00000   90.00000   90.00000
LATT -1
SFAC C  
C      1  0.5321850000000  0.4690630000000  0.4966820000000 1.0
C      1  0.4979950000000  0.5337930000000  0.4691470000000 1.0
C      1  0.4704620000000  0.4690620000000  0.5033380000000 1.0
C      1  0.5046510000000  0.5337940000000  0.5308700000000 1.0
C      1  0.4841610000000  0.4472980000000  0.4902200000000 1.0
C      1  0.4915330000000  0.5555580000000  0.5171710000000 1.0
C      1  0.5184870000000  0.4472990000000  0.5098000000000 1.0
C      1  0.5111130000000  0.5555580000000  0.4828450000000 1.0
C      1  0.4804860000000  0.5206830000000  0.4881230000000 1.0
C      1  0.4894380000000  0.4821730000000  0.5208470000000 1.0
C      1  0.5221600000000  0.5206840000000  0.5118950000000 1.0
C      1  0.5132100000000  0.4821720000000  0.4791720000000 1.0
C      1  0.4761270000000  0.4931160000000  0.5441810000000 1.0
C      1  0.5454950000000  0.5097420000000  0.5252050000000 1.0
C      1  0.5265200000000  0.4931150000000  0.4558380000000 1.0
C      1  0.4571520000000  0.5097400000000  0.4748130000000 1.0
C      1  0.4656090000000  0.4857610000000  0.4796380000000 1.0
C      1  0.4809510000000  0.5170950000000  0.5357230000000 1.0
C      1  0.5370380000000  0.4857630000000  0.5203820000000 1.0
C      1  0.5216950000000  0.5170940000000  0.4642950000000 1.0
C      1  0.5141680000000  0.4690630000000  0.5282680000000 1.0
C      1  0.5295820000000  0.5337930000000  0.4871650000000 1.0
C      1  0.4884800000000  0.4690620000000  0.4717510000000 1.0
C      1  0.4730640000000  0.5337930000000  0.5128530000000 1.0
C      1  0.5013230000000  0.5740740000000  0.5000080000000 1.0
C      1  0.5013240000000  0.4287820000000  0.5000110000000 1.0
C      1  0.5013230000000  0.5014280000000  0.5000090000000 1.0
END
