TITL C-175311-9339-6 293.384259219046 125000 -609.013202976318 0 0 89 (C1) n - 1
REM
REM in /rds/project/t2_vol4/rds-t2-cs072/BORA/CARBON/from-Arr/AIRSS/Generating-Clusters/GAP-ML-2020/Higher-Symm/SD-CG/HFTN-CG
REM
REM
REM
REM
REM
REM ./C.cell (b20cbc046b6831c77cfcea5457e17084)
REM AIRSS Version 0.9.1 bugfix July 2018 build 013d7b7c2542+ Fri, 06 Jul 2018 19:26:36 +0100
REM compiler GCC version 9.3.0
REM options -cpp -mtune=generic -march=x86-64 -g -O0
REM seed -1537347779 -769810299 1123850191 1783047384 657711702 -1081785439 -1247465359 -1168760396 -275446305 205168031 -735532633 411668274 73579667 1405627522 -834368951 1789640621 -1416138311 1541699377 20422597 -1351789591 1664763282 240421419 2036592374 -1038426356 -129986164 618813734 -277773898 1131503206 50744607 1818994771 1177613070 539659220 1701707080
REM
CELL 1.54180   50.00000   50.00000   50.00000   90.00000   90.00000   90.00000
LATT -1
SFAC C  
C      1  0.4436670000000  0.4804640000000  0.4464590000000 1.0
C      1  0.4616530000000  0.5679160000000  0.4729620000000 1.0
C      1  0.5649720000000  0.4915480000000  0.4669210000000 1.0
C      1  0.5319800000000  0.5127680000000  0.5265570000000 1.0
C      1  0.4922220000000  0.5874170000000  0.5145290000000 1.0
C      1  0.5383480000000  0.5676020000000  0.5083500000000 1.0
C      1  0.4864090000000  0.5010000000000  0.5231240000000 1.0
C      1  0.5455330000000  0.5566830000000  0.5342460000000 1.0
C      1  0.5465470000000  0.4999840000000  0.4465580000000 1.0
C      1  0.4984640000000  0.4791790000000  0.5374060000000 1.0
C      1  0.5160180000000  0.4347530000000  0.5402530000000 1.0
C      1  0.4621640000000  0.4893530000000  0.4260630000000 1.0
C      1  0.4958550000000  0.5462620000000  0.5149030000000 1.0
C      1  0.4763220000000  0.4977290000000  0.4982740000000 1.0
C      1  0.5400660000000  0.4409420000000  0.5243010000000 1.0
C      1  0.4261950000000  0.5262940000000  0.5232030000000 1.0
C      1  0.5019910000000  0.4551360000000  0.5204870000000 1.0
C      1  0.5420360000000  0.4444040000000  0.4945250000000 1.0
C      1  0.4857830000000  0.4747430000000  0.4194580000000 1.0
C      1  0.4711940000000  0.4382600000000  0.4454090000000 1.0
C      1  0.5875380000000  0.5003650000000  0.5086980000000 1.0
C      1  0.5213300000000  0.5087260000000  0.5702030000000 1.0
C      1  0.5072110000000  0.4157590000000  0.4683170000000 1.0
C      1  0.4424720000000  0.5344210000000  0.5464690000000 1.0
C      1  0.4827280000000  0.5819380000000  0.4864150000000 1.0
C      1  0.4947450000000  0.4953300000000  0.4608040000000 1.0
C      1  0.4759110000000  0.4698470000000  0.4896290000000 1.0
C      1  0.5281490000000  0.5561410000000  0.5574820000000 1.0
C      1  0.5256250000000  0.4514520000000  0.5633800000000 1.0
C      1  0.4705230000000  0.5580700000000  0.4474410000000 1.0
C      1  0.4815480000000  0.4763320000000  0.5621180000000 1.0
C      1  0.5822040000000  0.5102230000000  0.4825510000000 1.0
C      1  0.5290550000000  0.4811020000000  0.4343060000000 1.0
C      1  0.5172140000000  0.4892200000000  0.5905500000000 1.0
C      1  0.5192820000000  0.5899560000000  0.5141840000000 1.0
C      1  0.5453550000000  0.4651900000000  0.5438530000000 1.0
C      1  0.4699720000000  0.4181820000000  0.5432640000000 1.0
C      1  0.4748750000000  0.4470710000000  0.5089130000000 1.0
C      1  0.4558170000000  0.5345640000000  0.4399550000000 1.0
C      1  0.5170270000000  0.4563940000000  0.4491060000000 1.0
C      1  0.4548180000000  0.4651230000000  0.5500300000000 1.0
C      1  0.4392280000000  0.4415280000000  0.4778900000000 1.0
C      1  0.4966820000000  0.5241790000000  0.5601030000000 1.0
C      1  0.4923000000000  0.4515080000000  0.4327210000000 1.0
C      1  0.5130340000000  0.5382200000000  0.4343530000000 1.0
C      1  0.5399400000000  0.5123240000000  0.4983860000000 1.0
C      1  0.4984840000000  0.5188550000000  0.4198620000000 1.0
C      1  0.5009800000000  0.4698070000000  0.4734250000000 1.0
C      1  0.4419130000000  0.5489570000000  0.4814570000000 1.0
C      1  0.4996790000000  0.5545270000000  0.5579720000000 1.0
C      1  0.4696260000000  0.5164720000000  0.4238890000000 1.0
C      1  0.5766330000000  0.5069080000000  0.5347020000000 1.0
C      1  0.5647900000000  0.5323850000000  0.4865730000000 1.0
C      1  0.5190790000000  0.5251750000000  0.4817010000000 1.0
C      1  0.5151450000000  0.5521460000000  0.4935800000000 1.0
C      1  0.5554130000000  0.5284340000000  0.5415800000000 1.0
C      1  0.4381520000000  0.5269870000000  0.4617460000000 1.0
C      1  0.4745530000000  0.5056510000000  0.5672640000000 1.0
C      1  0.5722890000000  0.4778490000000  0.5395890000000 1.0
C      1  0.4983880000000  0.5590610000000  0.4467600000000 1.0
C      1  0.5201550000000  0.4671610000000  0.4956630000000 1.0
C      1  0.4581400000000  0.4421940000000  0.5333910000000 1.0
C      1  0.5070970000000  0.4664490000000  0.5801240000000 1.0
C      1  0.4378720000000  0.4871010000000  0.5439890000000 1.0
C      1  0.5545880000000  0.5470260000000  0.4633310000000 1.0
C      1  0.5582870000000  0.5608430000000  0.4864830000000 1.0
C      1  0.4920270000000  0.5137420000000  0.4800560000000 1.0
C      1  0.5084560000000  0.4918130000000  0.4181060000000 1.0
C      1  0.4380030000000  0.5486950000000  0.5093050000000 1.0
C      1  0.4953480000000  0.4147340000000  0.5440820000000 1.0
C      1  0.4554930000000  0.5556280000000  0.5324140000000 1.0
C      1  0.5261350000000  0.4888970000000  0.5439220000000 1.0
C      1  0.4248920000000  0.4589640000000  0.4925230000000 1.0
C      1  0.5456770000000  0.4854720000000  0.4890390000000 1.0
C      1  0.4242050000000  0.4980980000000  0.5196620000000 1.0
C      1  0.5651830000000  0.4635520000000  0.4922190000000 1.0
C      1  0.4315330000000  0.4989350000000  0.4658560000000 1.0
C      1  0.4226810000000  0.4859760000000  0.4924320000000 1.0
C      1  0.5406590000000  0.5313770000000  0.5666330000000 1.0
C      1  0.4490600000000  0.5098620000000  0.5580920000000 1.0
C      1  0.4634610000000  0.4284830000000  0.4882960000000 1.0
C      1  0.5274750000000  0.4338940000000  0.4690510000000 1.0
C      1  0.5048040000000  0.5706070000000  0.4726300000000 1.0
C      1  0.5345780000000  0.5279860000000  0.4519290000000 1.0
C      1  0.4471920000000  0.4525200000000  0.4527410000000 1.0
C      1  0.4834120000000  0.5657580000000  0.5339500000000 1.0
C      1  0.5833410000000  0.4712650000000  0.5125690000000 1.0
C      1  0.4802500000000  0.4208410000000  0.4664910000000 1.0
C      1  0.5028690000000  0.5233120000000  0.5298080000000 1.0
END
