TITL C-175325-9363-6 37.6435941633461 125000 -762.461657005748 0 0 111 (C1) n - 1
REM
REM in /rds/project/t2_vol4/rds-t2-cs072/BORA/CARBON/from-Arr/AIRSS/Generating-Clusters/GAP-ML-2020/Higher-Symm/SD-CG/HFTN-CG
REM
REM
REM
REM
REM
REM ./C.cell (b20cbc046b6831c77cfcea5457e17084)
REM AIRSS Version 0.9.1 bugfix July 2018 build 013d7b7c2542+ Fri, 06 Jul 2018 19:26:36 +0100
REM compiler GCC version 9.3.0
REM options -cpp -mtune=generic -march=x86-64 -g -O0
REM seed -1513031365 -412041892 1031426605 -1490844354 -773826228 1724052897 716489280 2029294095 335268617 153515173 1245759365 859440820 -1732690205 -981057004 -1971232056 -951960302 1053839160 423292011 200088792 1428093660 -1407526440 96571350 1302364920 21854774 -12112079 -1879624343 1909436274 862930700 -654585041 -290372142 398678141 -1745560874 -1232352776
REM
CELL 1.54180   50.00000   50.00000   50.00000   90.00000   90.00000   90.00000
LATT -1
SFAC C  
C      1  0.5676000000000  0.4781460000000  0.5600010000000 1.0
C      1  0.5669490000000  0.4375010000000  0.4970470000000 1.0
C      1  0.5665030000000  0.4844620000000  0.4389690000000 1.0
C      1  0.5669870000000  0.5544200000000  0.4655390000000 1.0
C      1  0.5668160000000  0.5507190000000  0.5407980000000 1.0
C      1  0.5204060000000  0.5721750000000  0.5156040000000 1.0
C      1  0.5204310000000  0.5075870000000  0.5733210000000 1.0
C      1  0.5210200000000  0.4346620000000  0.5290090000000 1.0
C      1  0.5219410000000  0.4519460000000  0.4450050000000 1.0
C      1  0.5204080000000  0.5375970000000  0.4382410000000 1.0
C      1  0.5060410000000  0.4606330000000  0.4890680000000 1.0
C      1  0.5059220000000  0.4972470000000  0.4588960000000 1.0
C      1  0.5033990000000  0.5327270000000  0.4883420000000 1.0
C      1  0.5041520000000  0.5248880000000  0.5302460000000 1.0
C      1  0.5035650000000  0.4820890000000  0.5291920000000 1.0
C      1  0.4435780000000  0.5524450000000  0.5517810000000 1.0
C      1  0.4443970000000  0.4658480000000  0.5655350000000 1.0
C      1  0.4457930000000  0.4260790000000  0.4872740000000 1.0
C      1  0.4457080000000  0.4879180000000  0.4258480000000 1.0
C      1  0.4443520000000  0.5657110000000  0.4655520000000 1.0
C      1  0.5902730000000  0.5247120000000  0.5060730000000 1.0
C      1  0.5903580000000  0.5030700000000  0.5246060000000 1.0
C      1  0.5904660000000  0.4789060000000  0.5097000000000 1.0
C      1  0.5905870000000  0.4854970000000  0.4820380000000 1.0
C      1  0.5903300000000  0.5138460000000  0.4797900000000 1.0
C      1  0.4144730000000  0.4944140000000  0.4735020000000 1.0
C      1  0.4140750000000  0.5218410000000  0.4866340000000 1.0
C      1  0.4137990000000  0.5178020000000  0.5168320000000 1.0
C      1  0.4139160000000  0.4877880000000  0.5222130000000 1.0
C      1  0.4143560000000  0.4734310000000  0.4953200000000 1.0
C      1  0.5375690000000  0.4310480000000  0.4587820000000 1.0
C      1  0.5363540000000  0.5184980000000  0.4220620000000 1.0
C      1  0.5359770000000  0.5798910000000  0.4919410000000 1.0
C      1  0.5356350000000  0.5329820000000  0.5737430000000 1.0
C      1  0.5365870000000  0.4416090000000  0.5528460000000 1.0
C      1  0.4555740000000  0.4636770000000  0.4145410000000 1.0
C      1  0.4537510000000  0.5693100000000  0.4390090000000 1.0
C      1  0.4532130000000  0.5785900000000  0.5460360000000 1.0
C      1  0.4536420000000  0.4793290000000  0.5888580000000 1.0
C      1  0.4554710000000  0.4081540000000  0.5072690000000 1.0
C      1  0.5697220000000  0.5038050000000  0.5465430000000 1.0
C      1  0.5698040000000  0.4582100000000  0.5171790000000 1.0
C      1  0.5699960000000  0.4717090000000  0.4647900000000 1.0
C      1  0.5693950000000  0.5258270000000  0.4615380000000 1.0
C      1  0.5695880000000  0.5456370000000  0.5121570000000 1.0
C      1  0.4695740000000  0.5404970000000  0.5650590000000 1.0
C      1  0.4711220000000  0.4511190000000  0.5571030000000 1.0
C      1  0.4718630000000  0.4286990000000  0.4697620000000 1.0
C      1  0.4714400000000  0.5058350000000  0.4228710000000 1.0
C      1  0.4704740000000  0.5735840000000  0.4817770000000 1.0
C      1  0.5608140000000  0.5103850000000  0.4361400000000 1.0
C      1  0.5608500000000  0.5646980000000  0.4894020000000 1.0
C      1  0.5603410000000  0.5313010000000  0.5579780000000 1.0
C      1  0.5615690000000  0.4557330000000  0.5467890000000 1.0
C      1  0.5614980000000  0.4425700000000  0.4714360000000 1.0
C      1  0.4924960000000  0.5611680000000  0.5690810000000 1.0
C      1  0.4934730000000  0.4534310000000  0.5784650000000 1.0
C      1  0.4949570000000  0.4094150000000  0.4787520000000 1.0
C      1  0.4945550000000  0.4920340000000  0.4069170000000 1.0
C      1  0.4931340000000  0.5845240000000  0.4635200000000 1.0
C      1  0.5459820000000  0.4850340000000  0.4804630000000 1.0
C      1  0.5454810000000  0.5150920000000  0.4792250000000 1.0
C      1  0.5456350000000  0.5260780000000  0.5077550000000 1.0
C      1  0.5457390000000  0.5021520000000  0.5266560000000 1.0
C      1  0.5458280000000  0.4769990000000  0.5093770000000 1.0
C      1  0.4582870000000  0.4967620000000  0.4720020000000 1.0
C      1  0.4565300000000  0.5249000000000  0.4881580000000 1.0
C      1  0.4564060000000  0.5185060000000  0.5201800000000 1.0
C      1  0.4563860000000  0.4861800000000  0.5234910000000 1.0
C      1  0.4582350000000  0.4726340000000  0.4936640000000 1.0
C      1  0.4324610000000  0.5335930000000  0.5316490000000 1.0
C      1  0.4327980000000  0.4787340000000  0.5415570000000 1.0
C      1  0.4345660000000  0.4531790000000  0.4926450000000 1.0
C      1  0.4347070000000  0.4909060000000  0.4533470000000 1.0
C      1  0.4331680000000  0.5405140000000  0.4763680000000 1.0
C      1  0.4869010000000  0.4650810000000  0.4104980000000 1.0
C      1  0.4848780000000  0.5738520000000  0.4388700000000 1.0
C      1  0.4844780000000  0.5804650000000  0.5502680000000 1.0
C      1  0.4848650000000  0.4766580000000  0.5919750000000 1.0
C      1  0.4868410000000  0.4049490000000  0.5054490000000 1.0
C      1  0.4974640000000  0.4179260000000  0.5282890000000 1.0
C      1  0.4979900000000  0.4473080000000  0.4295500000000 1.0
C      1  0.4963970000000  0.5503050000000  0.4283520000000 1.0
C      1  0.4959660000000  0.5844370000000  0.5248970000000 1.0
C      1  0.4959180000000  0.5022420000000  0.5876770000000 1.0
C      1  0.5202610000000  0.4738890000000  0.4665730000000 1.0
C      1  0.5191040000000  0.5233030000000  0.4654610000000 1.0
C      1  0.5203500000000  0.5426070000000  0.5127150000000 1.0
C      1  0.5203550000000  0.5022060000000  0.5438980000000 1.0
C      1  0.5195810000000  0.4614350000000  0.5142820000000 1.0
C      1  0.5182070000000  0.5546180000000  0.5753190000000 1.0
C      1  0.5192690000000  0.4465500000000  0.5738710000000 1.0
C      1  0.5205330000000  0.4119060000000  0.4697100000000 1.0
C      1  0.5199280000000  0.5019860000000  0.4067900000000 1.0
C      1  0.5188660000000  0.5874650000000  0.4714610000000 1.0
C      1  0.4491300000000  0.5049750000000  0.5970970000000 1.0
C      1  0.4510360000000  0.4088290000000  0.5341370000000 1.0
C      1  0.4515080000000  0.4380430000000  0.4228530000000 1.0
C      1  0.4500110000000  0.5529150000000  0.4174310000000 1.0
C      1  0.4492630000000  0.5946270000000  0.5243870000000 1.0
C      1  0.4781890000000  0.4751480000000  0.5387950000000 1.0
C      1  0.4797120000000  0.4535550000000  0.4871060000000 1.0
C      1  0.4795550000000  0.4971660000000  0.4516430000000 1.0
C      1  0.4779960000000  0.5438020000000  0.4844460000000 1.0
C      1  0.4774920000000  0.5303420000000  0.5370650000000 1.0
C      1  0.4714130000000  0.5890780000000  0.5078350000000 1.0
C      1  0.4709920000000  0.5197000000000  0.5868740000000 1.0
C      1  0.4726110000000  0.4236710000000  0.5444980000000 1.0
C      1  0.4733030000000  0.4327450000000  0.4399100000000 1.0
C      1  0.4722110000000  0.5354730000000  0.4178090000000 1.0
C      1  0.4987720000000  0.5061020000000  0.5070160000000 1.0
END
