TITL C-170972-9773-7 -0.145361522267758 125000 -437.812485522637 0 0 65 (C1) n - 1
REM
REM in /rds/project/t2_vol4/rds-t2-cs072/BORA/CARBON/from-Arr/AIRSS/Generating-Clusters/GAP-ML-2020/Higher-Symm/SD-CG/HFTN-CG
REM
REM
REM
REM
REM
REM ./C.cell (b20cbc046b6831c77cfcea5457e17084)
REM AIRSS Version 0.9.1 bugfix July 2018 build 013d7b7c2542+ Fri, 06 Jul 2018 19:26:36 +0100
REM compiler GCC version 9.3.0
REM options -cpp -mtune=generic -march=x86-64 -g -O0
REM seed -1138550199 -569266133 -1933144579 1483440023 1132598478 1751055367 848830152 -28616715 -1653824021 -272113330 -252054830 2125614915 684019669 -1252869463 -896611591 -1167505932 -1159249200 -1501960918 -1169872308 1227426931 -376029065 566540530 -535203633 1772453910 411404032 377620070 -411597990 679782891 1903593262 1101516341 -220604127 914829455 592288336
REM
CELL 1.54180   50.00000   50.00000   50.00000   90.00000   90.00000   90.00000
LATT -1
SFAC C  
C      1  0.4547610000000  0.5462390000000  0.4633580000000 1.0
C      1  0.5242120000000  0.4356600000000  0.5262840000000 1.0
C      1  0.4420970000000  0.4999070000000  0.5473880000000 1.0
C      1  0.5344280000000  0.5020220000000  0.4206240000000 1.0
C      1  0.4766350000000  0.4338130000000  0.4941360000000 1.0
C      1  0.5264580000000  0.4797830000000  0.5627800000000 1.0
C      1  0.4576960000000  0.4481540000000  0.4763930000000 1.0
C      1  0.4311540000000  0.4497600000000  0.4806500000000 1.0
C      1  0.5435850000000  0.5347450000000  0.5067940000000 1.0
C      1  0.4650350000000  0.5080580000000  0.5640500000000 1.0
C      1  0.4851330000000  0.5418220000000  0.4661610000000 1.0
C      1  0.4431950000000  0.5025110000000  0.4694860000000 1.0
C      1  0.4818650000000  0.5040430000000  0.4946180000000 1.0
C      1  0.4331810000000  0.4957490000000  0.4970740000000 1.0
C      1  0.4508220000000  0.4720470000000  0.5499000000000 1.0
C      1  0.4912550000000  0.5453030000000  0.5163020000000 1.0
C      1  0.5647570000000  0.4784580000000  0.4834510000000 1.0
C      1  0.4740540000000  0.4667070000000  0.4621770000000 1.0
C      1  0.5268920000000  0.4394600000000  0.4979330000000 1.0
C      1  0.4785880000000  0.5321610000000  0.5599090000000 1.0
C      1  0.4353190000000  0.4673030000000  0.5023080000000 1.0
C      1  0.5565340000000  0.5027860000000  0.4401830000000 1.0
C      1  0.5280800000000  0.4819470000000  0.5169900000000 1.0
C      1  0.4999380000000  0.4697920000000  0.5565330000000 1.0
C      1  0.5449400000000  0.5220480000000  0.4614290000000 1.0
C      1  0.5464790000000  0.4721940000000  0.5411480000000 1.0
C      1  0.5012030000000  0.4739110000000  0.5255430000000 1.0
C      1  0.4509600000000  0.4572630000000  0.5265580000000 1.0
C      1  0.5634690000000  0.4971850000000  0.5329100000000 1.0
C      1  0.4863910000000  0.5141820000000  0.4226050000000 1.0
C      1  0.5511000000000  0.5179830000000  0.5501720000000 1.0
C      1  0.4499310000000  0.5456340000000  0.4919010000000 1.0
C      1  0.5261180000000  0.5716170000000  0.4552690000000 1.0
C      1  0.5136000000000  0.5598440000000  0.5044470000000 1.0
C      1  0.5248520000000  0.5112450000000  0.5135690000000 1.0
C      1  0.4769870000000  0.5337180000000  0.4934640000000 1.0
C      1  0.5699450000000  0.5000100000000  0.5025950000000 1.0
C      1  0.5382940000000  0.4668180000000  0.4912940000000 1.0
C      1  0.5212830000000  0.4770560000000  0.4693590000000 1.0
C      1  0.5099960000000  0.5069390000000  0.4898350000000 1.0
C      1  0.4737150000000  0.4402920000000  0.5214310000000 1.0
C      1  0.4746090000000  0.4801500000000  0.5648770000000 1.0
C      1  0.5029210000000  0.4374600000000  0.4836980000000 1.0
C      1  0.5292500000000  0.5069550000000  0.5656850000000 1.0
C      1  0.5023510000000  0.5203320000000  0.5302940000000 1.0
C      1  0.4689630000000  0.5461820000000  0.5361970000000 1.0
C      1  0.5691870000000  0.4834980000000  0.4551760000000 1.0
C      1  0.5392520000000  0.5496970000000  0.4533020000000 1.0
C      1  0.4464820000000  0.5380590000000  0.5194610000000 1.0
C      1  0.4355430000000  0.5116330000000  0.5218740000000 1.0
C      1  0.4596690000000  0.5169310000000  0.4256720000000 1.0
C      1  0.5367840000000  0.5567320000000  0.5221620000000 1.0
C      1  0.5602890000000  0.5227290000000  0.4880860000000 1.0
C      1  0.5079220000000  0.5603350000000  0.4741830000000 1.0
C      1  0.5100830000000  0.5288190000000  0.5576610000000 1.0
C      1  0.4452730000000  0.5230170000000  0.4491350000000 1.0
C      1  0.5113570000000  0.5066180000000  0.4108400000000 1.0
C      1  0.4917330000000  0.5146850000000  0.4526420000000 1.0
C      1  0.4983630000000  0.4461510000000  0.5353070000000 1.0
C      1  0.5347790000000  0.5434910000000  0.5469260000000 1.0
C      1  0.4712810000000  0.4949090000000  0.4680700000000 1.0
C      1  0.5466050000000  0.4444500000000  0.5389180000000 1.0
C      1  0.5186590000000  0.5058410000000  0.4635450000000 1.0
C      1  0.5005670000000  0.4583500000000  0.4647330000000 1.0
C      1  0.4831400000000  0.4968070000000  0.5225440000000 1.0
END
