TITL C-170985-2721-2 0.00258368094540777 125000 -65.2890976175028 0 0 11 (D3h) n - 1
REM
REM in /rds/project/t2_vol4/rds-t2-cs072/BORA/CARBON/from-Arr/AIRSS/Generating-Clusters/GAP-ML-2020/Higher-Symm/SD-CG/HFTN-CG
REM
REM
REM
REM
REM
REM ./C.cell (b20cbc046b6831c77cfcea5457e17084)
REM AIRSS Version 0.9.1 bugfix July 2018 build 013d7b7c2542+ Fri, 06 Jul 2018 19:26:36 +0100
REM compiler GCC version 9.3.0
REM options -cpp -mtune=generic -march=x86-64 -g -O0
REM seed 816954932 125009739 -141052664 1600302418 -630660062 1930523442 1873722767 -1802453996 -234511819 -363166054 -1047762376 1353483615 -1127514528 -1959053136 759974413 -2060856660 1755425917 981935206 1182702835 998854624 1491990268 -1166214056 103620272 1394877552 -1080690021 433441383 469923901 -1922915463 -43677036 2006498973 1574345211 -1087568665 20346225
REM
CELL 1.54180   50.00000   50.00000   50.00000   90.00000   90.00000   90.00000
LATT -1
SFAC C  
C      1  0.4892310000000  0.5050420000000  0.5478360000000 1.0
C      1  0.5174630000000  0.5194470000000  0.4559860000000 1.0
C      1  0.5147880000000  0.5402710000000  0.4725870000000 1.0
C      1  0.4943330000000  0.5298340000000  0.5391350000000 1.0
C      1  0.5040450000000  0.4542370000000  0.4788710000000 1.0
C      1  0.4962680000000  0.4502690000000  0.5041720000000 1.0
C      1  0.5015050000000  0.4775950000000  0.4959100000000 1.0
C      1  0.4975890000000  0.5080730000000  0.5202070000000 1.0
C      1  0.5089710000000  0.5138810000000  0.4831760000000 1.0
C      1  0.5207330000000  0.4979810000000  0.5050180000000 1.0
C      1  0.4846440000000  0.5017190000000  0.4945110000000 1.0
END
