TITL C-175323-1881-7 199.713585161825 125000 -643.256070282431 0 0 93 (Cs) n - 1
REM
REM in /rds/project/t2_vol4/rds-t2-cs072/BORA/CARBON/from-Arr/AIRSS/Generating-Clusters/GAP-ML-2020/Higher-Symm/SD-CG/HFTN-CG
REM
REM
REM
REM
REM
REM ./C.cell (b20cbc046b6831c77cfcea5457e17084)
REM AIRSS Version 0.9.1 bugfix July 2018 build 013d7b7c2542+ Fri, 06 Jul 2018 19:26:36 +0100
REM compiler GCC version 9.3.0
REM options -cpp -mtune=generic -march=x86-64 -g -O0
REM seed -987936958 -1956178470 -1389387538 1908287883 67978447 -1628236561 -1189737285 1832652139 -321256857 1846878613 1584290293 -333860011 -906419609 -1210466235 -1651616624 1990544272 -1890885525 1899494523 1702887884 -1387744719 -1267514465 1878025724 -2034747405 -927387291 1401535858 -742837741 -503061573 -1562798703 -1681461486 948760909 -665997244 -577351026 2124497854
REM
CELL 1.54180   50.00000   50.00000   50.00000   90.00000   90.00000   90.00000
LATT -1
SFAC C  
C      1  0.5171840000000  0.4646900000000  0.4717020000000 1.0
C      1  0.5171830000000  0.4646950000000  0.5286390000000 1.0
C      1  0.4993340000000  0.4820910000000  0.4211010000000 1.0
C      1  0.4993310000000  0.4821050000000  0.5792350000000 1.0
C      1  0.5744040000000  0.5372060000000  0.5552800000000 1.0
C      1  0.5744060000000  0.5371970000000  0.4450500000000 1.0
C      1  0.5692460000000  0.4853300000000  0.5149460000000 1.0
C      1  0.5692460000000  0.4853280000000  0.4853920000000 1.0
C      1  0.5305210000000  0.5168330000000  0.5775370000000 1.0
C      1  0.5305240000000  0.5168200000000  0.4227950000000 1.0
C      1  0.4389940000000  0.5013440000000  0.4364260000000 1.0
C      1  0.4389920000000  0.5013550000000  0.5639050000000 1.0
C      1  0.5375080000000  0.5702000000000  0.5287500000000 1.0
C      1  0.5375090000000  0.5701950000000  0.4715740000000 1.0
C      1  0.5125680000000  0.4371550000000  0.5158960000000 1.0
C      1  0.5125690000000  0.4371520000000  0.4844490000000 1.0
C      1  0.5346810000000  0.5594560000000  0.4450680000000 1.0
C      1  0.5346790000000  0.5594650000000  0.5552570000000 1.0
C      1  0.4542770000000  0.4505240000000  0.5143590000000 1.0
C      1  0.4542780000000  0.4505220000000  0.4859810000000 1.0
C      1  0.5057300000000  0.4873790000000  0.4842000000000 1.0
C      1  0.5057300000000  0.4873810000000  0.5161370000000 1.0
C      1  0.5562620000000  0.5128660000000  0.4846310000000 1.0
C      1  0.5562610000000  0.5128680000000  0.5157030000000 1.0
C      1  0.4848110000000  0.5070900000000  0.5812280000000 1.0
C      1  0.4848140000000  0.5070770000000  0.4191040000000 1.0
C      1  0.4809130000000  0.5233990000000  0.5151820000000 1.0
C      1  0.4809130000000  0.5233970000000  0.4851480000000 1.0
C      1  0.4443550000000  0.4742030000000  0.5667260000000 1.0
C      1  0.4443570000000  0.4741910000000  0.4336100000000 1.0
C      1  0.5102760000000  0.5649370000000  0.4854130000000 1.0
C      1  0.5102750000000  0.5649390000000  0.5149100000000 1.0
C      1  0.4230700000000  0.4900240000000  0.4784720000000 1.0
C      1  0.4230700000000  0.4900280000000  0.5218610000000 1.0
C      1  0.5039490000000  0.5275510000000  0.5824110000000 1.0
C      1  0.5039520000000  0.5275370000000  0.4179190000000 1.0
C      1  0.4366280000000  0.5542850000000  0.5155710000000 1.0
C      1  0.4366280000000  0.5542820000000  0.4847510000000 1.0
C      1  0.4522490000000  0.4809210000000  0.5153280000000 1.0
C      1  0.4522490000000  0.4809180000000  0.4850070000000 1.0
C      1  0.5271710000000  0.4205550000000  0.5725980000000 1.0
C      1  0.5271730000000  0.4205420000000  0.4277500000000 1.0
C      1  0.5409690000000  0.4265380000000  0.5146400000000 1.0
C      1  0.5409700000000  0.4265360000000  0.4857070000000 1.0
C      1  0.4783540000000  0.4963820000000  0.4764790000000 1.0
C      1  0.4783530000000  0.4963860000000  0.5238540000000 1.0
C      1  0.5578360000000  0.4372850000000  0.5346860000000 1.0
C      1  0.5578380000000  0.4372790000000  0.4656610000000 1.0
C      1  0.5378440000000  0.4689370000000  0.5530220000000 1.0
C      1  0.5378460000000  0.4689280000000  0.4473180000000 1.0
C      1  0.5599920000000  0.5611990000000  0.5141950000000 1.0
C      1  0.5599920000000  0.5611970000000  0.4861310000000 1.0
C      1  0.4666420000000  0.4393370000000  0.4638350000000 1.0
C      1  0.4666400000000  0.4393430000000  0.5365070000000 1.0
C      1  0.5081960000000  0.5515240000000  0.5537050000000 1.0
C      1  0.5081980000000  0.5515150000000  0.4466200000000 1.0
C      1  0.5268270000000  0.4882190000000  0.4264710000000 1.0
C      1  0.5268250000000  0.4882310000000  0.5738660000000 1.0
C      1  0.4245700000000  0.5362830000000  0.5321650000000 1.0
C      1  0.4245710000000  0.5362780000000  0.4681600000000 1.0
C      1  0.4226910000000  0.5112030000000  0.5416060000000 1.0
C      1  0.4226920000000  0.5111960000000  0.4587230000000 1.0
C      1  0.4630990000000  0.4555420000000  0.5610930000000 1.0
C      1  0.4631010000000  0.4555320000000  0.4392470000000 1.0
C      1  0.5058210000000  0.5361720000000  0.4745390000000 1.0
C      1  0.5058200000000  0.5361770000000  0.5257890000000 1.0
C      1  0.5241930000000  0.5139110000000  0.5157410000000 1.0
C      1  0.5241940000000  0.5139080000000  0.4845910000000 1.0
C      1  0.4598950000000  0.5612840000000  0.4681390000000 1.0
C      1  0.4598940000000  0.5612900000000  0.5321830000000 1.0
C      1  0.4931130000000  0.4288210000000  0.4637560000000 1.0
C      1  0.4931120000000  0.4288280000000  0.5365900000000 1.0
C      1  0.4893290000000  0.4558130000000  0.5738850000000 1.0
C      1  0.4893320000000  0.4558000000000  0.4264560000000 1.0
C      1  0.4896920000000  0.5509920000000  0.4274030000000 1.0
C      1  0.4896890000000  0.5510040000000  0.5729210000000 1.0
C      1  0.5035390000000  0.4326870000000  0.5632980000000 1.0
C      1  0.5035410000000  0.4326760000000  0.4370470000000 1.0
C      1  0.4804160000000  0.5730000000000  0.4856010000000 1.0
C      1  0.4804150000000  0.5730020000000  0.5147200000000 1.0
C      1  0.5496180000000  0.5374150000000  0.4326470000000 1.0
C      1  0.5496150000000  0.5374270000000  0.5676820000000 1.0
C      1  0.4643870000000  0.5457200000000  0.4403690000000 1.0
C      1  0.4643850000000  0.5457300000000  0.5599560000000 1.0
C      1  0.4598380000000  0.5191300000000  0.5712480000000 1.0
C      1  0.4598410000000  0.5191180000000  0.4290810000000 1.0
C      1  0.5410400000000  0.4393760000000  0.4413270000000 1.0
C      1  0.5410380000000  0.4393860000000  0.5590180000000 1.0
C      1  0.5707760000000  0.5363240000000  0.4725480000000 1.0
C      1  0.5707750000000  0.5363290000000  0.5277830000000 1.0
C      1  0.5632740000000  0.4661980000000  0.4655340000000 1.0
C      1  0.5632720000000  0.4662040000000  0.5348070000000 1.0
C      1  0.4068820000000  0.4855190000000  0.5001660000000 1.0
END
