TITL C-175321-1923-1 -0.00598361488636103 125000 -240.692905268755 0 0 35 (C5) n - 1
REM
REM in /rds/project/t2_vol4/rds-t2-cs072/BORA/CARBON/from-Arr/AIRSS/Generating-Clusters/GAP-ML-2020/Higher-Symm/SD-CG/HFTN-CG
REM
REM
REM
REM
REM
REM ./C.cell (b20cbc046b6831c77cfcea5457e17084)
REM AIRSS Version 0.9.1 bugfix July 2018 build 013d7b7c2542+ Fri, 06 Jul 2018 19:26:36 +0100
REM compiler GCC version 9.3.0
REM options -cpp -mtune=generic -march=x86-64 -g -O0
REM seed -2128430886 423776902 134179324 1530579313 1421526975 1550757192 980483288 -1941891042 798792226 -1247087265 -182688055 261395714 1326050055 -296483546 -1833635145 -960599540 -1853644927 1006848391 268596428 1787869155 1500662432 -110284257 1123371880 -1905939794 -1096131736 1315635082 -864735238 22199355 -2057377266 1965974692 104940071 1079669481 -1976072989
REM
CELL 1.54180   50.00000   50.00000   50.00000   90.00000   90.00000   90.00000
LATT -1
SFAC C  
C      1  0.5584980000000  0.4831290000000  0.4788800000000 1.0
C      1  0.5381600000000  0.4831090000000  0.5491040000000 1.0
C      1  0.4650880000000  0.4831030000000  0.5514620000000 1.0
C      1  0.4402650000000  0.4831190000000  0.4826950000000 1.0
C      1  0.4979960000000  0.4831350000000  0.4378370000000 1.0
C      1  0.5222550000000  0.4926370000000  0.4468800000000 1.0
C      1  0.5573960000000  0.4926240000000  0.5047490000000 1.0
C      1  0.5132180000000  0.4926080000000  0.5560530000000 1.0
C      1  0.4507740000000  0.4926100000000  0.5298910000000 1.0
C      1  0.4563590000000  0.4926280000000  0.4624180000000 1.0
C      1  0.5026720000000  0.5353990000000  0.4396210000000 1.0
C      1  0.5582570000000  0.5353910000000  0.4838920000000 1.0
C      1  0.5333290000000  0.5353720000000  0.5504370000000 1.0
C      1  0.4623380000000  0.5353680000000  0.5472920000000 1.0
C      1  0.4433910000000  0.5353840000000  0.4788040000000 1.0
C      1  0.4792000000000  0.4755380000000  0.4563830000000 1.0
C      1  0.5350490000000  0.4755400000000  0.4667330000000 1.0
C      1  0.5424650000000  0.4755250000000  0.5230480000000 1.0
C      1  0.4911980000000  0.4755150000000  0.5475020000000 1.0
C      1  0.4520980000000  0.4755230000000  0.5063010000000 1.0
C      1  0.4571150000000  0.5211930000000  0.4583560000000 1.0
C      1  0.5263570000000  0.5212010000000  0.4463500000000 1.0
C      1  0.5591730000000  0.5211880000000  0.5084940000000 1.0
C      1  0.5102110000000  0.5211710000000  0.5589070000000 1.0
C      1  0.4471360000000  0.5211740000000  0.5279200000000 1.0
C      1  0.4782900000000  0.5328430000000  0.4441450000000 1.0
C      1  0.5464190000000  0.5328430000000  0.4621000000000 1.0
C      1  0.5503960000000  0.5328250000000  0.5324440000000 1.0
C      1  0.4847240000000  0.5328140000000  0.5579630000000 1.0
C      1  0.4401600000000  0.5328250000000  0.5033910000000 1.0
C      1  0.4892530000000  0.4593390000000  0.4779870000000 1.0
C      1  0.5176070000000  0.4593390000000  0.4829660000000 1.0
C      1  0.5216330000000  0.4593320000000  0.5114710000000 1.0
C      1  0.4957670000000  0.4593270000000  0.5241090000000 1.0
C      1  0.4757550000000  0.4593310000000  0.5034140000000 1.0
END
