TITL C-175312-9339-2 143.931886473057 125000 -1034.96742942611 0 0 150 (Td) n - 1
REM
REM in /rds/project/t2_vol4/rds-t2-cs072/BORA/CARBON/from-Arr/AIRSS/Generating-Clusters/GAP-ML-2020/Higher-Symm/SD-CG/HFTN-CG
REM
REM
REM
REM
REM
REM ./C.cell (b20cbc046b6831c77cfcea5457e17084)
REM AIRSS Version 0.9.1 bugfix July 2018 build 013d7b7c2542+ Fri, 06 Jul 2018 19:26:36 +0100
REM compiler GCC version 9.3.0
REM options -cpp -mtune=generic -march=x86-64 -g -O0
REM seed 2113514071 -592764195 826707380 1704318807 2124840889 -1727520894 -1373314339 1241695856 1131278014 965446116 -1226816524 -1282667218 1071269352 -1171589240 726144290 -967361104 1205709560 210297750 1913591907 -284398277 -1144114602 1490429282 480167192 -555443542 -82814577 1857016377 -1943903931 -490131206 -636148372 105348051 953937949 -475555256 -736536491
REM
CELL 1.54180   50.00000   50.00000   50.00000   90.00000   90.00000   90.00000
LATT -1
SFAC C  
C      1  0.5502340000000  0.5305940000000  0.4295450000000 1.0
C      1  0.4292710000000  0.5502050000000  0.5309070000000 1.0
C      1  0.5306280000000  0.4292360000000  0.5505130000000 1.0
C      1  0.5502290000000  0.4685650000000  0.5702410000000 1.0
C      1  0.4489970000000  0.4685650000000  0.4295460000000 1.0
C      1  0.4489990000000  0.5306060000000  0.5702380000000 1.0
C      1  0.4292650000000  0.4489680000000  0.4688760000000 1.0
C      1  0.5699580000000  0.4489630000000  0.5309130000000 1.0
C      1  0.5699650000000  0.5501940000000  0.4688740000000 1.0
C      1  0.5306370000000  0.5699250000000  0.4492730000000 1.0
C      1  0.4686010000000  0.5699340000000  0.5505060000000 1.0
C      1  0.4685940000000  0.4292350000000  0.4492780000000 1.0
C      1  0.5502270000000  0.4292340000000  0.5309140000000 1.0
C      1  0.4292690000000  0.5306060000000  0.5505080000000 1.0
C      1  0.5306360000000  0.5501950000000  0.4295440000000 1.0
C      1  0.5502360000000  0.5699250000000  0.4688730000000 1.0
C      1  0.4489940000000  0.4292370000000  0.4688780000000 1.0
C      1  0.4490020000000  0.5699340000000  0.5309070000000 1.0
C      1  0.4292670000000  0.4685670000000  0.4492760000000 1.0
C      1  0.5699640000000  0.5305940000000  0.4492750000000 1.0
C      1  0.5699590000000  0.4685630000000  0.5505120000000 1.0
C      1  0.5306290000000  0.4489670000000  0.5702420000000 1.0
C      1  0.4686000000000  0.5502040000000  0.5702370000000 1.0
C      1  0.4685950000000  0.4489640000000  0.4295470000000 1.0
C      1  0.4733080000000  0.5067090000000  0.4008420000000 1.0
C      1  0.4005640000000  0.4732800000000  0.5070220000000 1.0
C      1  0.5067390000000  0.4005310000000  0.4735880000000 1.0
C      1  0.4733050000000  0.4924600000000  0.5989430000000 1.0
C      1  0.5259260000000  0.4924460000000  0.4008440000000 1.0
C      1  0.5259250000000  0.5067160000000  0.5989420000000 1.0
C      1  0.4005670000000  0.5258980000000  0.4927610000000 1.0
C      1  0.5986670000000  0.5258850000000  0.5070210000000 1.0
C      1  0.5986630000000  0.4732660000000  0.4927640000000 1.0
C      1  0.5067500000000  0.5986330000000  0.5261980000000 1.0
C      1  0.4924910000000  0.5986310000000  0.4735790000000 1.0
C      1  0.4924790000000  0.4005350000000  0.5262070000000 1.0
C      1  0.4732990000000  0.4005350000000  0.5070260000000 1.0
C      1  0.4005660000000  0.5067170000000  0.4735820000000 1.0
C      1  0.5067450000000  0.4732680000000  0.4008440000000 1.0
C      1  0.4733120000000  0.5986340000000  0.4927580000000 1.0
C      1  0.5259180000000  0.4005310000000  0.4927680000000 1.0
C      1  0.5259300000000  0.5986310000000  0.5070180000000 1.0
C      1  0.4005650000000  0.4924600000000  0.5262010000000 1.0
C      1  0.5986650000000  0.5067070000000  0.5262020000000 1.0
C      1  0.5986640000000  0.4924450000000  0.4735840000000 1.0
C      1  0.5067460000000  0.5258970000000  0.5989410000000 1.0
C      1  0.4924840000000  0.4732790000000  0.5989440000000 1.0
C      1  0.4924890000000  0.5258870000000  0.4008410000000 1.0
C      1  0.5829570000000  0.5624210000000  0.5431520000000 1.0
C      1  0.5428810000000  0.5829220000000  0.5627310000000 1.0
C      1  0.5624580000000  0.5428450000000  0.5832300000000 1.0
C      1  0.5829510000000  0.4367350000000  0.4566340000000 1.0
C      1  0.4162710000000  0.4367480000000  0.5431560000000 1.0
C      1  0.4162800000000  0.5624270000000  0.4566270000000 1.0
C      1  0.5428730000000  0.4162380000000  0.4370560000000 1.0
C      1  0.4563470000000  0.4162490000000  0.5627360000000 1.0
C      1  0.4563580000000  0.5829210000000  0.4370480000000 1.0
C      1  0.5624540000000  0.4563130000000  0.4165560000000 1.0
C      1  0.4367700000000  0.4563280000000  0.5832320000000 1.0
C      1  0.4367770000000  0.5428440000000  0.4165520000000 1.0
C      1  0.5829550000000  0.5428420000000  0.5627320000000 1.0
C      1  0.5428800000000  0.5624250000000  0.5832300000000 1.0
C      1  0.5624600000000  0.5829200000000  0.5431520000000 1.0
C      1  0.5829520000000  0.4563130000000  0.4370540000000 1.0
C      1  0.4162790000000  0.5428470000000  0.4370490000000 1.0
C      1  0.4162730000000  0.4563280000000  0.5627340000000 1.0
C      1  0.5428740000000  0.4367350000000  0.4165570000000 1.0
C      1  0.4563570000000  0.5624230000000  0.4165510000000 1.0
C      1  0.4563480000000  0.4367480000000  0.5832330000000 1.0
C      1  0.5624510000000  0.4162380000000  0.4566350000000 1.0
C      1  0.4367790000000  0.5829230000000  0.4566270000000 1.0
C      1  0.4367680000000  0.4162490000000  0.5431570000000 1.0
C      1  0.5395100000000  0.5750720000000  0.4964510000000 1.0
C      1  0.4961780000000  0.5394770000000  0.5753830000000 1.0
C      1  0.5751070000000  0.4961410000000  0.5397850000000 1.0
C      1  0.5395020000000  0.4240880000000  0.5033350000000 1.0
C      1  0.4597190000000  0.4240930000000  0.4964560000000 1.0
C      1  0.4597280000000  0.5750780000000  0.5033280000000 1.0
C      1  0.4961740000000  0.4596880000000  0.4244020000000 1.0
C      1  0.5030510000000  0.4596940000000  0.5753870000000 1.0
C      1  0.5030570000000  0.5394710000000  0.4243980000000 1.0
C      1  0.5751070000000  0.5030150000000  0.4600020000000 1.0
C      1  0.4241230000000  0.5030280000000  0.5397830000000 1.0
C      1  0.4241230000000  0.4961460000000  0.4600010000000 1.0
C      1  0.5395050000000  0.4961450000000  0.5753850000000 1.0
C      1  0.4961800000000  0.5750770000000  0.5397810000000 1.0
C      1  0.5751100000000  0.5394700000000  0.4964530000000 1.0
C      1  0.5395070000000  0.5030160000000  0.4244010000000 1.0
C      1  0.4597240000000  0.4961430000000  0.4244000000000 1.0
C      1  0.4597230000000  0.5030270000000  0.5753850000000 1.0
C      1  0.4961720000000  0.4240890000000  0.4600040000000 1.0
C      1  0.5030590000000  0.5750730000000  0.4599990000000 1.0
C      1  0.5030490000000  0.4240920000000  0.5397870000000 1.0
C      1  0.5751040000000  0.4596870000000  0.5033340000000 1.0
C      1  0.4241250000000  0.5394780000000  0.5033290000000 1.0
C      1  0.4241200000000  0.4596960000000  0.4964550000000 1.0
C      1  0.4545030000000  0.5225210000000  0.4993920000000 1.0
C      1  0.4991130000000  0.4544700000000  0.5228300000000 1.0
C      1  0.5225510000000  0.4990800000000  0.4547790000000 1.0
C      1  0.4545000000000  0.4766500000000  0.5003920000000 1.0
C      1  0.5447270000000  0.4766440000000  0.4993950000000 1.0
C      1  0.5447300000000  0.5225160000000  0.5003910000000 1.0
C      1  0.4991190000000  0.5446950000000  0.4769550000000 1.0
C      1  0.5001160000000  0.5446970000000  0.5228260000000 1.0
C      1  0.5001110000000  0.4544680000000  0.4769590000000 1.0
C      1  0.5225500000000  0.5000820000000  0.5450060000000 1.0
C      1  0.4766800000000  0.5000810000000  0.4547790000000 1.0
C      1  0.4766790000000  0.4990870000000  0.5450060000000 1.0
C      1  0.4545010000000  0.4990870000000  0.5228280000000 1.0
C      1  0.4991180000000  0.5225160000000  0.4547780000000 1.0
C      1  0.5225480000000  0.4544680000000  0.4993960000000 1.0
C      1  0.4545020000000  0.5000830000000  0.4769560000000 1.0
C      1  0.5447290000000  0.4990800000000  0.4769570000000 1.0
C      1  0.5447280000000  0.5000800000000  0.5228290000000 1.0
C      1  0.4991140000000  0.4766490000000  0.5450070000000 1.0
C      1  0.5001150000000  0.5225200000000  0.5450050000000 1.0
C      1  0.5001130000000  0.4766450000000  0.4547800000000 1.0
C      1  0.5225530000000  0.5446950000000  0.5003900000000 1.0
C      1  0.4766770000000  0.4544700000000  0.5003930000000 1.0
C      1  0.4766820000000  0.5446970000000  0.4993920000000 1.0
C      1  0.5613470000000  0.4176090000000  0.4854700000000 1.0
C      1  0.4851920000000  0.5613180000000  0.4179210000000 1.0
C      1  0.4176430000000  0.4851630000000  0.5616280000000 1.0
C      1  0.5613560000000  0.5815500000000  0.5143170000000 1.0
C      1  0.4378820000000  0.5815550000000  0.4854620000000 1.0
C      1  0.4378730000000  0.4176170000000  0.5143220000000 1.0
C      1  0.4851840000000  0.4378490000000  0.5818640000000 1.0
C      1  0.5140390000000  0.4378420000000  0.4179250000000 1.0
C      1  0.5140450000000  0.5613220000000  0.5818600000000 1.0
C      1  0.4176460000000  0.5140120000000  0.4381550000000 1.0
C      1  0.5815840000000  0.5140070000000  0.5616300000000 1.0
C      1  0.5815850000000  0.4851480000000  0.4381570000000 1.0
C      1  0.5613520000000  0.4851480000000  0.4179240000000 1.0
C      1  0.4851820000000  0.4176160000000  0.5616320000000 1.0
C      1  0.4176480000000  0.5613230000000  0.4854620000000 1.0
C      1  0.5613510000000  0.5140100000000  0.5818630000000 1.0
C      1  0.4378750000000  0.4851630000000  0.5818610000000 1.0
C      1  0.4378790000000  0.5140090000000  0.4179220000000 1.0
C      1  0.4851930000000  0.5815510000000  0.4381530000000 1.0
C      1  0.5140380000000  0.4176100000000  0.4381590000000 1.0
C      1  0.5140460000000  0.5815540000000  0.5616270000000 1.0
C      1  0.4176410000000  0.4378510000000  0.5143210000000 1.0
C      1  0.5815870000000  0.5613160000000  0.5143170000000 1.0
C      1  0.5815810000000  0.4378410000000  0.4854690000000 1.0
C      1  0.4996170000000  0.4995770000000  0.3890850000000 1.0
C      1  0.3888070000000  0.4995890000000  0.4998910000000 1.0
C      1  0.4996080000000  0.3887750000000  0.4998980000000 1.0
C      1  0.4996150000000  0.4995880000000  0.6107000000000 1.0
C      1  0.6104220000000  0.4995750000000  0.4998930000000 1.0
C      1  0.4996210000000  0.6103900000000  0.4998880000000 1.0
END
