TITL C-175335-9501-7 -0.0178761674064105 125000 -461.788805571723 0 0 68 (C1) n - 1
REM
REM in /rds/project/t2_vol4/rds-t2-cs072/BORA/CARBON/from-Arr/AIRSS/Generating-Clusters/GAP-ML-2020/Higher-Symm/SD-CG/HFTN-CG
REM
REM
REM
REM
REM
REM ./C.cell (b20cbc046b6831c77cfcea5457e17084)
REM AIRSS Version 0.9.1 bugfix July 2018 build 013d7b7c2542+ Fri, 06 Jul 2018 19:26:36 +0100
REM compiler GCC version 9.3.0
REM options -cpp -mtune=generic -march=x86-64 -g -O0
REM seed 516726347 -517280197 100902482 -1746608036 -441748099 -1546041142 1832917487 1167217221 1158324283 -1470983533 545686377 1715016782 743725681 -1028200633 -512975913 -1136431437 -20073486 -605292781 1202468722 1422552563 1057241413 150244843 418460464 1583384716 149745984 552801282 -1430775377 -1139349892 817932333 -1500147317 -1583937596 -257161612 -1896633744
REM
CELL 1.54180   50.00000   50.00000   50.00000   90.00000   90.00000   90.00000
LATT -1
SFAC C  
C      1  0.4408710000000  0.4937330000000  0.4764570000000 1.0
C      1  0.4327130000000  0.4936350000000  0.5304850000000 1.0
C      1  0.4688560000000  0.4938210000000  0.5617450000000 1.0
C      1  0.5348840000000  0.4887540000000  0.5421560000000 1.0
C      1  0.5698380000000  0.5003920000000  0.5006780000000 1.0
C      1  0.5419630000000  0.4966190000000  0.4447020000000 1.0
C      1  0.5008910000000  0.4871860000000  0.4424670000000 1.0
C      1  0.4554920000000  0.5140140000000  0.4926090000000 1.0
C      1  0.4487000000000  0.5180330000000  0.5230870000000 1.0
C      1  0.4741830000000  0.5141550000000  0.5383940000000 1.0
C      1  0.5242800000000  0.5074150000000  0.5208050000000 1.0
C      1  0.5403340000000  0.5108540000000  0.4976420000000 1.0
C      1  0.5274950000000  0.5045040000000  0.4744460000000 1.0
C      1  0.5000410000000  0.5053030000000  0.4688610000000 1.0
C      1  0.5346560000000  0.4520980000000  0.4658180000000 1.0
C      1  0.4764170000000  0.4586030000000  0.4617830000000 1.0
C      1  0.4599230000000  0.4528890000000  0.5053570000000 1.0
C      1  0.4638790000000  0.4567010000000  0.5351990000000 1.0
C      1  0.4898670000000  0.4553570000000  0.5474730000000 1.0
C      1  0.5531400000000  0.4579690000000  0.5130400000000 1.0
C      1  0.5564040000000  0.4618360000000  0.4841710000000 1.0
C      1  0.4405160000000  0.5470820000000  0.5190510000000 1.0
C      1  0.4884770000000  0.5372760000000  0.5539480000000 1.0
C      1  0.5328220000000  0.5348810000000  0.5381960000000 1.0
C      1  0.5553990000000  0.5406660000000  0.4980090000000 1.0
C      1  0.5360190000000  0.5478520000000  0.4550070000000 1.0
C      1  0.4908460000000  0.5327870000000  0.4567390000000 1.0
C      1  0.4506450000000  0.5411410000000  0.4760580000000 1.0
C      1  0.4349040000000  0.4708510000000  0.4949790000000 1.0
C      1  0.4494750000000  0.4775840000000  0.5471600000000 1.0
C      1  0.4942700000000  0.4792800000000  0.5635270000000 1.0
C      1  0.5595650000000  0.4797650000000  0.5328820000000 1.0
C      1  0.5720960000000  0.4859390000000  0.4777090000000 1.0
C      1  0.5267080000000  0.4713060000000  0.4472360000000 1.0
C      1  0.4734860000000  0.4792790000000  0.4422480000000 1.0
C      1  0.4947830000000  0.5526720000000  0.4789590000000 1.0
C      1  0.4692410000000  0.5623300000000  0.4877050000000 1.0
C      1  0.4655070000000  0.5626960000000  0.5167120000000 1.0
C      1  0.4902840000000  0.5579590000000  0.5320620000000 1.0
C      1  0.5187430000000  0.5560200000000  0.5228840000000 1.0
C      1  0.5353970000000  0.5609920000000  0.5001240000000 1.0
C      1  0.5221790000000  0.5619760000000  0.4754310000000 1.0
C      1  0.5325610000000  0.4391060000000  0.5191380000000 1.0
C      1  0.5211600000000  0.4206950000000  0.4997380000000 1.0
C      1  0.5159140000000  0.4314360000000  0.4742050000000 1.0
C      1  0.4872230000000  0.4336910000000  0.4695170000000 1.0
C      1  0.4699110000000  0.4269250000000  0.4930850000000 1.0
C      1  0.4747870000000  0.4049860000000  0.5085870000000 1.0
C      1  0.5080170000000  0.4362010000000  0.5358710000000 1.0
C      1  0.4716270000000  0.5368510000000  0.5792810000000 1.0
C      1  0.5152360000000  0.5252520000000  0.5593410000000 1.0
C      1  0.5608870000000  0.5320140000000  0.5289690000000 1.0
C      1  0.5590810000000  0.5351740000000  0.4666130000000 1.0
C      1  0.5154580000000  0.5345980000000  0.4388890000000 1.0
C      1  0.4622370000000  0.5268360000000  0.4522610000000 1.0
C      1  0.4298400000000  0.5480930000000  0.4932130000000 1.0
C      1  0.4540390000000  0.4987390000000  0.4514300000000 1.0
C      1  0.4173980000000  0.4773740000000  0.5142430000000 1.0
C      1  0.4620760000000  0.5133010000000  0.5835240000000 1.0
C      1  0.5172640000000  0.4960360000000  0.5631050000000 1.0
C      1  0.5731540000000  0.5046300000000  0.5270910000000 1.0
C      1  0.5652070000000  0.5068030000000  0.4568790000000 1.0
C      1  0.5200220000000  0.5089250000000  0.4298110000000 1.0
C      1  0.4780100000000  0.4700480000000  0.4897060000000 1.0
C      1  0.4956350000000  0.5406510000000  0.5077200000000 1.0
C      1  0.4981230000000  0.4154950000000  0.5175830000000 1.0
C      1  0.4953020000000  0.5109600000000  0.5156350000000 1.0
C      1  0.4828960000000  0.4990360000000  0.4924270000000 1.0
END
