TITL C-175316-9571-4 -0.0934783022848942 125000 -470.479888735567 0 0 68 (C1) n - 1
REM
REM in /rds/project/t2_vol4/rds-t2-cs072/BORA/CARBON/from-Arr/AIRSS/Generating-Clusters/GAP-ML-2020/Higher-Symm/SD-CG/HFTN-CG
REM
REM
REM
REM
REM
REM ./C.cell (b20cbc046b6831c77cfcea5457e17084)
REM AIRSS Version 0.9.1 bugfix July 2018 build 013d7b7c2542+ Fri, 06 Jul 2018 19:26:36 +0100
REM compiler GCC version 9.3.0
REM options -cpp -mtune=generic -march=x86-64 -g -O0
REM seed -1406483756 -1823512001 1820997423 414803674 -1846189896 -1716188922 -1914755249 332220764 -1053599858 1738195032 -2020978093 300874880 1503164484 -241713770 2120168664 -105075130 -1954343633 -1274635403 -2102362941 795522058 1776953339 -1120694244 1355447448 -1586400962 603666964 -1218644792 277899635 634244539 677515046 859696116 -502527697 -267771365 -1970924458
REM
CELL 1.54180   50.00000   50.00000   50.00000   90.00000   90.00000   90.00000
LATT -1
SFAC C  
C      1  0.5165680000000  0.4400880000000  0.5372190000000 1.0
C      1  0.5480350000000  0.4627420000000  0.4776290000000 1.0
C      1  0.4987710000000  0.5210040000000  0.4837040000000 1.0
C      1  0.4395960000000  0.4858080000000  0.4629180000000 1.0
C      1  0.4528050000000  0.4608810000000  0.4586750000000 1.0
C      1  0.5406530000000  0.4461210000000  0.5207560000000 1.0
C      1  0.4792300000000  0.4528850000000  0.4488940000000 1.0
C      1  0.4829410000000  0.5410250000000  0.4321720000000 1.0
C      1  0.5531620000000  0.4809200000000  0.5499260000000 1.0
C      1  0.4310320000000  0.5209740000000  0.4926300000000 1.0
C      1  0.4792320000000  0.4931810000000  0.5752810000000 1.0
C      1  0.4735300000000  0.5338740000000  0.5504470000000 1.0
C      1  0.5474490000000  0.5579460000000  0.4812370000000 1.0
C      1  0.5214500000000  0.5449400000000  0.5613860000000 1.0
C      1  0.4433300000000  0.5286860000000  0.5163140000000 1.0
C      1  0.5571010000000  0.4700520000000  0.5245380000000 1.0
C      1  0.5113900000000  0.4551490000000  0.5609810000000 1.0
C      1  0.5179290000000  0.5100850000000  0.4281930000000 1.0
C      1  0.5052850000000  0.4980140000000  0.5368470000000 1.0
C      1  0.4722760000000  0.5591910000000  0.4493570000000 1.0
C      1  0.5681700000000  0.5129390000000  0.4839480000000 1.0
C      1  0.5270320000000  0.4975550000000  0.5793360000000 1.0
C      1  0.5124170000000  0.5378030000000  0.4274380000000 1.0
C      1  0.4667130000000  0.4624530000000  0.5454750000000 1.0
C      1  0.4971860000000  0.5362550000000  0.5689000000000 1.0
C      1  0.5577130000000  0.5365820000000  0.4977530000000 1.0
C      1  0.5224100000000  0.5097650000000  0.4756520000000 1.0
C      1  0.5398220000000  0.5301920000000  0.5469370000000 1.0
C      1  0.5603120000000  0.5182900000000  0.4571950000000 1.0
C      1  0.4605580000000  0.5066900000000  0.5587710000000 1.0
C      1  0.4976820000000  0.4675070000000  0.4329880000000 1.0
C      1  0.4663160000000  0.5080260000000  0.5156670000000 1.0
C      1  0.4488030000000  0.5109100000000  0.4508660000000 1.0
C      1  0.5075510000000  0.5356910000000  0.5102360000000 1.0
C      1  0.5325020000000  0.4713350000000  0.5685950000000 1.0
C      1  0.5478780000000  0.5074740000000  0.5615310000000 1.0
C      1  0.4495690000000  0.4507030000000  0.5067600000000 1.0
C      1  0.4715350000000  0.5141270000000  0.4332380000000 1.0
C      1  0.5342580000000  0.5523710000000  0.4338400000000 1.0
C      1  0.4900550000000  0.4789520000000  0.4976490000000 1.0
C      1  0.5112310000000  0.4839920000000  0.5143600000000 1.0
C      1  0.4594310000000  0.5498570000000  0.5260230000000 1.0
C      1  0.4848920000000  0.4660290000000  0.5664330000000 1.0
C      1  0.5377900000000  0.5008220000000  0.4489450000000 1.0
C      1  0.5406750000000  0.4714310000000  0.4510750000000 1.0
C      1  0.5050950000000  0.4332820000000  0.4925410000000 1.0
C      1  0.4784510000000  0.5018320000000  0.4889730000000 1.0
C      1  0.4692630000000  0.4427920000000  0.5258070000000 1.0
C      1  0.5368890000000  0.5270150000000  0.5168730000000 1.0
C      1  0.5253330000000  0.5740090000000  0.4903670000000 1.0
C      1  0.4367600000000  0.4758900000000  0.5120270000000 1.0
C      1  0.4532380000000  0.4875410000000  0.5356180000000 1.0
C      1  0.5578010000000  0.4846230000000  0.4963350000000 1.0
C      1  0.4953980000000  0.4329220000000  0.5194680000000 1.0
C      1  0.4935600000000  0.4958250000000  0.4278370000000 1.0
C      1  0.4899600000000  0.5205760000000  0.5290400000000 1.0
C      1  0.5323880000000  0.4993390000000  0.5017920000000 1.0
C      1  0.5330940000000  0.4436980000000  0.4934080000000 1.0
C      1  0.5028040000000  0.5646990000000  0.5028710000000 1.0
C      1  0.4435100000000  0.5319630000000  0.4700790000000 1.0
C      1  0.4611340000000  0.5551710000000  0.4743620000000 1.0
C      1  0.5514900000000  0.5465670000000  0.4539710000000 1.0
C      1  0.5015280000000  0.5097920000000  0.5809600000000 1.0
C      1  0.4566050000000  0.4430660000000  0.4813570000000 1.0
C      1  0.5244380000000  0.4585900000000  0.4330390000000 1.0
C      1  0.4297470000000  0.4919690000000  0.4895140000000 1.0
C      1  0.4841780000000  0.4367770000000  0.4732000000000 1.0
C      1  0.4730740000000  0.5607430000000  0.5018440000000 1.0
END
