TITL C-170963-5871-1 -327.956134954175 125000 -712.151572975038 0 0 104 (C1) n - 1
REM
REM in /rds/project/t2_vol4/rds-t2-cs072/BORA/CARBON/from-Arr/AIRSS/Generating-Clusters/GAP-ML-2020/Higher-Symm/SD-CG/HFTN-CG
REM
REM
REM
REM
REM
REM ./C.cell (b20cbc046b6831c77cfcea5457e17084)
REM AIRSS Version 0.9.1 bugfix July 2018 build 013d7b7c2542+ Fri, 06 Jul 2018 19:26:36 +0100
REM compiler GCC version 9.3.0
REM options -cpp -mtune=generic -march=x86-64 -g -O0
REM seed -1202939935 93713629 -1641875810 1624455067 1400940961 -1537664859 1588671943 -875555763 -1379835559 1034479127 -1758956754 -1211105511 -1938504098 -598405253 -1469330253 -246157409 666892942 -1698684606 -921298265 -655484656 -695474728 -1979288707 289165003 -1030857421 159014643 -1220207813 1889621456 -223221603 1201366329 794591910 1747891537 59539267 -352167067
REM
CELL 1.54180   50.00000   50.00000   50.00000   90.00000   90.00000   90.00000
LATT -1
SFAC C  
C      1  0.5013630000000  0.5490970000000  0.4313340000000 1.0
C      1  0.5001560000000  0.5879770000000  0.4985640000000 1.0
C      1  0.4999380000000  0.5588440000000  0.5654500000000 1.0
C      1  0.5085360000000  0.4857140000000  0.5838690000000 1.0
C      1  0.5069670000000  0.4228660000000  0.5413660000000 1.0
C      1  0.4942780000000  0.4183250000000  0.4692640000000 1.0
C      1  0.4960650000000  0.4781440000000  0.4193290000000 1.0
C      1  0.4802110000000  0.5667130000000  0.5450760000000 1.0
C      1  0.5015800000000  0.5117650000000  0.5876040000000 1.0
C      1  0.4919610000000  0.4395490000000  0.5599670000000 1.0
C      1  0.4783180000000  0.4212730000000  0.4939230000000 1.0
C      1  0.4803500000000  0.4579700000000  0.4316750000000 1.0
C      1  0.4808000000000  0.5304870000000  0.4213950000000 1.0
C      1  0.4883950000000  0.5784490000000  0.4750260000000 1.0
C      1  0.4532250000000  0.5335620000000  0.4910850000000 1.0
C      1  0.4464860000000  0.5332010000000  0.5212020000000 1.0
C      1  0.4429140000000  0.5047160000000  0.5327100000000 1.0
C      1  0.4386870000000  0.4731430000000  0.5224400000000 1.0
C      1  0.4477460000000  0.4632040000000  0.4969320000000 1.0
C      1  0.4456000000000  0.4835780000000  0.4758150000000 1.0
C      1  0.4382370000000  0.5170310000000  0.4384630000000 1.0
C      1  0.4170260000000  0.5328870000000  0.5102710000000 1.0
C      1  0.4134210000000  0.5095220000000  0.5268180000000 1.0
C      1  0.4096060000000  0.4831840000000  0.5171380000000 1.0
C      1  0.3976860000000  0.4830410000000  0.4906550000000 1.0
C      1  0.4178930000000  0.4914330000000  0.4715710000000 1.0
C      1  0.4190640000000  0.5171300000000  0.4592530000000 1.0
C      1  0.4233630000000  0.5322870000000  0.4829050000000 1.0
C      1  0.5511820000000  0.4352280000000  0.5619360000000 1.0
C      1  0.5413950000000  0.4043800000000  0.4888480000000 1.0
C      1  0.5372200000000  0.4516300000000  0.4278520000000 1.0
C      1  0.5451430000000  0.5265880000000  0.4190530000000 1.0
C      1  0.5421420000000  0.5823680000000  0.4739730000000 1.0
C      1  0.5458550000000  0.5804190000000  0.5511200000000 1.0
C      1  0.5513720000000  0.5118690000000  0.5842630000000 1.0
C      1  0.5315000000000  0.5543550000000  0.5086040000000 1.0
C      1  0.5340490000000  0.5420390000000  0.5374180000000 1.0
C      1  0.5430090000000  0.4937540000000  0.5504690000000 1.0
C      1  0.5418990000000  0.4530180000000  0.5258790000000 1.0
C      1  0.5295600000000  0.4434210000000  0.4827320000000 1.0
C      1  0.5314650000000  0.4894990000000  0.4559690000000 1.0
C      1  0.5334560000000  0.5211480000000  0.4623740000000 1.0
C      1  0.4878120000000  0.5688820000000  0.4472790000000 1.0
C      1  0.4796980000000  0.5814350000000  0.5194990000000 1.0
C      1  0.4898230000000  0.5345630000000  0.5783720000000 1.0
C      1  0.4895150000000  0.4653830000000  0.5741460000000 1.0
C      1  0.4842930000000  0.4206770000000  0.5224370000000 1.0
C      1  0.4808600000000  0.4329330000000  0.4479580000000 1.0
C      1  0.4780210000000  0.5010250000000  0.4173910000000 1.0
C      1  0.4523860000000  0.4937120000000  0.4290330000000 1.0
C      1  0.4604890000000  0.5602210000000  0.4504220000000 1.0
C      1  0.4565330000000  0.5761820000000  0.5049020000000 1.0
C      1  0.4648140000000  0.5283780000000  0.5658170000000 1.0
C      1  0.4648160000000  0.4761940000000  0.5635950000000 1.0
C      1  0.4691340000000  0.4365430000000  0.5417940000000 1.0
C      1  0.4559640000000  0.4422680000000  0.4583800000000 1.0
C      1  0.5296620000000  0.5835690000000  0.5009550000000 1.0
C      1  0.5306090000000  0.5579650000000  0.5627850000000 1.0
C      1  0.5392380000000  0.4848030000000  0.5778880000000 1.0
C      1  0.5366900000000  0.4264690000000  0.5370110000000 1.0
C      1  0.5242570000000  0.4183530000000  0.4687200000000 1.0
C      1  0.5259920000000  0.4786040000000  0.4263510000000 1.0
C      1  0.5301680000000  0.5425290000000  0.4386670000000 1.0
C      1  0.5581640000000  0.5238740000000  0.4798320000000 1.0
C      1  0.5572240000000  0.5407300000000  0.5020610000000 1.0
C      1  0.5597620000000  0.5303480000000  0.5287280000000 1.0
C      1  0.5646020000000  0.5028640000000  0.5334940000000 1.0
C      1  0.5637070000000  0.4604420000000  0.5093960000000 1.0
C      1  0.5552250000000  0.4548610000000  0.4827120000000 1.0
C      1  0.5561410000000  0.4787610000000  0.4681340000000 1.0
C      1  0.4620520000000  0.5616020000000  0.4804460000000 1.0
C      1  0.4588600000000  0.5469220000000  0.5450250000000 1.0
C      1  0.4555560000000  0.5026850000000  0.5586510000000 1.0
C      1  0.4528370000000  0.4592160000000  0.5440880000000 1.0
C      1  0.4561900000000  0.4387070000000  0.4868740000000 1.0
C      1  0.4551060000000  0.4695280000000  0.4462400000000 1.0
C      1  0.4557480000000  0.5385770000000  0.4333730000000 1.0
C      1  0.5427940000000  0.4987820000000  0.4134610000000 1.0
C      1  0.5424160000000  0.5658030000000  0.4515220000000 1.0
C      1  0.5455710000000  0.5913380000000  0.5240920000000 1.0
C      1  0.5450290000000  0.5396020000000  0.5814420000000 1.0
C      1  0.5534320000000  0.4588800000000  0.5790220000000 1.0
C      1  0.5473040000000  0.4087910000000  0.5168430000000 1.0
C      1  0.5370410000000  0.4283310000000  0.4438660000000 1.0
C      1  0.5176920000000  0.4707870000000  0.5187790000000 1.0
C      1  0.5087820000000  0.4639960000000  0.4934450000000 1.0
C      1  0.5058260000000  0.4827230000000  0.4736420000000 1.0
C      1  0.5080380000000  0.5237410000000  0.4792000000000 1.0
C      1  0.5079420000000  0.5348470000000  0.5038400000000 1.0
C      1  0.5106860000000  0.5206470000000  0.5278240000000 1.0
C      1  0.5167500000000  0.4941940000000  0.5335590000000 1.0
C      1  0.5556510000000  0.5900480000000  0.4517590000000 1.0
C      1  0.5626970000000  0.6000840000000  0.5431780000000 1.0
C      1  0.5589550000000  0.5307060000000  0.6028500000000 1.0
C      1  0.5561310000000  0.4336130000000  0.5889300000000 1.0
C      1  0.5601020000000  0.3898210000000  0.5026680000000 1.0
C      1  0.5457060000000  0.4274890000000  0.4181170000000 1.0
C      1  0.5490910000000  0.5166550000000  0.3940210000000 1.0
C      1  0.3705530000000  0.4834980000000  0.4866390000000 1.0
C      1  0.4630330000000  0.5075530000000  0.4811620000000 1.0
C      1  0.5726000000000  0.4874150000000  0.5110080000000 1.0
C      1  0.3457250000000  0.4845360000000  0.4818490000000 1.0
C      1  0.5688730000000  0.4983240000000  0.4843630000000 1.0
C      1  0.4889810000000  0.5045410000000  0.4750290000000 1.0
END
