TITL C-175335-9501-5 0.409556940691354 125000 -696.502867852578 0 0 101 (S4) n - 1
REM
REM in /rds/project/t2_vol4/rds-t2-cs072/BORA/CARBON/from-Arr/AIRSS/Generating-Clusters/GAP-ML-2020/Higher-Symm/SD-CG/HFTN-CG
REM
REM
REM
REM
REM
REM ./C.cell (b20cbc046b6831c77cfcea5457e17084)
REM AIRSS Version 0.9.1 bugfix July 2018 build 013d7b7c2542+ Fri, 06 Jul 2018 19:26:36 +0100
REM compiler GCC version 9.3.0
REM options -cpp -mtune=generic -march=x86-64 -g -O0
REM seed -1096956839 -115158015 -241776668 288500659 1792684505 711749462 951857818 517220352 -314357557 299527750 1039257828 1793376140 793238811 -57460273 873988230 -275298937 923902795 1812818169 -1447962718 699254756 885952089 1191838741 -1342021225 -1313828757 -521055576 1485373715 -982693634 -453390756 843283629 -8724417 -1388467203 -178578610 277045175
REM
CELL 1.54180   50.00000   50.00000   50.00000   90.00000   90.00000   90.00000
LATT -1
SFAC C  
C      1  0.4982270000000  0.5334410000000  0.5806330000000 1.0
C      1  0.5339380000000  0.5011850000000  0.4193930000000 1.0
C      1  0.5016580000000  0.4654480000000  0.5806230000000 1.0
C      1  0.4659440000000  0.4977540000000  0.4193930000000 1.0
C      1  0.5156690000000  0.5454180000000  0.5057410000000 1.0
C      1  0.5459030000000  0.4837310000000  0.4942850000000 1.0
C      1  0.4842150000000  0.4534950000000  0.5057270000000 1.0
C      1  0.4539800000000  0.5151850000000  0.4942900000000 1.0
C      1  0.5155030000000  0.4207030000000  0.5256580000000 1.0
C      1  0.4211910000000  0.4839000000000  0.4743500000000 1.0
C      1  0.4843810000000  0.5782040000000  0.5256820000000 1.0
C      1  0.5786920000000  0.5150220000000  0.4743530000000 1.0
C      1  0.4757560000000  0.5737840000000  0.4615270000000 1.0
C      1  0.5742630000000  0.5236370000000  0.5385090000000 1.0
C      1  0.5241270000000  0.4251420000000  0.4615040000000 1.0
C      1  0.4256220000000  0.4752650000000  0.5385030000000 1.0
C      1  0.4877520000000  0.4470540000000  0.4365690000000 1.0
C      1  0.4475290000000  0.5116360000000  0.5634470000000 1.0
C      1  0.5121300000000  0.5518800000000  0.4365850000000 1.0
C      1  0.5523560000000  0.4872580000000  0.5634430000000 1.0
C      1  0.5223930000000  0.5253680000000  0.5273160000000 1.0
C      1  0.5258560000000  0.4770100000000  0.4727050000000 1.0
C      1  0.4774910000000  0.4735380000000  0.5273090000000 1.0
C      1  0.4740270000000  0.5219120000000  0.4727130000000 1.0
C      1  0.5326420000000  0.4724910000000  0.4219740000000 1.0
C      1  0.4729640000000  0.4667440000000  0.5780380000000 1.0
C      1  0.4672410000000  0.5264470000000  0.4219830000000 1.0
C      1  0.5269210000000  0.5321460000000  0.5780480000000 1.0
C      1  0.4316560000000  0.4659680000000  0.5116180000000 1.0
C      1  0.4664550000000  0.5677440000000  0.4884100000000 1.0
C      1  0.5682280000000  0.5329420000000  0.5116270000000 1.0
C      1  0.5334290000000  0.4311730000000  0.4883880000000 1.0
C      1  0.5225470000000  0.5696720000000  0.5469910000000 1.0
C      1  0.5701640000000  0.4768590000000  0.4530370000000 1.0
C      1  0.4773370000000  0.4292270000000  0.5469700000000 1.0
C      1  0.4297190000000  0.5220690000000  0.4530450000000 1.0
C      1  0.4945450000000  0.5703660000000  0.5506560000000 1.0
C      1  0.5708590000000  0.5048620000000  0.4493770000000 1.0
C      1  0.5053390000000  0.4285320000000  0.5506340000000 1.0
C      1  0.4290240000000  0.4940680000000  0.4493760000000 1.0
C      1  0.5029450000000  0.4011140000000  0.5113690000000 1.0
C      1  0.4016000000000  0.4964560000000  0.4886380000000 1.0
C      1  0.4969390000000  0.5977970000000  0.5114000000000 1.0
C      1  0.5982830000000  0.5024620000000  0.4886370000000 1.0
C      1  0.4719490000000  0.4676930000000  0.4795920000000 1.0
C      1  0.4681750000000  0.5274470000000  0.5204290000000 1.0
C      1  0.5279350000000  0.5312270000000  0.4796020000000 1.0
C      1  0.5317090000000  0.4714610000000  0.5204200000000 1.0
C      1  0.4300480000000  0.5321420000000  0.4823740000000 1.0
C      1  0.5326250000000  0.5693480000000  0.5176640000000 1.0
C      1  0.5698350000000  0.4667770000000  0.4823620000000 1.0
C      1  0.4672590000000  0.4295610000000  0.5176430000000 1.0
C      1  0.5591180000000  0.5584430000000  0.5211370000000 1.0
C      1  0.5589310000000  0.4402840000000  0.4788840000000 1.0
C      1  0.4407660000000  0.4404640000000  0.5211200000000 1.0
C      1  0.4409520000000  0.5586370000000  0.4789030000000 1.0
C      1  0.5339450000000  0.5384660000000  0.4500970000000 1.0
C      1  0.5389430000000  0.4654460000000  0.5499250000000 1.0
C      1  0.4659380000000  0.4604640000000  0.4500850000000 1.0
C      1  0.4609410000000  0.5334530000000  0.5499360000000 1.0
C      1  0.5003890000000  0.5148790000000  0.4757270000000 1.0
C      1  0.5153600000000  0.4990060000000  0.5242970000000 1.0
C      1  0.4994940000000  0.4840430000000  0.4757220000000 1.0
C      1  0.4845240000000  0.4999010000000  0.5242970000000 1.0
C      1  0.5904240000000  0.4789560000000  0.5013900000000 1.0
C      1  0.4794410000000  0.4089750000000  0.4986140000000 1.0
C      1  0.4094600000000  0.5199580000000  0.5013970000000 1.0
C      1  0.5204430000000  0.5899390000000  0.4986420000000 1.0
C      1  0.4969610000000  0.4250670000000  0.4532960000000 1.0
C      1  0.4255450000000  0.5024300000000  0.5467160000000 1.0
C      1  0.5029220000000  0.5738620000000  0.4533190000000 1.0
C      1  0.5743400000000  0.4964690000000  0.5467140000000 1.0
C      1  0.5184290000000  0.5875370000000  0.4717250000000 1.0
C      1  0.5880170000000  0.4809650000000  0.5283070000000 1.0
C      1  0.4814540000000  0.4113860000000  0.4716980000000 1.0
C      1  0.4118670000000  0.5179400000000  0.5283140000000 1.0
C      1  0.5084660000000  0.5106710000000  0.4125330000000 1.0
C      1  0.5111430000000  0.4909180000000  0.5874890000000 1.0
C      1  0.4914160000000  0.4882700000000  0.4125290000000 1.0
C      1  0.4887420000000  0.5079690000000  0.5874920000000 1.0
C      1  0.5353530000000  0.5040240000000  0.5797510000000 1.0
C      1  0.5045210000000  0.4640590000000  0.4202650000000 1.0
C      1  0.4645320000000  0.4948650000000  0.5797500000000 1.0
C      1  0.4953620000000  0.5348800000000  0.4202770000000 1.0
C      1  0.4465720000000  0.5387090000000  0.4374840000000 1.0
C      1  0.5391850000000  0.5528170000000  0.5625520000000 1.0
C      1  0.5533110000000  0.4602240000000  0.4374710000000 1.0
C      1  0.4607000000000  0.4460780000000  0.5625370000000 1.0
C      1  0.5532460000000  0.5163160000000  0.4914310000000 1.0
C      1  0.5168000000000  0.4461510000000  0.5085850000000 1.0
C      1  0.4466370000000  0.4826010000000  0.4914260000000 1.0
C      1  0.4830840000000  0.5527600000000  0.5086020000000 1.0
C      1  0.4372370000000  0.4507600000000  0.5477280000000 1.0
C      1  0.4512520000000  0.5621700000000  0.4522970000000 1.0
C      1  0.5626480000000  0.5481400000000  0.5477420000000 1.0
C      1  0.5486310000000  0.4367590000000  0.4522760000000 1.0
C      1  0.5182760000000  0.4501830000000  0.5633780000000 1.0
C      1  0.4506770000000  0.4811330000000  0.4366330000000 1.0
C      1  0.4816080000000  0.5487110000000  0.5633940000000 1.0
C      1  0.5492050000000  0.5178010000000  0.4366380000000 1.0
C      1  0.4999420000000  0.4994570000000  0.5000110000000 1.0
END
