TITL C-170972-9773-5 0.00932459675431236 125000 -55.8752960771709 0 0 9 (Cs) n - 1
REM
REM in /rds/project/t2_vol4/rds-t2-cs072/BORA/CARBON/from-Arr/AIRSS/Generating-Clusters/GAP-ML-2020/Higher-Symm/SD-CG/HFTN-CG
REM
REM
REM
REM
REM
REM ./C.cell (b20cbc046b6831c77cfcea5457e17084)
REM AIRSS Version 0.9.1 bugfix July 2018 build 013d7b7c2542+ Fri, 06 Jul 2018 19:26:36 +0100
REM compiler GCC version 9.3.0
REM options -cpp -mtune=generic -march=x86-64 -g -O0
REM seed -1342954856 -2122901497 496580539 803608368 38076236 -816227961 291300787 -444588646 -2005653988 -1412604417 -2140899336 -1371192917 -110111447 604062610 -675161360 -658614179 -1219632180 1495470729 103306715 930781603 -888649986 -303957700 1892493134 1823565487 -1395375218 1755341135 -230024730 -176547065 -1577479213 2044556757 766265658 -1493291767 558855887
REM
CELL 1.54180   50.00000   50.00000   50.00000   90.00000   90.00000   90.00000
LATT -1
SFAC C  
C      1  0.4737820000000  0.5000070000000  0.5337970000000 1.0
C      1  0.4890450000000  0.5000110000000  0.4691570000000 1.0
C      1  0.5320000000000  0.4999830000000  0.5039830000000 1.0
C      1  0.4675890000000  0.5000150000000  0.5081660000000 1.0
C      1  0.5130770000000  0.5000010000000  0.4595310000000 1.0
C      1  0.5257810000000  0.4999810000000  0.5295560000000 1.0
C      1  0.4660150000000  0.5000210000000  0.4818070000000 1.0
C      1  0.5324440000000  0.4999870000000  0.4783050000000 1.0
C      1  0.5002680000000  0.4999930000000  0.5356980000000 1.0
END
