TITL C-170963-5871-7 -26.4870053464263 125000 -111.957116066713 0 0 18 (D4d) n - 1
REM
REM in /rds/project/t2_vol4/rds-t2-cs072/BORA/CARBON/from-Arr/AIRSS/Generating-Clusters/GAP-ML-2020/Higher-Symm/SD-CG/HFTN-CG
REM
REM
REM
REM
REM
REM ./C.cell (b20cbc046b6831c77cfcea5457e17084)
REM AIRSS Version 0.9.1 bugfix July 2018 build 013d7b7c2542+ Fri, 06 Jul 2018 19:26:36 +0100
REM compiler GCC version 9.3.0
REM options -cpp -mtune=generic -march=x86-64 -g -O0
REM seed 1165766381 522925410 -921525516 491295932 -410263810 -2032991274 1657024387 -2111299167 628839042 167431579 -148461876 1971632582 -233589500 650353960 856738673 -356914353 -523718576 -2005580278 -1370719401 1038136842 -1199541545 2138679197 -465220105 -477071674 -2140678268 2001431509 -2057974046 -1235673076 -415337919 946315609 2003992671 -57714845 182282378
REM
CELL 1.54180   50.00000   50.00000   50.00000   90.00000   90.00000   90.00000
LATT -1
SFAC C  
C      1  0.4698520000000  0.5153310000000  0.5373000000000 1.0
C      1  0.4875020000000  0.4696690000000  0.5385990000000 1.0
C      1  0.5331810000000  0.4873200000000  0.5384060000000 1.0
C      1  0.5155310000000  0.5329820000000  0.5371070000000 1.0
C      1  0.5342870000000  0.5117170000000  0.4578930000000 1.0
C      1  0.5144680000000  0.4669490000000  0.4589480000000 1.0
C      1  0.4696880000000  0.4867550000000  0.4581660000000 1.0
C      1  0.4895070000000  0.5315240000000  0.4571110000000 1.0
C      1  0.5118660000000  0.4744210000000  0.5267300000000 1.0
C      1  0.5281900000000  0.5112950000000  0.5258610000000 1.0
C      1  0.4913070000000  0.5276080000000  0.5252170000000 1.0
C      1  0.4749830000000  0.4907350000000  0.5260860000000 1.0
C      1  0.4903740000000  0.4734740000000  0.4705230000000 1.0
C      1  0.4758370000000  0.5110830000000  0.4694530000000 1.0
C      1  0.5134600000000  0.5256210000000  0.4692950000000 1.0
C      1  0.5279970000000  0.4880120000000  0.4703650000000 1.0
C      1  0.5018350000000  0.4999110000000  0.4837900000000 1.0
C      1  0.5016680000000  0.5006510000000  0.5120930000000 1.0
END
