TITL C-175342-9418-9 -14.7078821936395 125000 -442.189285429896 0 0 65 (C2v) n - 1
REM
REM in /rds/project/t2_vol4/rds-t2-cs072/BORA/CARBON/from-Arr/AIRSS/Generating-Clusters/GAP-ML-2020/Higher-Symm/SD-CG/HFTN-CG
REM
REM
REM
REM
REM
REM ./C.cell (b20cbc046b6831c77cfcea5457e17084)
REM AIRSS Version 0.9.1 bugfix July 2018 build 013d7b7c2542+ Fri, 06 Jul 2018 19:26:36 +0100
REM compiler GCC version 9.3.0
REM options -cpp -mtune=generic -march=x86-64 -g -O0
REM seed -1036334742 -1701970333 -1143933227 -1152547744 -100586203 1604091819 1452487586 162864789 -875460366 -247911067 -661531890 -1596432154 1689798219 -375336069 -789725950 -601831503 889484691 1957588241 -372263827 1777635977 2120070310 -1992480752 1002643553 -345968236 1864872073 1295394851 -1907565901 -80961285 -1052489885 -115599641 -1098324146 1595419433 -713980115
REM
CELL 1.54180   50.00000   50.00000   50.00000   90.00000   90.00000   90.00000
LATT -1
SFAC C  
C      1  0.5150570000000  0.4331540000000  0.5270480000000 1.0
C      1  0.4857590000000  0.5669790000000  0.5270390000000 1.0
C      1  0.5150590000000  0.5669790000000  0.5270410000000 1.0
C      1  0.4857570000000  0.4331540000000  0.5270460000000 1.0
C      1  0.4839970000000  0.5298100000000  0.5539450000000 1.0
C      1  0.5168160000000  0.4703260000000  0.5539500000000 1.0
C      1  0.4839960000000  0.4703270000000  0.5539480000000 1.0
C      1  0.5168170000000  0.5298090000000  0.5539470000000 1.0
C      1  0.4349260000000  0.4665630000000  0.5039670000000 1.0
C      1  0.5658920000000  0.5335680000000  0.5039710000000 1.0
C      1  0.4349280000000  0.5335700000000  0.5039640000000 1.0
C      1  0.5658910000000  0.4665610000000  0.5039750000000 1.0
C      1  0.5263190000000  0.4521320000000  0.4817630000000 1.0
C      1  0.4745020000000  0.5479970000000  0.4817550000000 1.0
C      1  0.5263200000000  0.5479960000000  0.4817580000000 1.0
C      1  0.4745010000000  0.4521330000000  0.4817600000000 1.0
C      1  0.4321530000000  0.5142380000000  0.5249990000000 1.0
C      1  0.5686630000000  0.4858950000000  0.5250080000000 1.0
C      1  0.4321520000000  0.4858970000000  0.5250000000000 1.0
C      1  0.5686640000000  0.5142360000000  0.5250070000000 1.0
C      1  0.5331760000000  0.5503890000000  0.5421200000000 1.0
C      1  0.4676380000000  0.4497450000000  0.5421210000000 1.0
C      1  0.5331750000000  0.4497440000000  0.5421250000000 1.0
C      1  0.4676390000000  0.5503900000000  0.5421170000000 1.0
C      1  0.4853660000000  0.5140180000000  0.5278050000000 1.0
C      1  0.5154500000000  0.4861150000000  0.5278080000000 1.0
C      1  0.4853660000000  0.4861150000000  0.5278060000000 1.0
C      1  0.5154500000000  0.5140180000000  0.5278070000000 1.0
C      1  0.4510100000000  0.4851590000000  0.4566420000000 1.0
C      1  0.5498140000000  0.5149680000000  0.4566460000000 1.0
C      1  0.4510100000000  0.5149690000000  0.4566410000000 1.0
C      1  0.5498130000000  0.4851570000000  0.4566480000000 1.0
C      1  0.5152220000000  0.4312190000000  0.4983230000000 1.0
C      1  0.4855970000000  0.5689120000000  0.4983150000000 1.0
C      1  0.5152240000000  0.5689110000000  0.4983170000000 1.0
C      1  0.4855950000000  0.4312190000000  0.4983220000000 1.0
C      1  0.5143930000000  0.4538760000000  0.4554340000000 1.0
C      1  0.4864310000000  0.5462500000000  0.4554280000000 1.0
C      1  0.5143950000000  0.5462500000000  0.4554300000000 1.0
C      1  0.4864290000000  0.4538770000000  0.4554320000000 1.0
C      1  0.5292140000000  0.4726750000000  0.4401360000000 1.0
C      1  0.4716120000000  0.5274500000000  0.4401300000000 1.0
C      1  0.5292150000000  0.5274490000000  0.4401340000000 1.0
C      1  0.4716110000000  0.4726760000000  0.4401330000000 1.0
C      1  0.5529310000000  0.5343370000000  0.4785790000000 1.0
C      1  0.4478900000000  0.4657920000000  0.4785760000000 1.0
C      1  0.5529300000000  0.4657900000000  0.4785820000000 1.0
C      1  0.4478910000000  0.5343380000000  0.4785730000000 1.0
C      1  0.4849180000000  0.4858500000000  0.5784130000000 1.0
C      1  0.5158920000000  0.5142880000000  0.5784140000000 1.0
C      1  0.4849190000000  0.5142890000000  0.5784120000000 1.0
C      1  0.5158910000000  0.4858500000000  0.5784150000000 1.0
C      1  0.5150150000000  0.4777980000000  0.4987840000000 1.0
C      1  0.4858040000000  0.5223330000000  0.4987800000000 1.0
C      1  0.5150160000000  0.5223320000000  0.4987820000000 1.0
C      1  0.4858030000000  0.4777980000000  0.4987820000000 1.0
C      1  0.4856550000000  0.4856580000000  0.4203830000000 1.0
C      1  0.5151730000000  0.5144650000000  0.4203830000000 1.0
C      1  0.4856550000000  0.5144660000000  0.4203810000000 1.0
C      1  0.5151730000000  0.4856580000000  0.4203840000000 1.0
C      1  0.5560470000000  0.4605000000000  0.5288440000000 1.0
C      1  0.4447690000000  0.5396330000000  0.5288340000000 1.0
C      1  0.5560480000000  0.5396310000000  0.5288410000000 1.0
C      1  0.4447670000000  0.4605020000000  0.5288380000000 1.0
C      1  0.5004100000000  0.5000650000000  0.4848320000000 1.0
END
