TITL C-170964-7508-3 -0.0916898936913276 125000 -738.616513144171 0 0 108 (C3) n - 1
REM
REM in /rds/project/t2_vol4/rds-t2-cs072/BORA/CARBON/from-Arr/AIRSS/Generating-Clusters/GAP-ML-2020/Higher-Symm/SD-CG/HFTN-CG
REM
REM
REM
REM
REM
REM ./C.cell (b20cbc046b6831c77cfcea5457e17084)
REM AIRSS Version 0.9.1 bugfix July 2018 build 013d7b7c2542+ Fri, 06 Jul 2018 19:26:36 +0100
REM compiler GCC version 9.3.0
REM options -cpp -mtune=generic -march=x86-64 -g -O0
REM seed 1632816286 307364915 -956248648 1946512373 607915096 1730521131 1255767414 216664139 -953743598 -396634203 -1474053146 371877736 1024758398 -1777442420 -318332981 173140047 2097077873 2123812025 -32687926 877313753 -1688864138 291979265 792145574 -664481141 -1576972202 -1992529298 1284572313 1966901255 871115180 -1564278375 -921369192 1740131103 472729206
REM
CELL 1.54180   50.00000   50.00000   50.00000   90.00000   90.00000   90.00000
LATT -1
SFAC C  
C      1  0.4447780000000  0.4734870000000  0.4200290000000 1.0
C      1  0.5968680000000  0.4734870000000  0.4921610000000 1.0
C      1  0.4583550000000  0.4734840000000  0.5878090000000 1.0
C      1  0.4878620000000  0.4564640000000  0.4445220000000 1.0
C      1  0.5541150000000  0.4564630000000  0.5172250000000 1.0
C      1  0.4580250000000  0.4564610000000  0.5382500000000 1.0
C      1  0.4860470000000  0.4192380000000  0.5247080000000 1.0
C      1  0.4855780000000  0.4192390000000  0.4755590000000 1.0
C      1  0.5283770000000  0.4192390000000  0.4997270000000 1.0
C      1  0.4718690000000  0.4809050000000  0.4319230000000 1.0
C      1  0.5730220000000  0.4809040000000  0.5096750000000 1.0
C      1  0.4551100000000  0.4809020000000  0.5584000000000 1.0
C      1  0.4606390000000  0.5002640000000  0.4574960000000 1.0
C      1  0.5564900000000  0.5002640000000  0.4871640000000 1.0
C      1  0.4828710000000  0.5002620000000  0.5553390000000 1.0
C      1  0.4756760000000  0.5716240000000  0.5504770000000 1.0
C      1  0.4684480000000  0.5716260000000  0.4536990000000 1.0
C      1  0.5558740000000  0.5716260000000  0.4958290000000 1.0
C      1  0.4436740000000  0.4396980000000  0.4681410000000 1.0
C      1  0.5557530000000  0.4396990000000  0.4671470000000 1.0
C      1  0.5005750000000  0.4396960000000  0.5647070000000 1.0
C      1  0.4662610000000  0.5380130000000  0.4892260000000 1.0
C      1  0.5262000000000  0.5380130000000  0.4761690000000 1.0
C      1  0.5075380000000  0.5380120000000  0.5346070000000 1.0
C      1  0.5442360000000  0.5486330000000  0.4541400000000 1.0
C      1  0.5175990000000  0.5486300000000  0.5612420000000 1.0
C      1  0.4381640000000  0.5486310000000  0.4846220000000 1.0
C      1  0.4889690000000  0.5000740000000  0.4170120000000 1.0
C      1  0.5773850000000  0.5000720000000  0.5319410000000 1.0
C      1  0.4336450000000  0.5000710000000  0.5510470000000 1.0
C      1  0.5702130000000  0.4630830000000  0.4554350000000 1.0
C      1  0.5034880000000  0.4630800000000  0.5830880000000 1.0
C      1  0.4263000000000  0.4630820000000  0.4614750000000 1.0
C      1  0.4455390000000  0.4326930000000  0.4969810000000 1.0
C      1  0.5298440000000  0.4326950000000  0.4543420000000 1.0
C      1  0.5246180000000  0.4326930000000  0.5486720000000 1.0
C      1  0.4804880000000  0.5251840000000  0.5374400000000 1.0
C      1  0.4773320000000  0.5251850000000  0.4643830000000 1.0
C      1  0.5421790000000  0.5251850000000  0.4981790000000 1.0
C      1  0.4905070000000  0.5109920000000  0.5826680000000 1.0
C      1  0.4331540000000  0.5109940000000  0.4504450000000 1.0
C      1  0.5763390000000  0.5109950000000  0.4668880000000 1.0
C      1  0.4772650000000  0.4344720000000  0.5472760000000 1.0
C      1  0.4704250000000  0.4344740000000  0.4566700000000 1.0
C      1  0.5523120000000  0.4344740000000  0.4960500000000 1.0
C      1  0.5231670000000  0.5193330000000  0.5191110000000 1.0
C      1  0.4718660000000  0.5193330000000  0.5105080000000 1.0
C      1  0.5049670000000  0.5193340000000  0.4703820000000 1.0
C      1  0.5220210000000  0.5239230000000  0.4187650000000 1.0
C      1  0.5593410000000  0.5239210000000  0.5596890000000 1.0
C      1  0.4186370000000  0.5239200000000  0.5215470000000 1.0
C      1  0.5480210000000  0.4499060000000  0.5464600000000 1.0
C      1  0.4357540000000  0.4499060000000  0.5183550000000 1.0
C      1  0.5162260000000  0.4499080000000  0.4351810000000 1.0
C      1  0.5397770000000  0.4847950000000  0.4690780000000 1.0
C      1  0.5068910000000  0.4847930000000  0.5499080000000 1.0
C      1  0.4533330000000  0.4847940000000  0.4810130000000 1.0
C      1  0.4780460000000  0.5384670000000  0.5788790000000 1.0
C      1  0.4426660000000  0.5384690000000  0.4415500000000 1.0
C      1  0.5792860000000  0.5384700000000  0.4795740000000 1.0
C      1  0.4942850000000  0.5608060000000  0.5721850000000 1.0
C      1  0.4403440000000  0.5608080000000  0.4589610000000 1.0
C      1  0.5653700000000  0.5608090000000  0.4688580000000 1.0
C      1  0.5138930000000  0.4184930000000  0.4747400000000 1.0
C      1  0.5149290000000  0.4184920000000  0.5246580000000 1.0
C      1  0.4711810000000  0.4184920000000  0.5005970000000 1.0
C      1  0.5314750000000  0.5894070000000  0.4988810000000 1.0
C      1  0.4852320000000  0.5894060000000  0.5278210000000 1.0
C      1  0.4832910000000  0.5894070000000  0.4733030000000 1.0
C      1  0.4224000000000  0.4808570000000  0.4836380000000 1.0
C      1  0.5529700000000  0.4808590000000  0.4409770000000 1.0
C      1  0.5246300000000  0.4808560000000  0.5753840000000 1.0
C      1  0.5062550000000  0.5600100000000  0.5164280000000 1.0
C      1  0.4826460000000  0.5600100000000  0.4972060000000 1.0
C      1  0.5110970000000  0.5600110000000  0.4863710000000 1.0
C      1  0.4353310000000  0.5292020000000  0.5452790000000 1.0
C      1  0.4931220000000  0.5292050000000  0.4213570000000 1.0
C      1  0.5715460000000  0.5292030000000  0.5333660000000 1.0
C      1  0.5354990000000  0.5302830000000  0.5737950000000 1.0
C      1  0.4183430000000  0.5302840000000  0.4938470000000 1.0
C      1  0.5461570000000  0.5302870000000  0.4323600000000 1.0
C      1  0.4172370000000  0.5089910000000  0.4748700000000 1.0
C      1  0.5631450000000  0.5089930000000  0.4408910000000 1.0
C      1  0.5196180000000  0.5089890000000  0.5842400000000 1.0
C      1  0.4609340000000  0.4949760000000  0.5083450000000 1.0
C      1  0.5123060000000  0.4949780000000  0.4619950000000 1.0
C      1  0.5267610000000  0.4949760000000  0.5296600000000 1.0
C      1  0.5025590000000  0.4658670000000  0.5276900000000 1.0
C      1  0.4747400000000  0.4658680000000  0.4883700000000 1.0
C      1  0.5227020000000  0.4658680000000  0.4839370000000 1.0
C      1  0.4970990000000  0.4707970000000  0.4710420000000 1.0
C      1  0.5265290000000  0.4707960000000  0.5119660000000 1.0
C      1  0.4763730000000  0.4707960000000  0.5169910000000 1.0
C      1  0.5666900000000  0.4949490000000  0.5580680000000 1.0
C      1  0.4163660000000  0.4949490000000  0.5287210000000 1.0
C      1  0.5169430000000  0.4949520000000  0.4132100000000 1.0
C      1  0.5643920000000  0.5442410000000  0.5068570000000 1.0
C      1  0.4618660000000  0.5442390000000  0.5523390000000 1.0
C      1  0.4737410000000  0.5442420000000  0.4408070000000 1.0
C      1  0.5508770000000  0.4721710000000  0.5645620000000 1.0
C      1  0.4186490000000  0.4721710000000  0.5117790000000 1.0
C      1  0.5304750000000  0.4721740000000  0.4236580000000 1.0
C      1  0.5131560000000  0.5871500000000  0.4769000000000 1.0
C      1  0.5134280000000  0.5871490000000  0.5229470000000 1.0
C      1  0.4734140000000  0.5871490000000  0.5001590000000 1.0
C      1  0.4274600000000  0.4805490000000  0.4387990000000 1.0
C      1  0.5892720000000  0.4805490000000  0.4677790000000 1.0
C      1  0.4832680000000  0.4805460000000  0.5934210000000 1.0
END
