TITL C-175322-9399-5 50.4800218491186 125000 -1040.52591339493 0 0 150 (C1) n - 1
REM
REM in /rds/project/t2_vol4/rds-t2-cs072/BORA/CARBON/from-Arr/AIRSS/Generating-Clusters/GAP-ML-2020/Higher-Symm/SD-CG/HFTN-CG
REM
REM
REM
REM
REM
REM ./C.cell (b20cbc046b6831c77cfcea5457e17084)
REM AIRSS Version 0.9.1 bugfix July 2018 build 013d7b7c2542+ Fri, 06 Jul 2018 19:26:36 +0100
REM compiler GCC version 9.3.0
REM options -cpp -mtune=generic -march=x86-64 -g -O0
REM seed -725343553 -1801906334 923332800 -1813549911 -2053824088 -1289388386 2093088109 1894924979 1024009161 -15417811 -1548203265 -1669927770 -1872701487 2115214689 -2078251362 -331435065 759265401 312943256 -512436119 -579274738 -644390300 -1695725018 -1622975151 1068141414 1828928074 1202016072 -803125206 1912409048 -30147887 -1429846078 1628296864 -1808399447 1457760801
REM
CELL 1.54180   50.00000   50.00000   50.00000   90.00000   90.00000   90.00000
LATT -1
SFAC C  
C      1  0.4980720000000  0.4518930000000  0.4348940000000 1.0
C      1  0.5013680000000  0.5803040000000  0.4908990000000 1.0
C      1  0.4995510000000  0.4675220000000  0.5744550000000 1.0
C      1  0.4985290000000  0.5245630000000  0.4429700000000 1.0
C      1  0.4993860000000  0.5372850000000  0.5503270000000 1.0
C      1  0.4963330000000  0.4377010000000  0.5074020000000 1.0
C      1  0.4727870000000  0.5449530000000  0.4006780000000 1.0
C      1  0.4753080000000  0.5638690000000  0.5884420000000 1.0
C      1  0.4702980000000  0.3927580000000  0.5108380000000 1.0
C      1  0.4124230000000  0.4418410000000  0.4823520000000 1.0
C      1  0.4150480000000  0.5479060000000  0.4579050000000 1.0
C      1  0.4148250000000  0.5160070000000  0.5622920000000 1.0
C      1  0.4082400000000  0.5320110000000  0.5390260000000 1.0
C      1  0.4060880000000  0.4542110000000  0.5078220000000 1.0
C      1  0.4074040000000  0.5200250000000  0.4557880000000 1.0
C      1  0.5445700000000  0.4722180000000  0.5879710000000 1.0
C      1  0.5415440000000  0.4347020000000  0.4309250000000 1.0
C      1  0.5450840000000  0.5908450000000  0.4780720000000 1.0
C      1  0.5669470000000  0.5456550000000  0.5304000000000 1.0
C      1  0.5641500000000  0.4471040000000  0.5239670000000 1.0
C      1  0.5663230000000  0.5018900000000  0.4438730000000 1.0
C      1  0.6087480000000  0.5250260000000  0.5115450000000 1.0
C      1  0.5916970000000  0.4821090000000  0.5014570000000 1.0
C      1  0.6003640000000  0.5089370000000  0.4889840000000 1.0
C      1  0.4639800000000  0.4127890000000  0.5286570000000 1.0
C      1  0.4656560000000  0.5198690000000  0.4097420000000 1.0
C      1  0.4680500000000  0.5692390000000  0.5623870000000 1.0
C      1  0.5730980000000  0.4524230000000  0.4667600000000 1.0
C      1  0.5755140000000  0.5493930000000  0.4764730000000 1.0
C      1  0.5787000000000  0.4894160000000  0.5522690000000 1.0
C      1  0.5666090000000  0.5281440000000  0.5722140000000 1.0
C      1  0.5623410000000  0.4205910000000  0.4869310000000 1.0
C      1  0.5655980000000  0.5476140000000  0.4393830000000 1.0
C      1  0.5323310000000  0.4347900000000  0.5603880000000 1.0
C      1  0.5326730000000  0.4786300000000  0.4138720000000 1.0
C      1  0.5352810000000  0.5841460000000  0.5246540000000 1.0
C      1  0.4804160000000  0.5696800000000  0.5123310000000 1.0
C      1  0.4778730000000  0.4550340000000  0.5545190000000 1.0
C      1  0.4776680000000  0.4761740000000  0.4341090000000 1.0
C      1  0.5247620000000  0.5566470000000  0.4198830000000 1.0
C      1  0.5259060000000  0.5403330000000  0.5897370000000 1.0
C      1  0.5209620000000  0.4008950000000  0.4894960000000 1.0
C      1  0.4614760000000  0.5628830000000  0.4621590000000 1.0
C      1  0.4607440000000  0.5027320000000  0.5739580000000 1.0
C      1  0.4583630000000  0.4366620000000  0.4654930000000 1.0
C      1  0.4139620000000  0.4783970000000  0.4938340000000 1.0
C      1  0.4149860000000  0.5196500000000  0.4837790000000 1.0
C      1  0.4149960000000  0.5076520000000  0.5248530000000 1.0
C      1  0.4714730000000  0.5155110000000  0.5272830000000 1.0
C      1  0.4699210000000  0.4697210000000  0.4998920000000 1.0
C      1  0.4712910000000  0.5161100000000  0.4740910000000 1.0
C      1  0.4530690000000  0.4609860000000  0.5945060000000 1.0
C      1  0.4510320000000  0.4398350000000  0.4190430000000 1.0
C      1  0.4551300000000  0.6017960000000  0.4881420000000 1.0
C      1  0.4288890000000  0.5614300000000  0.5067050000000 1.0
C      1  0.4268900000000  0.4664220000000  0.5498440000000 1.0
C      1  0.4263870000000  0.4766890000000  0.4457680000000 1.0
C      1  0.4132160000000  0.5482270000000  0.4868790000000 1.0
C      1  0.4122160000000  0.4908340000000  0.5480580000000 1.0
C      1  0.4109430000000  0.4667780000000  0.4676140000000 1.0
C      1  0.5917870000000  0.4514970000000  0.5076720000000 1.0
C      1  0.5959820000000  0.5144670000000  0.4571050000000 1.0
C      1  0.5954620000000  0.5313380000000  0.5345120000000 1.0
C      1  0.5145750000000  0.5000240000000  0.4093980000000 1.0
C      1  0.5169630000000  0.5782330000000  0.5455510000000 1.0
C      1  0.5131640000000  0.4208440000000  0.5446890000000 1.0
C      1  0.4932120000000  0.5955830000000  0.4657340000000 1.0
C      1  0.4924130000000  0.4819300000000  0.6002720000000 1.0
C      1  0.4890580000000  0.4229430000000  0.4340680000000 1.0
C      1  0.4822980000000  0.4228060000000  0.5530020000000 1.0
C      1  0.4832270000000  0.4932050000000  0.4067950000000 1.0
C      1  0.4860150000000  0.5846960000000  0.5407390000000 1.0
C      1  0.5464410000000  0.5678090000000  0.4340680000000 1.0
C      1  0.5472520000000  0.5218310000000  0.5916340000000 1.0
C      1  0.5425960000000  0.4068850000000  0.4722560000000 1.0
C      1  0.4238940000000  0.5045480000000  0.4387540000000 1.0
C      1  0.4257450000000  0.5537380000000  0.5343310000000 1.0
C      1  0.4230610000000  0.4466100000000  0.5291760000000 1.0
C      1  0.4753240000000  0.3883830000000  0.4862350000000 1.0
C      1  0.4794770000000  0.5678790000000  0.4095100000000 1.0
C      1  0.4809530000000  0.5447550000000  0.6042990000000 1.0
C      1  0.4671760000000  0.6150600000000  0.5084840000000 1.0
C      1  0.4636030000000  0.4360010000000  0.5954010000000 1.0
C      1  0.4629310000000  0.4505760000000  0.3971450000000 1.0
C      1  0.5277550000000  0.4854010000000  0.5099200000000 1.0
C      1  0.5293340000000  0.4989350000000  0.4818710000000 1.0
C      1  0.5305190000000  0.5146700000000  0.5077890000000 1.0
C      1  0.5872710000000  0.4353230000000  0.4847510000000 1.0
C      1  0.5903400000000  0.5419860000000  0.4534520000000 1.0
C      1  0.5880530000000  0.5152260000000  0.5585460000000 1.0
C      1  0.5048530000000  0.4574770000000  0.4653210000000 1.0
C      1  0.5072970000000  0.5510100000000  0.4810710000000 1.0
C      1  0.5055910000000  0.4908960000000  0.5543730000000 1.0
C      1  0.5674070000000  0.4756060000000  0.4840600000000 1.0
C      1  0.5716110000000  0.5221590000000  0.4880500000000 1.0
C      1  0.5716910000000  0.4926120000000  0.5235220000000 1.0
C      1  0.4850400000000  0.5421120000000  0.4641800000000 1.0
C      1  0.4844070000000  0.5108650000000  0.5551840000000 1.0
C      1  0.4825660000000  0.4478740000000  0.4819340000000 1.0
C      1  0.4890930000000  0.5399830000000  0.5215620000000 1.0
C      1  0.4865070000000  0.4615530000000  0.5243010000000 1.0
C      1  0.4874120000000  0.4985200000000  0.4549650000000 1.0
C      1  0.4454730000000  0.4842940000000  0.4982200000000 1.0
C      1  0.4462660000000  0.5115480000000  0.4871390000000 1.0
C      1  0.4463130000000  0.5075670000000  0.5163730000000 1.0
C      1  0.5523910000000  0.5241700000000  0.4319370000000 1.0
C      1  0.5533530000000  0.5461000000000  0.5555760000000 1.0
C      1  0.5493190000000  0.4260410000000  0.5111410000000 1.0
C      1  0.5095170000000  0.4848670000000  0.4673230000000 1.0
C      1  0.5112900000000  0.5352970000000  0.5037490000000 1.0
C      1  0.5083140000000  0.4794900000000  0.5292310000000 1.0
C      1  0.4775780000000  0.6123770000000  0.5318930000000 1.0
C      1  0.4732880000000  0.4167570000000  0.5812400000000 1.0
C      1  0.4738090000000  0.4718270000000  0.3875290000000 1.0
C      1  0.4619510000000  0.4224670000000  0.4389100000000 1.0
C      1  0.4659790000000  0.5928180000000  0.4631800000000 1.0
C      1  0.4652550000000  0.4865720000000  0.5993880000000 1.0
C      1  0.5200220000000  0.4197050000000  0.5144450000000 1.0
C      1  0.5227160000000  0.5259350000000  0.4241430000000 1.0
C      1  0.5240550000000  0.5522320000000  0.5609320000000 1.0
C      1  0.4540460000000  0.5722850000000  0.4961690000000 1.0
C      1  0.4520690000000  0.4690270000000  0.5648740000000 1.0
C      1  0.4510670000000  0.4614420000000  0.4408110000000 1.0
C      1  0.5372460000000  0.5890540000000  0.4510530000000 1.0
C      1  0.5374320000000  0.4964710000000  0.6007120000000 1.0
C      1  0.5331620000000  0.4119920000000  0.4456910000000 1.0
C      1  0.4424040000000  0.4281120000000  0.5163490000000 1.0
C      1  0.4442790000000  0.5238830000000  0.4292360000000 1.0
C      1  0.4458100000000  0.5514210000000  0.5561050000000 1.0
C      1  0.5645480000000  0.5726890000000  0.4887380000000 1.0
C      1  0.5644970000000  0.4697650000000  0.5674320000000 1.0
C      1  0.5621220000000  0.4522910000000  0.4403680000000 1.0
C      1  0.5594570000000  0.5697500000000  0.5164890000000 1.0
C      1  0.5576420000000  0.4466430000000  0.5523120000000 1.0
C      1  0.5578600000000  0.4780430000000  0.4291370000000 1.0
C      1  0.5258630000000  0.5935560000000  0.4990750000000 1.0
C      1  0.5241950000000  0.4533690000000  0.5807550000000 1.0
C      1  0.5224030000000  0.4521480000000  0.4188980000000 1.0
C      1  0.5570620000000  0.5003700000000  0.4727640000000 1.0
C      1  0.5593910000000  0.5196250000000  0.5144580000000 1.0
C      1  0.5532320000000  0.4726000000000  0.5114610000000 1.0
C      1  0.5096190000000  0.5929320000000  0.4440020000000 1.0
C      1  0.5100210000000  0.5012710000000  0.6083800000000 1.0
C      1  0.5053570000000  0.4048450000000  0.4464240000000 1.0
C      1  0.4988600000000  0.3937540000000  0.4729220000000 1.0
C      1  0.5031990000000  0.5754860000000  0.4212060000000 1.0
C      1  0.5042620000000  0.5299910000000  0.6051650000000 1.0
C      1  0.4378170000000  0.4294130000000  0.4859810000000 1.0
C      1  0.4406260000000  0.5497250000000  0.4454880000000 1.0
C      1  0.4407170000000  0.5246780000000  0.5705260000000 1.0
END
