TITL C-175321-1923-8 20.9884723673461 125000 -252.698638577563 0 0 39 (C1) n - 1
REM
REM in /rds/project/t2_vol4/rds-t2-cs072/BORA/CARBON/from-Arr/AIRSS/Generating-Clusters/GAP-ML-2020/Higher-Symm/SD-CG/HFTN-CG
REM
REM
REM
REM
REM
REM ./C.cell (b20cbc046b6831c77cfcea5457e17084)
REM AIRSS Version 0.9.1 bugfix July 2018 build 013d7b7c2542+ Fri, 06 Jul 2018 19:26:36 +0100
REM compiler GCC version 9.3.0
REM options -cpp -mtune=generic -march=x86-64 -g -O0
REM seed -900984192 -640391528 -928404473 -738787948 2141358722 299140398 -1491442693 -2026861175 1188445005 -1669396439 448193580 1401123397 -1850638195 531459882 1076399629 -958576190 884304242 -128576317 -327040807 -1808066184 1104164140 1294819830 -1155845081 742101246 1080844245 -916669655 -72538908 991039131 1624960301 -130292597 875185062 -305242398 -9164871
REM
CELL 1.54180   50.00000   50.00000   50.00000   90.00000   90.00000   90.00000
LATT -1
SFAC C  
C      1  0.4650120000000  0.5154400000000  0.4966610000000 1.0
C      1  0.5200730000000  0.5341390000000  0.4846690000000 1.0
C      1  0.5156720000000  0.4744890000000  0.4852740000000 1.0
C      1  0.4614630000000  0.5022490000000  0.5216720000000 1.0
C      1  0.5307690000000  0.5221410000000  0.5088350000000 1.0
C      1  0.5103510000000  0.4722540000000  0.5124630000000 1.0
C      1  0.4416880000000  0.4774640000000  0.4638930000000 1.0
C      1  0.5006730000000  0.5611190000000  0.4490430000000 1.0
C      1  0.5640250000000  0.4656090000000  0.4637220000000 1.0
C      1  0.4417060000000  0.4579040000000  0.5555930000000 1.0
C      1  0.5112440000000  0.5668090000000  0.5342380000000 1.0
C      1  0.5405940000000  0.4559800000000  0.5566080000000 1.0
C      1  0.4314570000000  0.5070070000000  0.5202200000000 1.0
C      1  0.5557070000000  0.5360920000000  0.5024140000000 1.0
C      1  0.5076150000000  0.4430170000000  0.5086670000000 1.0
C      1  0.4328270000000  0.5204670000000  0.4974250000000 1.0
C      1  0.5453940000000  0.5504170000000  0.4825190000000 1.0
C      1  0.5130140000000  0.4448280000000  0.4832600000000 1.0
C      1  0.4303380000000  0.4520340000000  0.5327630000000 1.0
C      1  0.5073410000000  0.5820040000000  0.5132000000000 1.0
C      1  0.5570190000000  0.4496320000000  0.5363950000000 1.0
C      1  0.4319700000000  0.4630070000000  0.4827760000000 1.0
C      1  0.4988670000000  0.5835620000000  0.4625650000000 1.0
C      1  0.5693730000000  0.4548050000000  0.4867550000000 1.0
C      1  0.5176960000000  0.5169240000000  0.5329450000000 1.0
C      1  0.5064690000000  0.4889300000000  0.5376220000000 1.0
C      1  0.4761940000000  0.4900990000000  0.5423280000000 1.0
C      1  0.5074100000000  0.5171310000000  0.4636840000000 1.0
C      1  0.5236770000000  0.4912820000000  0.4636190000000 1.0
C      1  0.4777620000000  0.5102870000000  0.4720840000000 1.0
C      1  0.5059580000000  0.5373820000000  0.4411030000000 1.0
C      1  0.5472380000000  0.4817180000000  0.4520870000000 1.0
C      1  0.4603940000000  0.4938800000000  0.4587560000000 1.0
C      1  0.5121190000000  0.5424150000000  0.5416610000000 1.0
C      1  0.5207840000000  0.4715160000000  0.5581240000000 1.0
C      1  0.4623460000000  0.4728650000000  0.5587200000000 1.0
C      1  0.5028840000000  0.5861200000000  0.4884180000000 1.0
C      1  0.4293100000000  0.4566970000000  0.5075320000000 1.0
C      1  0.5655690000000  0.4502850000000  0.5122570000000 1.0
END
