TITL C-170989-826-6 0.0182510835096275 125000 -94.4715491760926 0 0 15 (C5v) n - 1
REM
REM in /rds/project/t2_vol4/rds-t2-cs072/BORA/CARBON/from-Arr/AIRSS/Generating-Clusters/GAP-ML-2020/Higher-Symm/SD-CG/HFTN-CG
REM
REM
REM
REM
REM
REM ./C.cell (b20cbc046b6831c77cfcea5457e17084)
REM AIRSS Version 0.9.1 bugfix July 2018 build 013d7b7c2542+ Fri, 06 Jul 2018 19:26:36 +0100
REM compiler GCC version 9.3.0
REM options -cpp -mtune=generic -march=x86-64 -g -O0
REM seed 564589712 -1959767854 1705380370 -1349706642 -618067136 620988379 -1112031622 1405256345 1510594954 -2052115469 183462951 -1405557990 -1726969179 -799330723 1258766134 1950875274 -1714222476 317044933 1516106671 1654371779 -793470865 1957155130 2069737755 -426065455 -1710309416 1744243253 2020402189 187382265 -1190869163 -954924503 1554418931 -261939798 -233327504
REM
CELL 1.54180   50.00000   50.00000   50.00000   90.00000   90.00000   90.00000
LATT -1
SFAC C  
C      1  0.5244290000000  0.5106600000000  0.5001430000000 1.0
C      1  0.5069090000000  0.5120760000000  0.5227340000000 1.0
C      1  0.4799690000000  0.5117640000000  0.5130690000000 1.0
C      1  0.4808380000000  0.5101540000000  0.4845040000000 1.0
C      1  0.5083160000000  0.5094710000000  0.4765150000000 1.0
C      1  0.4599180000000  0.5040670000000  0.4686620000000 1.0
C      1  0.5171860000000  0.5026450000000  0.4520120000000 1.0
C      1  0.5507680000000  0.5051210000000  0.5012560000000 1.0
C      1  0.5142550000000  0.5080730000000  0.5483410000000 1.0
C      1  0.4581060000000  0.5074220000000  0.5281960000000 1.0
C      1  0.5213040000000  0.4801800000000  0.4412600000000 1.0
C      1  0.5633190000000  0.4832780000000  0.5028690000000 1.0
C      1  0.5176370000000  0.4869720000000  0.5617760000000 1.0
C      1  0.4473900000000  0.4861570000000  0.5365730000000 1.0
C      1  0.4496560000000  0.4819600000000  0.4620900000000 1.0
END
