TITL C-175323-1881-3 252.482437323477 125000 -844.444828365559 0 0 123 (C3) n - 1
REM
REM in /rds/project/t2_vol4/rds-t2-cs072/BORA/CARBON/from-Arr/AIRSS/Generating-Clusters/GAP-ML-2020/Higher-Symm/SD-CG/HFTN-CG
REM
REM
REM
REM
REM
REM ./C.cell (b20cbc046b6831c77cfcea5457e17084)
REM AIRSS Version 0.9.1 bugfix July 2018 build 013d7b7c2542+ Fri, 06 Jul 2018 19:26:36 +0100
REM compiler GCC version 9.3.0
REM options -cpp -mtune=generic -march=x86-64 -g -O0
REM seed -1761440068 -1256205430 -1574179419 -829952750 -1832479568 1885465749 -788986569 -1894914316 2083410751 -444395556 98716636 -82724834 -1132033751 1372088102 -1851174265 -717080459 -1816566761 -23089935 1384590905 -675167839 -192541338 -71840762 -1848056942 2101104608 2083747091 -158730087 1204467940 -1804096379 -616755954 -1833835483 -2056690971 -1121624575 584825756
REM
CELL 1.54180   50.00000   50.00000   50.00000   90.00000   90.00000   90.00000
LATT -1
SFAC C  
C      1  0.3902130000000  0.4932200000000  0.4998240000000 1.0
C      1  0.5547800000000  0.4931850000000  0.5951410000000 1.0
C      1  0.5550430000000  0.4938470000000  0.4049660000000 1.0
C      1  0.5539960000000  0.4753170000000  0.5744850000000 1.0
C      1  0.5376480000000  0.4758400000000  0.4159060000000 1.0
C      1  0.4084880000000  0.4752820000000  0.5093530000000 1.0
C      1  0.5339650000000  0.5765400000000  0.5481840000000 1.0
C      1  0.5243090000000  0.5768750000000  0.4467750000000 1.0
C      1  0.4413130000000  0.5765210000000  0.5058410000000 1.0
C      1  0.4779210000000  0.5392270000000  0.5717180000000 1.0
C      1  0.5729240000000  0.5397050000000  0.4834070000000 1.0
C      1  0.4489420000000  0.5396150000000  0.4452870000000 1.0
C      1  0.5257680000000  0.4790260000000  0.5349680000000 1.0
C      1  0.5175190000000  0.4792720000000  0.4601240000000 1.0
C      1  0.4568260000000  0.4790070000000  0.5046900000000 1.0
C      1  0.4299340000000  0.4654330000000  0.4900250000000 1.0
C      1  0.5265910000000  0.4653440000000  0.5655400000000 1.0
C      1  0.5436600000000  0.4657970000000  0.4440750000000 1.0
C      1  0.5358250000000  0.4255660000000  0.5440600000000 1.0
C      1  0.5206690000000  0.4258780000000  0.4466730000000 1.0
C      1  0.4439070000000  0.4255240000000  0.5084910000000 1.0
C      1  0.4566820000000  0.4912610000000  0.5711870000000 1.0
C      1  0.5833570000000  0.4917300000000  0.5018900000000 1.0
C      1  0.4600060000000  0.4917700000000  0.4268350000000 1.0
C      1  0.4751150000000  0.5135390000000  0.4818810000000 1.0
C      1  0.4966730000000  0.5134080000000  0.5306590000000 1.0
C      1  0.5281380000000  0.5136150000000  0.4876010000000 1.0
C      1  0.5350020000000  0.4656250000000  0.5079000000000 1.0
C      1  0.4895370000000  0.4656900000000  0.4656120000000 1.0
C      1  0.4756470000000  0.4654550000000  0.5261300000000 1.0
C      1  0.5893320000000  0.4478570000000  0.4708330000000 1.0
C      1  0.4303730000000  0.4476890000000  0.4370280000000 1.0
C      1  0.4805770000000  0.4472410000000  0.5915920000000 1.0
C      1  0.4594030000000  0.4444370000000  0.5450310000000 1.0
C      1  0.5596130000000  0.4447310000000  0.5124400000000 1.0
C      1  0.4812830000000  0.4448360000000  0.4419510000000 1.0
C      1  0.5230800000000  0.5218540000000  0.5155340000000 1.0
C      1  0.5017880000000  0.5219670000000  0.4723250000000 1.0
C      1  0.4750130000000  0.5217790000000  0.5123690000000 1.0
C      1  0.4727460000000  0.5782690000000  0.5075330000000 1.0
C      1  0.5197030000000  0.5783100000000  0.5201230000000 1.0
C      1  0.5071280000000  0.5784510000000  0.4731620000000 1.0
C      1  0.5671560000000  0.4303960000000  0.4680450000000 1.0
C      1  0.4391470000000  0.4302020000000  0.4575630000000 1.0
C      1  0.4940740000000  0.4298960000000  0.5736630000000 1.0
C      1  0.4960900000000  0.4844360000000  0.5385500000000 1.0
C      1  0.5354280000000  0.4846970000000  0.4840550000000 1.0
C      1  0.4685650000000  0.4846000000000  0.4772350000000 1.0
C      1  0.5205660000000  0.5534960000000  0.4297110000000 1.0
C      1  0.4285400000000  0.5530250000000  0.5175290000000 1.0
C      1  0.5506070000000  0.5531200000000  0.5533150000000 1.0
C      1  0.5687680000000  0.4695990000000  0.5504260000000 1.0
C      1  0.5094600000000  0.4699640000000  0.4151210000000 1.0
C      1  0.4219360000000  0.4693920000000  0.5341360000000 1.0
C      1  0.5284320000000  0.4161740000000  0.4953590000000 1.0
C      1  0.4822440000000  0.4161530000000  0.4773910000000 1.0
C      1  0.4897770000000  0.4159960000000  0.5263750000000 1.0
C      1  0.5208260000000  0.4371180000000  0.5645480000000 1.0
C      1  0.5458450000000  0.4375640000000  0.4494600000000 1.0
C      1  0.4336660000000  0.4372370000000  0.4853370000000 1.0
C      1  0.5651270000000  0.5080790000000  0.4519120000000 1.0
C      1  0.4257450000000  0.5077730000000  0.4676710000000 1.0
C      1  0.5090850000000  0.5075310000000  0.5804990000000 1.0
C      1  0.5405500000000  0.5061310000000  0.5353880000000 1.0
C      1  0.5103360000000  0.5063830000000  0.4472110000000 1.0
C      1  0.4490800000000  0.5060280000000  0.5174650000000 1.0
C      1  0.4699600000000  0.4119810000000  0.5052650000000 1.0
C      1  0.5200830000000  0.4120090000000  0.5230610000000 1.0
C      1  0.5104320000000  0.4121740000000  0.4707560000000 1.0
C      1  0.4837990000000  0.5502590000000  0.5063540000000 1.0
C      1  0.5133140000000  0.5502960000000  0.5110370000000 1.0
C      1  0.5026120000000  0.5503740000000  0.4831340000000 1.0
C      1  0.5532660000000  0.5849460000000  0.4811280000000 1.0
C      1  0.4565390000000  0.5848330000000  0.4636170000000 1.0
C      1  0.4897380000000  0.5845700000000  0.5561400000000 1.0
C      1  0.5047680000000  0.4431160000000  0.4274700000000 1.0
C      1  0.4351300000000  0.4426270000000  0.5319260000000 1.0
C      1  0.5604110000000  0.4428240000000  0.5400070000000 1.0
C      1  0.4934210000000  0.4438180000000  0.4843140000000 1.0
C      1  0.4900260000000  0.4437110000000  0.5133350000000 1.0
C      1  0.5168570000000  0.4438000000000  0.5017650000000 1.0
C      1  0.5740580000000  0.5492450000000  0.5374350000000 1.0
C      1  0.4951090000000  0.5495210000000  0.4173280000000 1.0
C      1  0.4305680000000  0.5489580000000  0.5457510000000 1.0
C      1  0.4745650000000  0.5691780000000  0.4188790000000 1.0
C      1  0.4420710000000  0.5686190000000  0.5628390000000 1.0
C      1  0.5829940000000  0.5690250000000  0.5190010000000 1.0
C      1  0.5369110000000  0.5112370000000  0.5848050000000 1.0
C      1  0.5549230000000  0.5118230000000  0.4256740000000 1.0
C      1  0.4081040000000  0.5113370000000  0.4896400000000 1.0
C      1  0.4568650000000  0.5198750000000  0.5746680000000 1.0
C      1  0.5861180000000  0.5203670000000  0.5000970000000 1.0
C      1  0.4569090000000  0.5203950000000  0.4254460000000 1.0
C      1  0.4768330000000  0.4725770000000  0.5831960000000 1.0
C      1  0.5837880000000  0.4731350000000  0.4783660000000 1.0
C      1  0.4395250000000  0.4730150000000  0.4381550000000 1.0
C      1  0.5498520000000  0.5277760000000  0.4683650000000 1.0
C      1  0.4475190000000  0.5275760000000  0.4727450000000 1.0
C      1  0.5024800000000  0.5273740000000  0.5591780000000 1.0
C      1  0.4661630000000  0.4235850000000  0.4546550000000 1.0
C      1  0.4780860000000  0.4232690000000  0.5516960000000 1.0
C      1  0.5561640000000  0.4236140000000  0.4928500000000 1.0
C      1  0.5015140000000  0.4821290000000  0.5713030000000 1.0
C      1  0.5610940000000  0.4826130000000  0.4629730000000 1.0
C      1  0.4374870000000  0.4823820000000  0.4655400000000 1.0
C      1  0.5703570000000  0.4947340000000  0.5301950000000 1.0
C      1  0.4910010000000  0.4949610000000  0.4239530000000 1.0
C      1  0.4386700000000  0.4944420000000  0.5457970000000 1.0
C      1  0.4798720000000  0.5879000000000  0.4796780000000 1.0
C      1  0.4919620000000  0.5877550000000  0.5279140000000 1.0
C      1  0.5276910000000  0.5879390000000  0.4933260000000 1.0
C      1  0.4575760000000  0.5665190000000  0.4403330000000 1.0
C      1  0.4691600000000  0.5661000000000  0.5668170000000 1.0
C      1  0.5729070000000  0.5665410000000  0.4935440000000 1.0
C      1  0.5488820000000  0.5869540000000  0.4532460000000 1.0
C      1  0.4345730000000  0.5866510000000  0.4813610000000 1.0
C      1  0.5160770000000  0.5865020000000  0.5662980000000 1.0
C      1  0.4344670000000  0.5232340000000  0.5570670000000 1.0
C      1  0.5820550000000  0.5235990000000  0.5283060000000 1.0
C      1  0.4833520000000  0.5238170000000  0.4148720000000 1.0
C      1  0.4302070000000  0.5271520000000  0.5028470000000 1.0
C      1  0.5372070000000  0.5271490000000  0.5591190000000 1.0
C      1  0.5324400000000  0.5275610000000  0.4383190000000 1.0
END
