TITL C-175313-9342-1 -0.0223288789101059 125000 -224.003181929404 0 0 32 (Oh) n - 1
REM
REM in /rds/project/t2_vol4/rds-t2-cs072/BORA/CARBON/from-Arr/AIRSS/Generating-Clusters/GAP-ML-2020/Higher-Symm/SD-CG/HFTN-CG
REM
REM
REM
REM
REM
REM ./C.cell (b20cbc046b6831c77cfcea5457e17084)
REM AIRSS Version 0.9.1 bugfix July 2018 build 013d7b7c2542+ Fri, 06 Jul 2018 19:26:36 +0100
REM compiler GCC version 9.3.0
REM options -cpp -mtune=generic -march=x86-64 -g -O0
REM seed 1379269086 1390599958 -1323422724 1585176859 560135382 -1196531690 -978835660 -713261178 -1963161770 1444609696 607990454 408956301 -416624934 445516994 368993347 -2124826386 418538025 -2128068262 458964755 1906581175 1050561682 -1582963047 -396338907 -2108405455 1828261118 480631072 1394008136 1350548890 -1191834041 -945088342 -110621310 -1704481268 -250271124
REM
CELL 1.54180   50.00000   50.00000   50.00000   90.00000   90.00000   90.00000
LATT -1
SFAC C  
C      1  0.4854170000000  0.5150600000000  0.5496210000000 1.0
C      1  0.5492840000000  0.4856130000000  0.5152000000000 1.0
C      1  0.5148640000000  0.5494810000000  0.4857540000000 1.0
C      1  0.5148630000000  0.4856130000000  0.5496210000000 1.0
C      1  0.5148640000000  0.5150600000000  0.4513320000000 1.0
C      1  0.4854170000000  0.4856130000000  0.4513320000000 1.0
C      1  0.4509960000000  0.5150600000000  0.5152000000000 1.0
C      1  0.4509960000000  0.4856130000000  0.4857530000000 1.0
C      1  0.5492850000000  0.5150590000000  0.4857530000000 1.0
C      1  0.4854170000000  0.4511920000000  0.4857530000000 1.0
C      1  0.4854170000000  0.5494810000000  0.5152000000000 1.0
C      1  0.5148630000000  0.4511920000000  0.5152000000000 1.0
C      1  0.4854170000000  0.5150600000000  0.4513320000000 1.0
C      1  0.5492840000000  0.4856130000000  0.4857530000000 1.0
C      1  0.5148640000000  0.5494800000000  0.5152000000000 1.0
C      1  0.5148640000000  0.4856130000000  0.4513320000000 1.0
C      1  0.5148640000000  0.5150590000000  0.5496210000000 1.0
C      1  0.4854170000000  0.4856130000000  0.5496210000000 1.0
C      1  0.4509960000000  0.5150600000000  0.4857530000000 1.0
C      1  0.4509960000000  0.4856130000000  0.5152000000000 1.0
C      1  0.5492850000000  0.5150590000000  0.5152000000000 1.0
C      1  0.4854170000000  0.4511920000000  0.5152000000000 1.0
C      1  0.4854170000000  0.5494810000000  0.4857540000000 1.0
C      1  0.5148630000000  0.4511920000000  0.4857530000000 1.0
C      1  0.4705550000000  0.5299220000000  0.4708910000000 1.0
C      1  0.5297260000000  0.4707510000000  0.4708910000000 1.0
C      1  0.4705540000000  0.4707510000000  0.5300620000000 1.0
C      1  0.5297260000000  0.5299220000000  0.4708910000000 1.0
C      1  0.4705550000000  0.5299220000000  0.5300620000000 1.0
C      1  0.5297260000000  0.4707500000000  0.5300620000000 1.0
C      1  0.5297260000000  0.5299220000000  0.5300630000000 1.0
C      1  0.4705540000000  0.4707510000000  0.4708910000000 1.0
END
