TITL C-175339-9387-9 69.692788730642 125000 -437.459254532523 0 0 64 (Ci) n - 1
REM
REM in /rds/project/t2_vol4/rds-t2-cs072/BORA/CARBON/from-Arr/AIRSS/Generating-Clusters/GAP-ML-2020/Higher-Symm/SD-CG/HFTN-CG
REM
REM
REM
REM
REM
REM ./C.cell (b20cbc046b6831c77cfcea5457e17084)
REM AIRSS Version 0.9.1 bugfix July 2018 build 013d7b7c2542+ Fri, 06 Jul 2018 19:26:36 +0100
REM compiler GCC version 9.3.0
REM options -cpp -mtune=generic -march=x86-64 -g -O0
REM seed -790969482 -806446208 -1216426290 -802239421 509860548 -1140669651 -281510819 487385437 2054778096 1675970885 93294314 138078917 1967301038 503413738 494706 -1864494084 534941031 1136313600 1721683751 1736078564 282784681 247190033 -143643286 -1231529708 -381113264 1894787423 -71599508 810620185 -1818845676 1641558013 615711955 -380977929 -1360923018
REM
CELL 1.54180   50.00000   50.00000   50.00000   90.00000   90.00000   90.00000
LATT -1
SFAC C  
C      1  0.4409210000000  0.5456530000000  0.4704950000000 1.0
C      1  0.4431420000000  0.4505860000000  0.5426610000000 1.0
C      1  0.5568580000000  0.5494140000000  0.4573390000000 1.0
C      1  0.5590790000000  0.4543470000000  0.5295060000000 1.0
C      1  0.5705960000000  0.4698580000000  0.5075980000000 1.0
C      1  0.5723890000000  0.5255220000000  0.4596770000000 1.0
C      1  0.4276110000000  0.4744780000000  0.5403230000000 1.0
C      1  0.4294040000000  0.5301420000000  0.4924020000000 1.0
C      1  0.5241830000000  0.5281250000000  0.5429830000000 1.0
C      1  0.5246630000000  0.4734430000000  0.4594510000000 1.0
C      1  0.4753370000000  0.5265570000000  0.5405490000000 1.0
C      1  0.4758170000000  0.4718750000000  0.4570170000000 1.0
C      1  0.4193460000000  0.5203690000000  0.5152280000000 1.0
C      1  0.4238750000000  0.4917600000000  0.5177220000000 1.0
C      1  0.5761250000000  0.5082400000000  0.4822780000000 1.0
C      1  0.5806540000000  0.4796310000000  0.4847720000000 1.0
C      1  0.4849180000000  0.4922980000000  0.4391180000000 1.0
C      1  0.4861110000000  0.5069710000000  0.5601380000000 1.0
C      1  0.5138890000000  0.4930290000000  0.4398620000000 1.0
C      1  0.5150820000000  0.5077020000000  0.5608820000000 1.0
C      1  0.4838360000000  0.4819220000000  0.4852040000000 1.0
C      1  0.4863460000000  0.5214710000000  0.5125300000000 1.0
C      1  0.5136540000000  0.4785290000000  0.4874700000000 1.0
C      1  0.5161640000000  0.5180780000000  0.5147960000000 1.0
C      1  0.4478490000000  0.4723540000000  0.5595120000000 1.0
C      1  0.4470080000000  0.5207360000000  0.4549990000000 1.0
C      1  0.5529920000000  0.4792640000000  0.5450010000000 1.0
C      1  0.5521510000000  0.5276460000000  0.4404880000000 1.0
C      1  0.5321400000000  0.4231660000000  0.5002930000000 1.0
C      1  0.5328050000000  0.5611250000000  0.4991290000000 1.0
C      1  0.4671950000000  0.4388750000000  0.5008710000000 1.0
C      1  0.4678600000000  0.5768340000000  0.4997070000000 1.0
C      1  0.4626010000000  0.5645360000000  0.4746590000000 1.0
C      1  0.4652720000000  0.4363080000000  0.5299730000000 1.0
C      1  0.5347280000000  0.5636920000000  0.4700270000000 1.0
C      1  0.5373990000000  0.4354640000000  0.5253410000000 1.0
C      1  0.4892650000000  0.4588280000000  0.5687120000000 1.0
C      1  0.4822650000000  0.5404200000000  0.4344260000000 1.0
C      1  0.5177350000000  0.4595800000000  0.5655740000000 1.0
C      1  0.5107350000000  0.5411720000000  0.4312880000000 1.0
C      1  0.5125260000000  0.5616200000000  0.4522150000000 1.0
C      1  0.5168330000000  0.4387010000000  0.5453970000000 1.0
C      1  0.4831670000000  0.5612990000000  0.4546030000000 1.0
C      1  0.4874740000000  0.4383800000000  0.5477850000000 1.0
C      1  0.5144380000000  0.5701250000000  0.5199080000000 1.0
C      1  0.5154180000000  0.4270250000000  0.4797090000000 1.0
C      1  0.4845820000000  0.5729750000000  0.5202910000000 1.0
C      1  0.4855620000000  0.4298750000000  0.4800920000000 1.0
C      1  0.5622110000000  0.5174630000000  0.5057640000000 1.0
C      1  0.5539470000000  0.4934160000000  0.5198390000000 1.0
C      1  0.4460530000000  0.5065840000000  0.4801610000000 1.0
C      1  0.4377890000000  0.4825370000000  0.4942360000000 1.0
C      1  0.5313270000000  0.4834860000000  0.5626770000000 1.0
C      1  0.5266880000000  0.5178520000000  0.4320820000000 1.0
C      1  0.4733120000000  0.4821480000000  0.5679180000000 1.0
C      1  0.4686730000000  0.5165140000000  0.4373230000000 1.0
C      1  0.5399660000000  0.5345130000000  0.5059860000000 1.0
C      1  0.5242590000000  0.4912380000000  0.5093060000000 1.0
C      1  0.4757410000000  0.5087620000000  0.4906940000000 1.0
C      1  0.4600340000000  0.4654870000000  0.4940140000000 1.0
C      1  0.4866550000000  0.4456060000000  0.4556800000000 1.0
C      1  0.4845240000000  0.5542130000000  0.5445260000000 1.0
C      1  0.5154760000000  0.4457880000000  0.4554740000000 1.0
C      1  0.5133450000000  0.5543940000000  0.5443200000000 1.0
END
