TITL C-175322-9399-6 -0.0413932255731726 125000 -578.341663773649 0 0 82 (C1) n - 1
REM
REM in /rds/project/t2_vol4/rds-t2-cs072/BORA/CARBON/from-Arr/AIRSS/Generating-Clusters/GAP-ML-2020/Higher-Symm/SD-CG/HFTN-CG
REM
REM
REM
REM
REM
REM ./C.cell (b20cbc046b6831c77cfcea5457e17084)
REM AIRSS Version 0.9.1 bugfix July 2018 build 013d7b7c2542+ Fri, 06 Jul 2018 19:26:36 +0100
REM compiler GCC version 9.3.0
REM options -cpp -mtune=generic -march=x86-64 -g -O0
REM seed 1429394909 -890242855 -1760885524 578055288 -514513064 -1589295754 -553605598 -1313520243 -853811679 1860594889 -729728175 893850825 379271968 291924028 573997703 459117058 843788906 -1469309986 698516438 779856551 -1163453902 5134819 -549101154 -1321517528 825578032 -262616610 -587882001 508916705 1218588604 -251552797 -1835791370 -492092882 1829321677
REM
CELL 1.54180   50.00000   50.00000   50.00000   90.00000   90.00000   90.00000
LATT -1
SFAC C  
C      1  0.5177590000000  0.4150360000000  0.4993110000000 1.0
C      1  0.4897060000000  0.4143720000000  0.5064060000000 1.0
C      1  0.4847620000000  0.5266450000000  0.4895160000000 1.0
C      1  0.5110850000000  0.5298300000000  0.5052340000000 1.0
C      1  0.4955210000000  0.5542160000000  0.4372470000000 1.0
C      1  0.4992000000000  0.5577110000000  0.5587830000000 1.0
C      1  0.5706020000000  0.5156160000000  0.4665410000000 1.0
C      1  0.4283520000000  0.5120230000000  0.5324520000000 1.0
C      1  0.4513350000000  0.4360320000000  0.4874230000000 1.0
C      1  0.5538320000000  0.4410750000000  0.5171210000000 1.0
C      1  0.5533190000000  0.5171070000000  0.4446950000000 1.0
C      1  0.4455580000000  0.5164320000000  0.5539100000000 1.0
C      1  0.4218080000000  0.5175670000000  0.4878400000000 1.0
C      1  0.5766200000000  0.5244590000000  0.5105530000000 1.0
C      1  0.4615550000000  0.4882800000000  0.4374600000000 1.0
C      1  0.5391680000000  0.4951430000000  0.5647820000000 1.0
C      1  0.5692370000000  0.5371180000000  0.4863680000000 1.0
C      1  0.4279510000000  0.5321490000000  0.5111540000000 1.0
C      1  0.4668800000000  0.4604300000000  0.4448880000000 1.0
C      1  0.5362600000000  0.4665210000000  0.5584820000000 1.0
C      1  0.4607340000000  0.5596980000000  0.5332760000000 1.0
C      1  0.5340040000000  0.5599260000000  0.4625270000000 1.0
C      1  0.4201600000000  0.4893060000000  0.4931280000000 1.0
C      1  0.5803670000000  0.4961820000000  0.5074370000000 1.0
C      1  0.5613060000000  0.5048030000000  0.5492170000000 1.0
C      1  0.4380520000000  0.4966860000000  0.4510600000000 1.0
C      1  0.4893620000000  0.5134890000000  0.5743290000000 1.0
C      1  0.5099620000000  0.5100080000000  0.4249290000000 1.0
C      1  0.5632760000000  0.5300400000000  0.5351100000000 1.0
C      1  0.4344960000000  0.5227490000000  0.4628100000000 1.0
C      1  0.5056750000000  0.5668630000000  0.4612930000000 1.0
C      1  0.4883510000000  0.5688740000000  0.5339130000000 1.0
C      1  0.4718790000000  0.5385650000000  0.4385310000000 1.0
C      1  0.5217210000000  0.5404980000000  0.5546790000000 1.0
C      1  0.4996620000000  0.4750010000000  0.4726120000000 1.0
C      1  0.5034870000000  0.4781020000000  0.5299340000000 1.0
C      1  0.4900040000000  0.5707570000000  0.4845990000000 1.0
C      1  0.5037960000000  0.5720050000000  0.5103430000000 1.0
C      1  0.5573550000000  0.4600340000000  0.5382800000000 1.0
C      1  0.4459210000000  0.4530860000000  0.4649770000000 1.0
C      1  0.4756160000000  0.5036660000000  0.5041170000000 1.0
C      1  0.5243330000000  0.5060740000000  0.4954930000000 1.0
C      1  0.5149560000000  0.4604120000000  0.4935370000000 1.0
C      1  0.4898710000000  0.4598940000000  0.5106750000000 1.0
C      1  0.4475110000000  0.5533470000000  0.5091500000000 1.0
C      1  0.5483130000000  0.5570930000000  0.4867490000000 1.0
C      1  0.4651070000000  0.5532610000000  0.4851520000000 1.0
C      1  0.5306220000000  0.5575890000000  0.5103200000000 1.0
C      1  0.4866400000000  0.5019400000000  0.5318980000000 1.0
C      1  0.5148480000000  0.4994660000000  0.4685210000000 1.0
C      1  0.5608660000000  0.4666040000000  0.4700460000000 1.0
C      1  0.4421070000000  0.4638600000000  0.5323250000000 1.0
C      1  0.4255380000000  0.4854330000000  0.5216190000000 1.0
C      1  0.5753670000000  0.4901380000000  0.4792870000000 1.0
C      1  0.5539150000000  0.4448470000000  0.4876080000000 1.0
C      1  0.4508590000000  0.4414780000000  0.5165010000000 1.0
C      1  0.5330860000000  0.4234230000000  0.5205250000000 1.0
C      1  0.4737130000000  0.4202150000000  0.4848900000000 1.0
C      1  0.5413690000000  0.4672150000000  0.4481340000000 1.0
C      1  0.4616130000000  0.4677290000000  0.5538800000000 1.0
C      1  0.4771180000000  0.4790110000000  0.4916510000000 1.0
C      1  0.5255030000000  0.4830100000000  0.5107440000000 1.0
C      1  0.5396600000000  0.5417680000000  0.4409440000000 1.0
C      1  0.4568370000000  0.5421760000000  0.5561480000000 1.0
C      1  0.5287350000000  0.4335410000000  0.4778830000000 1.0
C      1  0.4773370000000  0.4335950000000  0.5266430000000 1.0
C      1  0.4289940000000  0.4759710000000  0.4690880000000 1.0
C      1  0.5719770000000  0.4840100000000  0.5324610000000 1.0
C      1  0.4938800000000  0.5173940000000  0.4641370000000 1.0
C      1  0.5030910000000  0.5249850000000  0.5317980000000 1.0
C      1  0.5160930000000  0.5372790000000  0.4265370000000 1.0
C      1  0.4804340000000  0.5401870000000  0.5709330000000 1.0
C      1  0.4827110000000  0.4475740000000  0.5528770000000 1.0
C      1  0.5218220000000  0.4456200000000  0.4510170000000 1.0
C      1  0.4947480000000  0.4560890000000  0.4504510000000 1.0
C      1  0.5088850000000  0.4604510000000  0.5532510000000 1.0
C      1  0.5188840000000  0.5144830000000  0.5699530000000 1.0
C      1  0.4808410000000  0.5100220000000  0.4345440000000 1.0
C      1  0.5424720000000  0.5484600000000  0.5361110000000 1.0
C      1  0.4530340000000  0.5434400000000  0.4592570000000 1.0
C      1  0.5324590000000  0.4957780000000  0.4416780000000 1.0
C      1  0.4681570000000  0.4970390000000  0.5583150000000 1.0
END
