TITL C-175342-9418-2 -529.45951852866 125000 -752.988372493792 0 0 106 (C1) n - 1
REM
REM in /rds/project/t2_vol4/rds-t2-cs072/BORA/CARBON/from-Arr/AIRSS/Generating-Clusters/GAP-ML-2020/Higher-Symm/SD-CG/HFTN-CG
REM
REM
REM
REM
REM
REM ./C.cell (b20cbc046b6831c77cfcea5457e17084)
REM AIRSS Version 0.9.1 bugfix July 2018 build 013d7b7c2542+ Fri, 06 Jul 2018 19:26:36 +0100
REM compiler GCC version 9.3.0
REM options -cpp -mtune=generic -march=x86-64 -g -O0
REM seed 882706351 1802975171 559615177 -1757544040 790991342 -271343359 964205536 1038799382 836641469 -1210562296 1525471416 -1692898545 1129236584 1045597178 -7520469 85164762 -1246650091 426932012 1986519430 -232014888 -528449523 -1646402814 -153439300 -1693388528 984893743 -2130583044 660353378 -979726723 431129518 2724582 -1259706257 2059126845 197588803
REM
CELL 1.54180   50.00000   50.00000   50.00000   90.00000   90.00000   90.00000
LATT -1
SFAC C  
C      1  0.4273420000000  0.4615390000000  0.4530560000000 1.0
C      1  0.4903790000000  0.4631110000000  0.4141670000000 1.0
C      1  0.5591630000000  0.4636130000000  0.4386130000000 1.0
C      1  0.5851290000000  0.4633100000000  0.5079790000000 1.0
C      1  0.5460440000000  0.4650420000000  0.5709650000000 1.0
C      1  0.4729840000000  0.4646960000000  0.5793890000000 1.0
C      1  0.4197310000000  0.4641030000000  0.5277030000000 1.0
C      1  0.4631780000000  0.4656630000000  0.4079090000000 1.0
C      1  0.5487370000000  0.4672520000000  0.4125560000000 1.0
C      1  0.5997430000000  0.4651450000000  0.4835250000000 1.0
C      1  0.5740760000000  0.4675440000000  0.5672510000000 1.0
C      1  0.4943380000000  0.4683740000000  0.5975520000000 1.0
C      1  0.4194440000000  0.4661960000000  0.5557860000000 1.0
C      1  0.4105100000000  0.4661440000000  0.4742060000000 1.0
C      1  0.5260800000000  0.5988620000000  0.5023170000000 1.0
C      1  0.5324430000000  0.5925020000000  0.5279180000000 1.0
C      1  0.4858270000000  0.5908610000000  0.5416750000000 1.0
C      1  0.4632820000000  0.5878490000000  0.5239450000000 1.0
C      1  0.4602170000000  0.5887710000000  0.4764360000000 1.0
C      1  0.4840900000000  0.5886650000000  0.4597480000000 1.0
C      1  0.5289470000000  0.5871200000000  0.4772890000000 1.0
C      1  0.5867340000000  0.4872200000000  0.5241080000000 1.0
C      1  0.5341140000000  0.4896840000000  0.5814080000000 1.0
C      1  0.4559260000000  0.4877600000000  0.5793980000000 1.0
C      1  0.4093160000000  0.4886540000000  0.5158370000000 1.0
C      1  0.4316130000000  0.4860850000000  0.4385110000000 1.0
C      1  0.5055420000000  0.4880090000000  0.4096020000000 1.0
C      1  0.5743140000000  0.4864920000000  0.4469920000000 1.0
C      1  0.5909200000000  0.4873700000000  0.4706130000000 1.0
C      1  0.5775960000000  0.4891150000000  0.5511270000000 1.0
C      1  0.5077300000000  0.4913210000000  0.5916740000000 1.0
C      1  0.4315180000000  0.4888680000000  0.5643680000000 1.0
C      1  0.4075640000000  0.4893380000000  0.4874690000000 1.0
C      1  0.4521840000000  0.4877510000000  0.4186290000000 1.0
C      1  0.5340770000000  0.4900680000000  0.4117990000000 1.0
C      1  0.4855050000000  0.5053050000000  0.5281630000000 1.0
C      1  0.4680240000000  0.5037420000000  0.5064710000000 1.0
C      1  0.4904730000000  0.4811780000000  0.4726690000000 1.0
C      1  0.5101750000000  0.4997390000000  0.4698860000000 1.0
C      1  0.5305330000000  0.5010200000000  0.4898190000000 1.0
C      1  0.5257580000000  0.4861100000000  0.5122600000000 1.0
C      1  0.5057690000000  0.4874400000000  0.5283520000000 1.0
C      1  0.4505000000000  0.5787520000000  0.5006900000000 1.0
C      1  0.4600620000000  0.5754550000000  0.4517830000000 1.0
C      1  0.5095100000000  0.5774480000000  0.4573200000000 1.0
C      1  0.5528440000000  0.5736500000000  0.4788160000000 1.0
C      1  0.5578600000000  0.5809710000000  0.5273360000000 1.0
C      1  0.5126360000000  0.5836040000000  0.5478380000000 1.0
C      1  0.4636790000000  0.5756750000000  0.5488550000000 1.0
C      1  0.5328730000000  0.4447260000000  0.5548760000000 1.0
C      1  0.4771330000000  0.4455940000000  0.5582120000000 1.0
C      1  0.4385620000000  0.4448570000000  0.5171730000000 1.0
C      1  0.4458280000000  0.4406640000000  0.4607980000000 1.0
C      1  0.4949460000000  0.4420390000000  0.4335730000000 1.0
C      1  0.5458910000000  0.4441890000000  0.4551190000000 1.0
C      1  0.5635410000000  0.4441900000000  0.5080410000000 1.0
C      1  0.4495600000000  0.5302540000000  0.5643320000000 1.0
C      1  0.4201100000000  0.5318980000000  0.5013510000000 1.0
C      1  0.4508930000000  0.5274420000000  0.4402940000000 1.0
C      1  0.5170060000000  0.5316200000000  0.4245090000000 1.0
C      1  0.5736080000000  0.5290640000000  0.4636970000000 1.0
C      1  0.5727320000000  0.5304300000000  0.5315130000000 1.0
C      1  0.5179270000000  0.5333520000000  0.5744460000000 1.0
C      1  0.4163740000000  0.5145560000000  0.5253750000000 1.0
C      1  0.4296290000000  0.5114750000000  0.4514360000000 1.0
C      1  0.4946820000000  0.5133290000000  0.4158010000000 1.0
C      1  0.5646260000000  0.5126680000000  0.4414930000000 1.0
C      1  0.5855840000000  0.5127230000000  0.5120680000000 1.0
C      1  0.5413810000000  0.5151370000000  0.5716190000000 1.0
C      1  0.4669290000000  0.5137430000000  0.5807560000000 1.0
C      1  0.5028990000000  0.4186460000000  0.5310260000000 1.0
C      1  0.4771450000000  0.4191730000000  0.5202890000000 1.0
C      1  0.4679080000000  0.4173090000000  0.4940010000000 1.0
C      1  0.4832130000000  0.4160180000000  0.4706010000000 1.0
C      1  0.5111250000000  0.4166220000000  0.4688100000000 1.0
C      1  0.5300180000000  0.4178590000000  0.4894040000000 1.0
C      1  0.5268660000000  0.4180700000000  0.5171090000000 1.0
C      1  0.4716050000000  0.4316320000000  0.4498900000000 1.0
C      1  0.5191470000000  0.4340040000000  0.4477380000000 1.0
C      1  0.5511430000000  0.4354910000000  0.4826440000000 1.0
C      1  0.5457350000000  0.4350410000000  0.5296810000000 1.0
C      1  0.5047250000000  0.4358530000000  0.5534430000000 1.0
C      1  0.4607540000000  0.4368080000000  0.5351510000000 1.0
C      1  0.4449170000000  0.4335280000000  0.4900890000000 1.0
C      1  0.5313320000000  0.5452330000000  0.5147640000000 1.0
C      1  0.5097090000000  0.5480620000000  0.5312390000000 1.0
C      1  0.4837010000000  0.5363960000000  0.5292620000000 1.0
C      1  0.4676830000000  0.5353610000000  0.5025290000000 1.0
C      1  0.4806590000000  0.5419280000000  0.4779450000000 1.0
C      1  0.5069760000000  0.5322760000000  0.4705210000000 1.0
C      1  0.5315430000000  0.5323230000000  0.4896080000000 1.0
C      1  0.5579030000000  0.5541940000000  0.5256090000000 1.0
C      1  0.5158320000000  0.5568290000000  0.5582220000000 1.0
C      1  0.4657300000000  0.5485190000000  0.5513510000000 1.0
C      1  0.4412530000000  0.5507950000000  0.5024640000000 1.0
C      1  0.4624680000000  0.5481950000000  0.4547780000000 1.0
C      1  0.5129370000000  0.5499700000000  0.4459970000000 1.0
C      1  0.5562610000000  0.5478660000000  0.4745380000000 1.0
C      1  0.5876710000000  0.5129850000000  0.4831590000000 1.0
C      1  0.5648310000000  0.5147220000000  0.5544290000000 1.0
C      1  0.4957260000000  0.5167720000000  0.5848120000000 1.0
C      1  0.4285160000000  0.5148890000000  0.5519160000000 1.0
C      1  0.4164900000000  0.5146320000000  0.4773670000000 1.0
C      1  0.4663230000000  0.5125770000000  0.4214770000000 1.0
C      1  0.5415160000000  0.5152420000000  0.4238180000000 1.0
C      1  0.4702640000000  0.4836360000000  0.4885160000000 1.0
END
