TITL C-175313-9342-8 304.221295895272 125000 -962.102838798677 0 0 139 (C1) n - 1
REM
REM in /rds/project/t2_vol4/rds-t2-cs072/BORA/CARBON/from-Arr/AIRSS/Generating-Clusters/GAP-ML-2020/Higher-Symm/SD-CG/HFTN-CG
REM
REM
REM
REM
REM
REM ./C.cell (b20cbc046b6831c77cfcea5457e17084)
REM AIRSS Version 0.9.1 bugfix July 2018 build 013d7b7c2542+ Fri, 06 Jul 2018 19:26:36 +0100
REM compiler GCC version 9.3.0
REM options -cpp -mtune=generic -march=x86-64 -g -O0
REM seed 896742618 1412378324 4847487 -2033007946 636118134 898175043 645912547 -1020544453 -977314471 -143650072 1586701587 1981138183 1593471893 248685744 1143984398 698975495 1691290337 -863941795 -1919890898 544908737 -1045292867 -1959631722 201831127 -1431258786 109830786 1770803115 -2089851095 356376027 1314609368 -1380931703 1612118785 -1376327399 -2091217227
REM
CELL 1.54180   50.00000   50.00000   50.00000   90.00000   90.00000   90.00000
LATT -1
SFAC C  
C      1  0.5644290000000  0.5043610000000  0.4421500000000 1.0
C      1  0.5630530000000  0.5479570000000  0.5310090000000 1.0
C      1  0.5641210000000  0.4483390000000  0.5269700000000 1.0
C      1  0.5620570000000  0.5015790000000  0.5575250000000 1.0
C      1  0.5633610000000  0.5504860000000  0.4693280000000 1.0
C      1  0.5637820000000  0.4470080000000  0.4732980000000 1.0
C      1  0.4549600000000  0.4987570000000  0.5284090000000 1.0
C      1  0.4552900000000  0.4762030000000  0.4851260000000 1.0
C      1  0.4550880000000  0.5249250000000  0.4872480000000 1.0
C      1  0.4650770000000  0.4999020000000  0.4744850000000 1.0
C      1  0.4644460000000  0.4773620000000  0.5134960000000 1.0
C      1  0.4645350000000  0.5225340000000  0.5132260000000 1.0
C      1  0.4481070000000  0.4301270000000  0.4799840000000 1.0
C      1  0.4478040000000  0.5524290000000  0.4498850000000 1.0
C      1  0.4476190000000  0.5174060000000  0.5708600000000 1.0
C      1  0.4494390000000  0.4341370000000  0.5330270000000 1.0
C      1  0.4494130000000  0.5611400000000  0.5407460000000 1.0
C      1  0.4500980000000  0.5045470000000  0.4273350000000 1.0
C      1  0.6069720000000  0.4986690000000  0.5283830000000 1.0
C      1  0.6084790000000  0.4748440000000  0.4840980000000 1.0
C      1  0.6073570000000  0.5247500000000  0.4860690000000 1.0
C      1  0.6086090000000  0.4995350000000  0.4706130000000 1.0
C      1  0.6078210000000  0.4748940000000  0.5137250000000 1.0
C      1  0.6072740000000  0.5243640000000  0.5140030000000 1.0
C      1  0.5321740000000  0.4145940000000  0.5350130000000 1.0
C      1  0.5325020000000  0.5131140000000  0.4093550000000 1.0
C      1  0.5321270000000  0.5721970000000  0.5567040000000 1.0
C      1  0.5280720000000  0.4173730000000  0.4657860000000 1.0
C      1  0.5278250000000  0.5111300000000  0.5888840000000 1.0
C      1  0.5278870000000  0.5718180000000  0.4461970000000 1.0
C      1  0.5539880000000  0.4518030000000  0.4444890000000 1.0
C      1  0.5537310000000  0.5738190000000  0.4864260000000 1.0
C      1  0.5532750000000  0.4753110000000  0.5700750000000 1.0
C      1  0.5552940000000  0.4505330000000  0.5564990000000 1.0
C      1  0.5548910000000  0.5727710000000  0.5147250000000 1.0
C      1  0.5554810000000  0.4767160000000  0.4306740000000 1.0
C      1  0.4133950000000  0.4744560000000  0.5190720000000 1.0
C      1  0.4135900000000  0.4962090000000  0.4686600000000 1.0
C      1  0.4133310000000  0.5290230000000  0.5127450000000 1.0
C      1  0.4251510000000  0.4735290000000  0.4855540000000 1.0
C      1  0.4248730000000  0.5004920000000  0.5303800000000 1.0
C      1  0.4250320000000  0.5257610000000  0.4846770000000 1.0
C      1  0.4995180000000  0.4517780000000  0.5275050000000 1.0
C      1  0.5001940000000  0.5007320000000  0.4453930000000 1.0
C      1  0.4993460000000  0.5476170000000  0.5282490000000 1.0
C      1  0.4971390000000  0.4551450000000  0.4719510000000 1.0
C      1  0.4964100000000  0.4978780000000  0.5535200000000 1.0
C      1  0.4963560000000  0.5475520000000  0.4753400000000 1.0
C      1  0.5057550000000  0.5762970000000  0.5175120000000 1.0
C      1  0.5058970000000  0.4468910000000  0.5576440000000 1.0
C      1  0.5064140000000  0.4770600000000  0.4259890000000 1.0
C      1  0.5037620000000  0.5759580000000  0.4877880000000 1.0
C      1  0.5042820000000  0.4515400000000  0.4412170000000 1.0
C      1  0.5036830000000  0.4728800000000  0.5720400000000 1.0
C      1  0.4733690000000  0.5393960000000  0.5345550000000 1.0
C      1  0.4735510000000  0.4505360000000  0.5172400000000 1.0
C      1  0.4740530000000  0.5101240000000  0.4493610000000 1.0
C      1  0.4703870000000  0.5397560000000  0.4655530000000 1.0
C      1  0.4709200000000  0.4501230000000  0.4834160000000 1.0
C      1  0.4703220000000  0.5102710000000  0.5519920000000 1.0
C      1  0.4834020000000  0.5409020000000  0.5940780000000 1.0
C      1  0.4835930000000  0.3981780000000  0.4890220000000 1.0
C      1  0.4835380000000  0.5609960000000  0.4178930000000 1.0
C      1  0.4857710000000  0.5364680000000  0.4026690000000 1.0
C      1  0.4855190000000  0.3969650000000  0.5178950000000 1.0
C      1  0.4855010000000  0.5664220000000  0.5806000000000 1.0
C      1  0.3851160000000  0.5243480000000  0.5109430000000 1.0
C      1  0.3851690000000  0.4781720000000  0.5157800000000 1.0
C      1  0.3853460000000  0.4970500000000  0.4733650000000 1.0
C      1  0.3780120000000  0.5218320000000  0.4839830000000 1.0
C      1  0.3780960000000  0.4749620000000  0.4889540000000 1.0
C      1  0.3778860000000  0.5027280000000  0.5270890000000 1.0
C      1  0.5456820000000  0.5288970000000  0.4847920000000 1.0
C      1  0.5459250000000  0.4997580000000  0.5304910000000 1.0
C      1  0.5472560000000  0.4695200000000  0.4870620000000 1.0
C      1  0.5463790000000  0.5260900000000  0.5153560000000 1.0
C      1  0.5479410000000  0.5045830000000  0.4684720000000 1.0
C      1  0.5463760000000  0.4724330000000  0.5165250000000 1.0
C      1  0.4792430000000  0.4732780000000  0.5906390000000 1.0
C      1  0.4798420000000  0.4352540000000  0.4323110000000 1.0
C      1  0.4792390000000  0.5918870000000  0.4782350000000 1.0
C      1  0.4855710000000  0.4810500000000  0.4042880000000 1.0
C      1  0.4849820000000  0.4261110000000  0.5650090000000 1.0
C      1  0.4849350000000  0.5929690000000  0.5319600000000 1.0
C      1  0.5902940000000  0.4520180000000  0.5139460000000 1.0
C      1  0.5911730000000  0.5123050000000  0.4510020000000 1.0
C      1  0.5893660000000  0.5353900000000  0.5339470000000 1.0
C      1  0.5907930000000  0.4512850000000  0.4846170000000 1.0
C      1  0.5888350000000  0.5099140000000  0.5481720000000 1.0
C      1  0.5898490000000  0.5371360000000  0.4666180000000 1.0
C      1  0.4584720000000  0.4378860000000  0.5620870000000 1.0
C      1  0.4590920000000  0.4776140000000  0.4158950000000 1.0
C      1  0.4584270000000  0.5845890000000  0.5231080000000 1.0
C      1  0.4595140000000  0.4518060000000  0.4238970000000 1.0
C      1  0.4588200000000  0.4577820000000  0.5804250000000 1.0
C      1  0.4587860000000  0.5906900000000  0.4967340000000 1.0
C      1  0.5070070000000  0.3998860000000  0.5364320000000 1.0
C      1  0.5073160000000  0.5190440000000  0.3959580000000 1.0
C      1  0.5070940000000  0.5808890000000  0.5688760000000 1.0
C      1  0.5005450000000  0.4056760000000  0.4668830000000 1.0
C      1  0.5003610000000  0.5180110000000  0.5987320000000 1.0
C      1  0.5003620000000  0.5766960000000  0.4353370000000 1.0
C      1  0.5148180000000  0.4730290000000  0.5155330000000 1.0
C      1  0.5160120000000  0.5005450000000  0.4694440000000 1.0
C      1  0.5146140000000  0.5265030000000  0.5159510000000 1.0
C      1  0.5148290000000  0.4737580000000  0.4849200000000 1.0
C      1  0.5134840000000  0.4999250000000  0.5305210000000 1.0
C      1  0.5135360000000  0.5267800000000  0.4851260000000 1.0
C      1  0.5492560000000  0.5493170000000  0.5583380000000 1.0
C      1  0.5496700000000  0.4238380000000  0.5144710000000 1.0
C      1  0.5499630000000  0.5269920000000  0.4272590000000 1.0
C      1  0.5480140000000  0.5514900000000  0.4427110000000 1.0
C      1  0.5483740000000  0.4235570000000  0.4854440000000 1.0
C      1  0.5475840000000  0.5240530000000  0.5721430000000 1.0
C      1  0.5293510000000  0.4827460000000  0.5834620000000 1.0
C      1  0.5298530000000  0.4367420000000  0.4444400000000 1.0
C      1  0.5294340000000  0.5811190000000  0.4734850000000 1.0
C      1  0.5332850000000  0.4849140000000  0.4158920000000 1.0
C      1  0.5328000000000  0.4339770000000  0.5564660000000 1.0
C      1  0.5327000000000  0.5814020000000  0.5292500000000 1.0
C      1  0.4829920000000  0.4968190000000  0.6034220000000 1.0
C      1  0.4832520000000  0.4122930000000  0.4461780000000 1.0
C      1  0.4830400000000  0.5912100000000  0.4514680000000 1.0
C      1  0.4938830000000  0.4967450000000  0.3842170000000 1.0
C      1  0.4934550000000  0.4009130000000  0.5615110000000 1.0
C      1  0.4935060000000  0.6022220000000  0.5556210000000 1.0
C      1  0.4252290000000  0.5360790000000  0.4556050000000 1.0
C      1  0.4250420000000  0.5205510000000  0.5538230000000 1.0
C      1  0.4254660000000  0.4432690000000  0.4911670000000 1.0
C      1  0.4248520000000  0.5436970000000  0.5370530000000 1.0
C      1  0.4253630000000  0.5099530000000  0.4439950000000 1.0
C      1  0.4250200000000  0.4461080000000  0.5196060000000 1.0
C      1  0.4573460000000  0.5642180000000  0.5706090000000 1.0
C      1  0.4573940000000  0.4068190000000  0.5208320000000 1.0
C      1  0.4577400000000  0.5287970000000  0.4096540000000 1.0
C      1  0.4553570000000  0.5545960000000  0.4230290000000 1.0
C      1  0.4554150000000  0.4057900000000  0.4917340000000 1.0
C      1  0.4551610000000  0.5396210000000  0.5861410000000 1.0
C      1  0.5642600000000  0.4917180000000  0.4872610000000 1.0
END
