TITL C-170981-2545-12 0.0530500260813367 125000 -128.019281751324 0 0 20 (Ci) n - 1
REM
REM in /rds/project/t2_vol4/rds-t2-cs072/BORA/CARBON/from-Arr/AIRSS/Generating-Clusters/GAP-ML-2020/Higher-Symm/SD-CG/HFTN-CG
REM
REM
REM
REM
REM
REM ./C.cell (b20cbc046b6831c77cfcea5457e17084)
REM AIRSS Version 0.9.1 bugfix July 2018 build 013d7b7c2542+ Fri, 06 Jul 2018 19:26:36 +0100
REM compiler GCC version 9.3.0
REM options -cpp -mtune=generic -march=x86-64 -g -O0
REM seed 978804741 -1969217117 1999874206 -109414372 1505883285 95564853 1267829055 197555127 -1224563335 590321433 -2080370697 138348789 1687702153 -743899054 1298455025 -1208913234 312514856 2035604200 -829429283 2085590723 517552362 -2129300081 -1281962562 1858807622 -731076562 -712802826 41553446 276883360 -183522476 -1336338903 -1836915572 -431046811 851641823
REM
CELL 1.54180   50.00000   50.00000   50.00000   90.00000   90.00000   90.00000
LATT -1
SFAC C  
C      1  0.5269760000000  0.5368910000000  0.5366320000000 1.0
C      1  0.4731620000000  0.4645560000000  0.5323580000000 1.0
C      1  0.5268380000000  0.5354440000000  0.4676420000000 1.0
C      1  0.4730240000000  0.4631090000000  0.4633680000000 1.0
C      1  0.5221940000000  0.4679340000000  0.5354980000000 1.0
C      1  0.4788180000000  0.5309570000000  0.5301020000000 1.0
C      1  0.5211820000000  0.4690430000000  0.4698980000000 1.0
C      1  0.4778060000000  0.5320660000000  0.4645020000000 1.0
C      1  0.5294550000000  0.5177950000000  0.4883700000000 1.0
C      1  0.4669220000000  0.4820410000000  0.4819330000000 1.0
C      1  0.5330780000000  0.5179590000000  0.5180670000000 1.0
C      1  0.4705450000000  0.4822050000000  0.5116300000000 1.0
C      1  0.5220190000000  0.4891770000000  0.4891870000000 1.0
C      1  0.4736620000000  0.5114020000000  0.4819510000000 1.0
C      1  0.5263380000000  0.4885980000000  0.5180490000000 1.0
C      1  0.4779810000000  0.5108230000000  0.5108130000000 1.0
C      1  0.5021840000000  0.5399980000000  0.4594590000000 1.0
C      1  0.4978160000000  0.4600020000000  0.5405410000000 1.0
C      1  0.4993090000000  0.4595970000000  0.4599480000000 1.0
C      1  0.5006910000000  0.5404030000000  0.5400520000000 1.0
END
