TITL C-170973-9438-1 -0.131088452830175 125000 -525.955095780266 0 0 77 (C1) n - 1
REM
REM in /rds/project/t2_vol4/rds-t2-cs072/BORA/CARBON/from-Arr/AIRSS/Generating-Clusters/GAP-ML-2020/Higher-Symm/SD-CG/HFTN-CG
REM
REM
REM
REM
REM
REM ./C.cell (b20cbc046b6831c77cfcea5457e17084)
REM AIRSS Version 0.9.1 bugfix July 2018 build 013d7b7c2542+ Fri, 06 Jul 2018 19:26:36 +0100
REM compiler GCC version 9.3.0
REM options -cpp -mtune=generic -march=x86-64 -g -O0
REM seed 627353501 -819522797 1666321423 933040771 592839081 500513359 -2050133720 1874463133 -1137388659 1840264594 509879248 -1332754787 -1679936841 95202036 -1820230654 -1678647683 944551911 -2056978196 1494017475 -1434469602 -1450466804 -362389063 1760590524 -123785532 509732699 -870860545 -84258296 -991516803 -451811893 667009544 -169622434 -1992092320 211524952
REM
CELL 1.54180   50.00000   50.00000   50.00000   90.00000   90.00000   90.00000
LATT -1
SFAC C  
C      1  0.4719220000000  0.5093110000000  0.5665580000000 1.0
C      1  0.4825120000000  0.4257350000000  0.5298740000000 1.0
C      1  0.4724480000000  0.4539880000000  0.4540880000000 1.0
C      1  0.4769920000000  0.5310290000000  0.4427430000000 1.0
C      1  0.4769110000000  0.5670040000000  0.5114290000000 1.0
C      1  0.4933510000000  0.4983130000000  0.5277640000000 1.0
C      1  0.4856770000000  0.4722230000000  0.5167290000000 1.0
C      1  0.4915200000000  0.4790010000000  0.4861920000000 1.0
C      1  0.4753120000000  0.5024140000000  0.4849320000000 1.0
C      1  0.4828500000000  0.5191090000000  0.5071730000000 1.0
C      1  0.5052940000000  0.5302110000000  0.4418220000000 1.0
C      1  0.5051240000000  0.5666000000000  0.5075470000000 1.0
C      1  0.5000270000000  0.5074290000000  0.5565440000000 1.0
C      1  0.5021430000000  0.4474120000000  0.5273600000000 1.0
C      1  0.4998480000000  0.4589280000000  0.4636470000000 1.0
C      1  0.4617400000000  0.5547030000000  0.4416280000000 1.0
C      1  0.4597810000000  0.5784990000000  0.5299990000000 1.0
C      1  0.4603260000000  0.4869360000000  0.5814500000000 1.0
C      1  0.4599310000000  0.4201900000000  0.5187770000000 1.0
C      1  0.4628710000000  0.4628520000000  0.4280560000000 1.0
C      1  0.5355660000000  0.4862910000000  0.4989830000000 1.0
C      1  0.5161820000000  0.4926790000000  0.4779810000000 1.0
C      1  0.5250220000000  0.5227390000000  0.4816980000000 1.0
C      1  0.5121740000000  0.5265830000000  0.5073660000000 1.0
C      1  0.5219250000000  0.5007040000000  0.5192640000000 1.0
C      1  0.4376840000000  0.4576940000000  0.4971670000000 1.0
C      1  0.4399540000000  0.4907210000000  0.4574870000000 1.0
C      1  0.4445500000000  0.5365010000000  0.4803250000000 1.0
C      1  0.4400380000000  0.5353970000000  0.5302520000000 1.0
C      1  0.4381390000000  0.4865510000000  0.5406710000000 1.0
C      1  0.5226370000000  0.5074730000000  0.4358190000000 1.0
C      1  0.5232970000000  0.5662480000000  0.4843490000000 1.0
C      1  0.5186800000000  0.5317040000000  0.5532750000000 1.0
C      1  0.5219630000000  0.4587390000000  0.5486570000000 1.0
C      1  0.5211340000000  0.4423370000000  0.4775640000000 1.0
C      1  0.4604900000000  0.5143580000000  0.4630030000000 1.0
C      1  0.4619770000000  0.5406270000000  0.5064040000000 1.0
C      1  0.4490380000000  0.5140190000000  0.5482110000000 1.0
C      1  0.4554680000000  0.4739100000000  0.5180440000000 1.0
C      1  0.4487930000000  0.4632340000000  0.4701390000000 1.0
C      1  0.4399640000000  0.5638810000000  0.5379300000000 1.0
C      1  0.4426330000000  0.4738560000000  0.5675050000000 1.0
C      1  0.4392590000000  0.4303250000000  0.5061880000000 1.0
C      1  0.4447040000000  0.4815720000000  0.4293050000000 1.0
C      1  0.4444670000000  0.5584330000000  0.4602570000000 1.0
C      1  0.5478600000000  0.4498130000000  0.4701270000000 1.0
C      1  0.5500270000000  0.5146180000000  0.4415630000000 1.0
C      1  0.5499780000000  0.5606490000000  0.4944230000000 1.0
C      1  0.5455790000000  0.5231460000000  0.5556650000000 1.0
C      1  0.5487800000000  0.4551020000000  0.5395530000000 1.0
C      1  0.5797240000000  0.4961980000000  0.4759040000000 1.0
C      1  0.5797110000000  0.5226880000000  0.4892090000000 1.0
C      1  0.5790390000000  0.5174070000000  0.5182840000000 1.0
C      1  0.5791780000000  0.4890470000000  0.5222710000000 1.0
C      1  0.5807600000000  0.4757040000000  0.4965070000000 1.0
C      1  0.5192260000000  0.5486710000000  0.5272480000000 1.0
C      1  0.5205750000000  0.4840580000000  0.5627760000000 1.0
C      1  0.5227470000000  0.4392120000000  0.5056820000000 1.0
C      1  0.5201100000000  0.4804550000000  0.4494950000000 1.0
C      1  0.5232700000000  0.5460770000000  0.4606380000000 1.0
C      1  0.4149430000000  0.4937490000000  0.5224210000000 1.0
C      1  0.4148580000000  0.4782950000000  0.4980970000000 1.0
C      1  0.4169940000000  0.4964460000000  0.4763000000000 1.0
C      1  0.4190810000000  0.5231050000000  0.4877680000000 1.0
C      1  0.4165370000000  0.5212650000000  0.5162990000000 1.0
C      1  0.5642380000000  0.4786020000000  0.5440160000000 1.0
C      1  0.5655480000000  0.4520310000000  0.4927280000000 1.0
C      1  0.5653210000000  0.4923980000000  0.4514400000000 1.0
C      1  0.5673650000000  0.5461330000000  0.4768710000000 1.0
C      1  0.5631560000000  0.5340630000000  0.5351350000000 1.0
C      1  0.5515720000000  0.5403980000000  0.4533090000000 1.0
C      1  0.5477880000000  0.5531340000000  0.5213080000000 1.0
C      1  0.5470740000000  0.4952420000000  0.5608880000000 1.0
C      1  0.5495700000000  0.4426100000000  0.5144260000000 1.0
C      1  0.5474850000000  0.4701300000000  0.4509230000000 1.0
C      1  0.5508740000000  0.5109190000000  0.4910720000000 1.0
C      1  0.4532140000000  0.4969700000000  0.5015670000000 1.0
END
