TITL C-175318-9409-3 0.0392718311164226 125000 -147.177468820215 0 0 23 (C1) n - 1
REM
REM in /rds/project/t2_vol4/rds-t2-cs072/BORA/CARBON/from-Arr/AIRSS/Generating-Clusters/GAP-ML-2020/Higher-Symm/SD-CG/HFTN-CG
REM
REM
REM
REM
REM
REM ./C.cell (b20cbc046b6831c77cfcea5457e17084)
REM AIRSS Version 0.9.1 bugfix July 2018 build 013d7b7c2542+ Fri, 06 Jul 2018 19:26:36 +0100
REM compiler GCC version 9.3.0
REM options -cpp -mtune=generic -march=x86-64 -g -O0
REM seed 94987018 1544230699 -1258031837 -771103934 163799015 155306371 -1192175179 -649263423 -1363424316 549121902 1732181566 -1694860227 979267070 -1623251360 -1472166963 -537057503 28787486 1950942119 -1698791105 -624977201 1875337562 1610992341 2071456366 -369358169 828331001 1667700245 -1611333464 1135990493 2022997834 301072558 257052896 2020122515 496332017
REM
CELL 1.54180   50.00000   50.00000   50.00000   90.00000   90.00000   90.00000
LATT -1
SFAC C  
C      1  0.4708650000000  0.5292780000000  0.5173210000000 1.0
C      1  0.4834820000000  0.5269710000000  0.4919220000000 1.0
C      1  0.5277430000000  0.5323720000000  0.4824680000000 1.0
C      1  0.5313880000000  0.5351760000000  0.5090660000000 1.0
C      1  0.5206030000000  0.4646490000000  0.5029040000000 1.0
C      1  0.5216880000000  0.4872520000000  0.4866830000000 1.0
C      1  0.4677720000000  0.4838060000000  0.4870510000000 1.0
C      1  0.4791970000000  0.4837570000000  0.5128580000000 1.0
C      1  0.5387060000000  0.5024460000000  0.4443030000000 1.0
C      1  0.4599570000000  0.5022580000000  0.5573740000000 1.0
C      1  0.4660570000000  0.5101630000000  0.4453080000000 1.0
C      1  0.5328450000000  0.5115320000000  0.5515320000000 1.0
C      1  0.5418130000000  0.4996570000000  0.4193110000000 1.0
C      1  0.4594670000000  0.4960560000000  0.5818730000000 1.0
C      1  0.5371340000000  0.5022100000000  0.5749890000000 1.0
C      1  0.4649990000000  0.5126980000000  0.4200600000000 1.0
C      1  0.5231740000000  0.5164350000000  0.5261920000000 1.0
C      1  0.4676230000000  0.5057440000000  0.5309290000000 1.0
C      1  0.4706860000000  0.5065170000000  0.4724590000000 1.0
C      1  0.5328120000000  0.5061370000000  0.4704580000000 1.0
C      1  0.5033800000000  0.5437640000000  0.4824460000000 1.0
C      1  0.4993290000000  0.4634740000000  0.5177660000000 1.0
C      1  0.5011940000000  0.5033770000000  0.5030440000000 1.0
END
