TITL C-170970-8861-1 -0.913187386226913 125000 -468.962569448363 0 0 67 (C1) n - 1
REM
REM in /rds/project/t2_vol4/rds-t2-cs072/BORA/CARBON/from-Arr/AIRSS/Generating-Clusters/GAP-ML-2020/Higher-Symm/SD-CG/HFTN-CG
REM
REM
REM
REM
REM
REM ./C.cell (b20cbc046b6831c77cfcea5457e17084)
REM AIRSS Version 0.9.1 bugfix July 2018 build 013d7b7c2542+ Fri, 06 Jul 2018 19:26:36 +0100
REM compiler GCC version 9.3.0
REM options -cpp -mtune=generic -march=x86-64 -g -O0
REM seed -1375523301 495218302 671555448 -757516705 -2109848656 -1628765312 1097746847 -394075193 2020774553 1841152271 -866675879 1111492850 194058649 -1203445649 1952174010 1826394210 -1684012305 955606785 -1317681161 -1030593689 1923473117 -1524393834 1203178578 -1659916055 -796542576 -1890535228 234806663 1162048942 -1621761564 -1306409488 -667200640 1812557773 655030441
REM
CELL 1.54180   50.00000   50.00000   50.00000   90.00000   90.00000   90.00000
LATT -1
SFAC C  
C      1  0.4334180000000  0.4841970000000  0.5262750000000 1.0
C      1  0.5642860000000  0.5164500000000  0.5337080000000 1.0
C      1  0.4385870000000  0.5194840000000  0.4670750000000 1.0
C      1  0.5595020000000  0.4800320000000  0.4747440000000 1.0
C      1  0.4861160000000  0.4370990000000  0.5255590000000 1.0
C      1  0.5118850000000  0.5637930000000  0.5279390000000 1.0
C      1  0.5214970000000  0.4497190000000  0.4670880000000 1.0
C      1  0.4869760000000  0.5425950000000  0.4730060000000 1.0
C      1  0.4492360000000  0.5264380000000  0.5411890000000 1.0
C      1  0.5483140000000  0.4722670000000  0.5484260000000 1.0
C      1  0.4526210000000  0.4747110000000  0.4599250000000 1.0
C      1  0.5547610000000  0.5273920000000  0.4650110000000 1.0
C      1  0.5267520000000  0.4555990000000  0.5412270000000 1.0
C      1  0.4674590000000  0.5481530000000  0.5430440000000 1.0
C      1  0.4747180000000  0.4566410000000  0.4593700000000 1.0
C      1  0.5327850000000  0.5451000000000  0.4632050000000 1.0
C      1  0.5245780000000  0.5094410000000  0.5641810000000 1.0
C      1  0.4686870000000  0.4899340000000  0.5629580000000 1.0
C      1  0.5368970000000  0.4914190000000  0.4347750000000 1.0
C      1  0.4710700000000  0.5099040000000  0.4308550000000 1.0
C      1  0.5051220000000  0.5282280000000  0.5629800000000 1.0
C      1  0.4887780000000  0.4721870000000  0.5618250000000 1.0
C      1  0.4958360000000  0.5256800000000  0.4303890000000 1.0
C      1  0.5118350000000  0.4802230000000  0.4310220000000 1.0
C      1  0.5173110000000  0.4905680000000  0.4961120000000 1.0
C      1  0.4530610000000  0.5246200000000  0.4909280000000 1.0
C      1  0.5569740000000  0.5374150000000  0.5142430000000 1.0
C      1  0.4431480000000  0.4638140000000  0.5078360000000 1.0
C      1  0.4807620000000  0.5215560000000  0.4917750000000 1.0
C      1  0.5351340000000  0.4677710000000  0.4876760000000 1.0
C      1  0.5356350000000  0.5563890000000  0.5118960000000 1.0
C      1  0.4647450000000  0.4452650000000  0.5073480000000 1.0
C      1  0.4121150000000  0.5154910000000  0.4770060000000 1.0
C      1  0.5843020000000  0.4826510000000  0.4875320000000 1.0
C      1  0.4114620000000  0.4974400000000  0.5137450000000 1.0
C      1  0.5869170000000  0.5025890000000  0.5232170000000 1.0
C      1  0.5198280000000  0.4231710000000  0.4765790000000 1.0
C      1  0.4822030000000  0.5708480000000  0.4781840000000 1.0
C      1  0.5019380000000  0.4173180000000  0.5125080000000 1.0
C      1  0.4976770000000  0.5831490000000  0.5126560000000 1.0
C      1  0.5405220000000  0.4481370000000  0.5137520000000 1.0
C      1  0.4547940000000  0.5617410000000  0.5206020000000 1.0
C      1  0.5295210000000  0.5642470000000  0.4847570000000 1.0
C      1  0.4741990000000  0.4377550000000  0.4812920000000 1.0
C      1  0.4385890000000  0.5368250000000  0.5132860000000 1.0
C      1  0.5647770000000  0.4599570000000  0.5274760000000 1.0
C      1  0.5699700000000  0.5295100000000  0.4893650000000 1.0
C      1  0.4338330000000  0.4717740000000  0.4819400000000 1.0
C      1  0.4702020000000  0.5777980000000  0.5049760000000 1.0
C      1  0.5296600000000  0.4222690000000  0.5055430000000 1.0
C      1  0.4935830000000  0.4172950000000  0.4843470000000 1.0
C      1  0.5075470000000  0.5820570000000  0.4851880000000 1.0
C      1  0.5851800000000  0.4743240000000  0.5167490000000 1.0
C      1  0.4121440000000  0.5255990000000  0.5060840000000 1.0
C      1  0.4107250000000  0.4885660000000  0.4857500000000 1.0
C      1  0.5895030000000  0.5098570000000  0.4952290000000 1.0
C      1  0.5070290000000  0.5383840000000  0.4522400000000 1.0
C      1  0.5016580000000  0.4606510000000  0.4495730000000 1.0
C      1  0.4998490000000  0.4516680000000  0.5463620000000 1.0
C      1  0.4959420000000  0.5498540000000  0.5477160000000 1.0
C      1  0.5525190000000  0.4998610000000  0.4546100000000 1.0
C      1  0.4518150000000  0.5011560000000  0.4486690000000 1.0
C      1  0.4476710000000  0.4993140000000  0.5467230000000 1.0
C      1  0.5485070000000  0.5008690000000  0.5523750000000 1.0
C      1  0.4939180000000  0.4996100000000  0.4200700000000 1.0
C      1  0.4964430000000  0.5004270000000  0.5650800000000 1.0
C      1  0.4955320000000  0.5018080000000  0.5037070000000 1.0
END
