TITL C-175336-2748-6 0.00606877501190227 125000 -51.3110357177167 0 0 8 (D(inf)h) n - 1
REM
REM in /rds/project/t2_vol4/rds-t2-cs072/BORA/CARBON/from-Arr/AIRSS/Generating-Clusters/GAP-ML-2020/Higher-Symm/SD-CG/HFTN-CG
REM
REM
REM
REM
REM
REM ./C.cell (b20cbc046b6831c77cfcea5457e17084)
REM AIRSS Version 0.9.1 bugfix July 2018 build 013d7b7c2542+ Fri, 06 Jul 2018 19:26:36 +0100
REM compiler GCC version 9.3.0
REM options -cpp -mtune=generic -march=x86-64 -g -O0
REM seed 1593236651 897342018 446639325 1784262352 19279283 646476074 -1257026342 1865889983 -219180768 -983475988 655917308 1298048289 1995609417 1733633570 -1791049999 -377246285 -2052809376 146598752 -1610595139 -977692294 -890208433 444887809 398241422 -670566872 75318209 1275756052 1276360847 -143470919 1925709421 -390426057 2064629561 1252132258 -857396023
REM
CELL 1.54180   50.00000   50.00000   50.00000   90.00000   90.00000   90.00000
LATT -1
SFAC C  
C      1  0.4998130000000  0.5641290000000  0.5006900000000 1.0
C      1  0.4998130000000  0.4358710000000  0.5006900000000 1.0
C      1  0.4998130000000  0.5896510000000  0.5006900000000 1.0
C      1  0.4998130000000  0.5381020000000  0.5006900000000 1.0
C      1  0.4998130000000  0.5130250000000  0.5006900000000 1.0
C      1  0.4998130000000  0.4869750000000  0.5006900000000 1.0
C      1  0.4998130000000  0.4618980000000  0.5006900000000 1.0
C      1  0.4998130000000  0.4103490000000  0.5006900000000 1.0
END
