TITL C-175321-1923-6 -45.1110931679895 125000 -427.632398951458 0 0 64 (C1) n - 1
REM
REM in /rds/project/t2_vol4/rds-t2-cs072/BORA/CARBON/from-Arr/AIRSS/Generating-Clusters/GAP-ML-2020/Higher-Symm/SD-CG/HFTN-CG
REM
REM
REM
REM
REM
REM ./C.cell (b20cbc046b6831c77cfcea5457e17084)
REM AIRSS Version 0.9.1 bugfix July 2018 build 013d7b7c2542+ Fri, 06 Jul 2018 19:26:36 +0100
REM compiler GCC version 9.3.0
REM options -cpp -mtune=generic -march=x86-64 -g -O0
REM seed -1183204050 105180140 -27633706 -495967835 -1376205012 -2022957230 142549613 -1290242046 408644046 -1405163384 -1958894224 504855278 -1516577455 626894553 538817263 -508755350 -725828118 -438080819 1460011956 -1794323539 1360604169 929873485 709752017 -136182250 1342702823 783942923 1882883614 -1930553478 -452843427 1568145523 -1211107022 -1686017247 -929063647
REM
CELL 1.54180   50.00000   50.00000   50.00000   90.00000   90.00000   90.00000
LATT -1
SFAC C  
C      1  0.4639550000000  0.5449270000000  0.4690430000000 1.0
C      1  0.4639830000000  0.5490120000000  0.5147160000000 1.0
C      1  0.4609560000000  0.5188140000000  0.5477690000000 1.0
C      1  0.4632080000000  0.4732630000000  0.5478320000000 1.0
C      1  0.4638990000000  0.4488520000000  0.5084770000000 1.0
C      1  0.4546720000000  0.4588370000000  0.4633280000000 1.0
C      1  0.4639440000000  0.5031890000000  0.4485730000000 1.0
C      1  0.4411610000000  0.4677110000000  0.5064290000000 1.0
C      1  0.4394600000000  0.4768500000000  0.4794870000000 1.0
C      1  0.4418170000000  0.5031060000000  0.4683240000000 1.0
C      1  0.4411200000000  0.5283730000000  0.4805110000000 1.0
C      1  0.4403860000000  0.5315540000000  0.5087200000000 1.0
C      1  0.4394460000000  0.5117510000000  0.5294450000000 1.0
C      1  0.4407640000000  0.4831080000000  0.5296390000000 1.0
C      1  0.4901240000000  0.4800750000000  0.5324000000000 1.0
C      1  0.4903900000000  0.4651860000000  0.5060630000000 1.0
C      1  0.4886300000000  0.4853750000000  0.4862240000000 1.0
C      1  0.4911460000000  0.5041730000000  0.4649830000000 1.0
C      1  0.4900220000000  0.5311040000000  0.4784990000000 1.0
C      1  0.4863070000000  0.5285660000000  0.5067180000000 1.0
C      1  0.4870790000000  0.5086250000000  0.5292650000000 1.0
C      1  0.5128650000000  0.5512760000000  0.4735480000000 1.0
C      1  0.5189760000000  0.5552650000000  0.5304840000000 1.0
C      1  0.5288200000000  0.5102710000000  0.5620470000000 1.0
C      1  0.5137870000000  0.4690220000000  0.5473360000000 1.0
C      1  0.5126740000000  0.4442710000000  0.5007700000000 1.0
C      1  0.5295480000000  0.4644170000000  0.4498200000000 1.0
C      1  0.5136270000000  0.5075060000000  0.4449680000000 1.0
C      1  0.5353450000000  0.5325770000000  0.4856350000000 1.0
C      1  0.5365080000000  0.5332950000000  0.5167690000000 1.0
C      1  0.5377050000000  0.5085430000000  0.5342200000000 1.0
C      1  0.5359550000000  0.4787500000000  0.5273310000000 1.0
C      1  0.5363180000000  0.4649060000000  0.5006400000000 1.0
C      1  0.5377320000000  0.4790050000000  0.4738580000000 1.0
C      1  0.5359890000000  0.5086520000000  0.4671480000000 1.0
C      1  0.5147620000000  0.4816200000000  0.4318190000000 1.0
C      1  0.5111040000000  0.5552330000000  0.4444990000000 1.0
C      1  0.5105220000000  0.5764860000000  0.5150680000000 1.0
C      1  0.5069920000000  0.5276280000000  0.5699580000000 1.0
C      1  0.5146150000000  0.4866110000000  0.5704740000000 1.0
C      1  0.5107250000000  0.4269850000000  0.5240410000000 1.0
C      1  0.5069620000000  0.4457150000000  0.4511320000000 1.0
C      1  0.4972630000000  0.4368310000000  0.4751030000000 1.0
C      1  0.4917870000000  0.4638690000000  0.4338260000000 1.0
C      1  0.4996740000000  0.5336860000000  0.4335330000000 1.0
C      1  0.4989080000000  0.5720920000000  0.4915400000000 1.0
C      1  0.4991930000000  0.5470850000000  0.5512810000000 1.0
C      1  0.4921920000000  0.5031380000000  0.5773360000000 1.0
C      1  0.4999090000000  0.4402660000000  0.5445260000000 1.0
C      1  0.4705580000000  0.5319060000000  0.4415660000000 1.0
C      1  0.4705750000000  0.5656960000000  0.4910090000000 1.0
C      1  0.4712630000000  0.5461420000000  0.5433410000000 1.0
C      1  0.4671660000000  0.4976410000000  0.5665620000000 1.0
C      1  0.4705620000000  0.4456940000000  0.5392030000000 1.0
C      1  0.4690980000000  0.4404410000000  0.4800140000000 1.0
C      1  0.4671170000000  0.4736740000000  0.4420970000000 1.0
C      1  0.5671710000000  0.4800790000000  0.5257580000000 1.0
C      1  0.5675660000000  0.4679000000000  0.5005290000000 1.0
C      1  0.5688660000000  0.4820080000000  0.4769180000000 1.0
C      1  0.5673790000000  0.5086810000000  0.4691920000000 1.0
C      1  0.5665910000000  0.5306580000000  0.4862570000000 1.0
C      1  0.5675000000000  0.5301340000000  0.5141720000000 1.0
C      1  0.5685950000000  0.5074980000000  0.5300750000000 1.0
C      1  0.4749780000000  0.5029050000000  0.5034660000000 1.0
END
