TITL C-183197-6600-2 0.114868115881354 125000 -393.931747066128 0 0 58 (C1) n - 1
REM
REM in /rds/project/t2_vol4/rds-t2-cs072/BORA/CARBON/from-Arr/AIRSS/Generating-Clusters/GAP-ML-2020/Higher-Symm/SD-CG/HFTN-CG
REM
REM
REM
REM
REM
REM ./C.cell (b20cbc046b6831c77cfcea5457e17084)
REM AIRSS Version 0.9.1 bugfix July 2018 build 013d7b7c2542+ Fri, 06 Jul 2018 19:26:36 +0100
REM compiler GCC version 9.3.0
REM options -cpp -mtune=generic -march=x86-64 -g -O0
REM seed 1172500419 -1467530348 -655265357 -187410357 -1152313114 1119907937 1829434746 -321790353 1233030779 1448504890 575472778 792828917 -2126363355 -1954549520 1985636977 3633493 2094037376 2002546930 -1466222595 520602165 1319971584 -2032978935 728488362 -807005168 1188377484 1905048438 1800536736 1341194283 -1409353551 421825850 -1611180762 -2074337088 -2008695789
REM
CELL 1.54180   50.00000   50.00000   50.00000   90.00000   90.00000   90.00000
LATT -1
SFAC C  
C      1  0.5312390000000  0.4580910000000  0.4581420000000 1.0
C      1  0.5626260000000  0.4851440000000  0.5207310000000 1.0
C      1  0.5556360000000  0.5242540000000  0.5330490000000 1.0
C      1  0.5152860000000  0.4952740000000  0.5090920000000 1.0
C      1  0.5044380000000  0.4329510000000  0.4971090000000 1.0
C      1  0.4814290000000  0.5147890000000  0.4829300000000 1.0
C      1  0.4920260000000  0.5086970000000  0.5736720000000 1.0
C      1  0.4740270000000  0.4922280000000  0.5341290000000 1.0
C      1  0.4392830000000  0.4891900000000  0.4692470000000 1.0
C      1  0.4730680000000  0.5442340000000  0.4749720000000 1.0
C      1  0.5222970000000  0.4653700000000  0.5488230000000 1.0
C      1  0.5075840000000  0.5447030000000  0.5485490000000 1.0
C      1  0.5595500000000  0.4815220000000  0.4924000000000 1.0
C      1  0.5170290000000  0.4646020000000  0.5209530000000 1.0
C      1  0.5258590000000  0.5490670000000  0.4681520000000 1.0
C      1  0.4872990000000  0.4997120000000  0.5080540000000 1.0
C      1  0.4603500000000  0.4836850000000  0.4503240000000 1.0
C      1  0.5344220000000  0.4781900000000  0.4390420000000 1.0
C      1  0.4479760000000  0.4519800000000  0.5379420000000 1.0
C      1  0.5431370000000  0.5336540000000  0.4863480000000 1.0
C      1  0.5313110000000  0.5501970000000  0.4407200000000 1.0
C      1  0.5269560000000  0.5236280000000  0.4384420000000 1.0
C      1  0.4992880000000  0.5618550000000  0.5071400000000 1.0
C      1  0.4556680000000  0.5492910000000  0.4983090000000 1.0
C      1  0.5764640000000  0.5083040000000  0.5250390000000 1.0
C      1  0.4735400000000  0.5553510000000  0.5192250000000 1.0
C      1  0.4566900000000  0.5293960000000  0.4533960000000 1.0
C      1  0.4794640000000  0.5437380000000  0.5447840000000 1.0
C      1  0.4686210000000  0.5086010000000  0.4372650000000 1.0
C      1  0.4937770000000  0.4837410000000  0.5850920000000 1.0
C      1  0.5120640000000  0.4835990000000  0.4239070000000 1.0
C      1  0.4352200000000  0.5176290000000  0.4689610000000 1.0
C      1  0.4753870000000  0.4732590000000  0.4952070000000 1.0
C      1  0.4758330000000  0.4632220000000  0.5407230000000 1.0
C      1  0.4502530000000  0.5067670000000  0.5394490000000 1.0
C      1  0.5441830000000  0.4827290000000  0.5458650000000 1.0
C      1  0.5004180000000  0.5071880000000  0.4350970000000 1.0
C      1  0.4897130000000  0.4540640000000  0.5140860000000 1.0
C      1  0.5391010000000  0.5096970000000  0.5523100000000 1.0
C      1  0.5201940000000  0.5538050000000  0.5245050000000 1.0
C      1  0.4977510000000  0.4666220000000  0.5635590000000 1.0
C      1  0.5462070000000  0.4578390000000  0.4826220000000 1.0
C      1  0.4396780000000  0.5067870000000  0.5136220000000 1.0
C      1  0.4967030000000  0.4242320000000  0.4728540000000 1.0
C      1  0.5224590000000  0.4994920000000  0.4820460000000 1.0
C      1  0.4451540000000  0.4801660000000  0.4978100000000 1.0
C      1  0.5022530000000  0.4491260000000  0.4611590000000 1.0
C      1  0.4358480000000  0.5282090000000  0.4962020000000 1.0
C      1  0.4841830000000  0.4727920000000  0.4660090000000 1.0
C      1  0.5304640000000  0.4454700000000  0.5030360000000 1.0
C      1  0.4998420000000  0.4999170000000  0.4650860000000 1.0
C      1  0.5425260000000  0.5403920000000  0.5139670000000 1.0
C      1  0.4693150000000  0.5196670000000  0.5566210000000 1.0
C      1  0.5461690000000  0.5032990000000  0.4472120000000 1.0
C      1  0.4358660000000  0.4583300000000  0.5160310000000 1.0
C      1  0.4998090000000  0.5565780000000  0.4796160000000 1.0
C      1  0.5163020000000  0.5218770000000  0.5633940000000 1.0
C      1  0.5507640000000  0.5058070000000  0.4759750000000 1.0
END
