TITL C-187014-1098-3 8.34029991020508 125000 -570.947686984538 0 0 82 (C1) n - 1
REM
REM in /rds/project/t2_vol4/rds-t2-cs072/BORA/CARBON/from-Arr/AIRSS/Generating-Clusters/GAP-ML-2020/Higher-Symm/SD-CG/HFTN-CG
REM
REM
REM
REM
REM
REM ./C.cell (b20cbc046b6831c77cfcea5457e17084)
REM AIRSS Version 0.9.1 bugfix July 2018 build 013d7b7c2542+ Fri, 06 Jul 2018 19:26:36 +0100
REM compiler GCC version 9.3.0
REM options -cpp -mtune=generic -march=x86-64 -g -O0
REM seed -1201728907 -145625008 -823251584 -56671972 -240801480 1746321139 110143749 -233502444 -2109375971 1207528915 8032844 -1649027556 -1150892456 2101556917 -1466842839 470089970 1624957942 -1243463443 -632740432 -534150747 -1854372416 480815998 1530137471 -1887048084 -1322388361 -2092025984 -1063313440 575041992 1435103079 26787453 -1905343045 -1042749650 58345885
REM
CELL 1.54180   50.00000   50.00000   50.00000   90.00000   90.00000   90.00000
LATT -1
SFAC C  
C      1  0.5061000000000  0.5808610000000  0.5326200000000 1.0
C      1  0.5079410000000  0.5491120000000  0.5698290000000 1.0
C      1  0.5096880000000  0.5046380000000  0.5843150000000 1.0
C      1  0.5195480000000  0.4573810000000  0.5737250000000 1.0
C      1  0.5133890000000  0.4248830000000  0.5383970000000 1.0
C      1  0.5095740000000  0.4165510000000  0.4923910000000 1.0
C      1  0.5072560000000  0.4343790000000  0.4475600000000 1.0
C      1  0.5072450000000  0.4721220000000  0.4210130000000 1.0
C      1  0.5177640000000  0.5212580000000  0.4192560000000 1.0
C      1  0.5165310000000  0.5623630000000  0.4425420000000 1.0
C      1  0.5139560000000  0.5865210000000  0.4861920000000 1.0
C      1  0.5175990000000  0.4861090000000  0.4752600000000 1.0
C      1  0.4982690000000  0.5019980000000  0.4611020000000 1.0
C      1  0.4940470000000  0.5247590000000  0.4735230000000 1.0
C      1  0.5135960000000  0.5280550000000  0.4927950000000 1.0
C      1  0.5086960000000  0.5355870000000  0.5175770000000 1.0
C      1  0.4952040000000  0.5150220000000  0.5280490000000 1.0
C      1  0.4609610000000  0.5121060000000  0.5222490000000 1.0
C      1  0.5067620000000  0.4923320000000  0.5365720000000 1.0
C      1  0.4963360000000  0.4701140000000  0.5286720000000 1.0
C      1  0.4829150000000  0.4718020000000  0.5044650000000 1.0
C      1  0.5015910000000  0.4668900000000  0.4854680000000 1.0
C      1  0.5361110000000  0.4265960000000  0.4976310000000 1.0
C      1  0.5341140000000  0.4425170000000  0.4458250000000 1.0
C      1  0.5343820000000  0.4656180000000  0.4279140000000 1.0
C      1  0.5430580000000  0.5244410000000  0.4331120000000 1.0
C      1  0.5420880000000  0.5494040000000  0.4483190000000 1.0
C      1  0.5389490000000  0.5827930000000  0.4986750000000 1.0
C      1  0.5345860000000  0.5771160000000  0.5270130000000 1.0
C      1  0.5351500000000  0.5399200000000  0.5670760000000 1.0
C      1  0.5359190000000  0.5117500000000  0.5740390000000 1.0
C      1  0.5434540000000  0.4637470000000  0.5633550000000 1.0
C      1  0.5374890000000  0.4340180000000  0.5257060000000 1.0
C      1  0.4536880000000  0.5334230000000  0.4453570000000 1.0
C      1  0.4533770000000  0.5528840000000  0.4662770000000 1.0
C      1  0.4517350000000  0.5562610000000  0.4965160000000 1.0
C      1  0.4546360000000  0.5417400000000  0.5207570000000 1.0
C      1  0.4553610000000  0.5045090000000  0.5509880000000 1.0
C      1  0.4544790000000  0.4780190000000  0.5596420000000 1.0
C      1  0.4536810000000  0.4501960000000  0.5477210000000 1.0
C      1  0.4479430000000  0.4355840000000  0.5243900000000 1.0
C      1  0.4539490000000  0.4293270000000  0.4952480000000 1.0
C      1  0.4504160000000  0.4802510000000  0.4539390000000 1.0
C      1  0.4534720000000  0.5038500000000  0.4385030000000 1.0
C      1  0.4671470000000  0.4340460000000  0.4706740000000 1.0
C      1  0.4650970000000  0.4557560000000  0.4504440000000 1.0
C      1  0.4736520000000  0.5084700000000  0.4182370000000 1.0
C      1  0.4744510000000  0.5371210000000  0.4246310000000 1.0
C      1  0.4741940000000  0.5745530000000  0.4661360000000 1.0
C      1  0.4699560000000  0.5793340000000  0.4945090000000 1.0
C      1  0.4671270000000  0.5508000000000  0.5467750000000 1.0
C      1  0.4667690000000  0.5276630000000  0.5648540000000 1.0
C      1  0.4753530000000  0.4690640000000  0.5785660000000 1.0
C      1  0.4759600000000  0.4426440000000  0.5660740000000 1.0
C      1  0.4683120000000  0.4173400000000  0.5163550000000 1.0
C      1  0.5553440000000  0.5549880000000  0.5253210000000 1.0
C      1  0.5555270000000  0.5347010000000  0.5448350000000 1.0
C      1  0.5546370000000  0.5057520000000  0.5504620000000 1.0
C      1  0.5567250000000  0.4776690000000  0.5417370000000 1.0
C      1  0.5540630000000  0.4585500000000  0.5193880000000 1.0
C      1  0.5547630000000  0.4488070000000  0.4907430000000 1.0
C      1  0.5548740000000  0.4550770000000  0.4633730000000 1.0
C      1  0.5563240000000  0.4776880000000  0.4438740000000 1.0
C      1  0.5585940000000  0.5049940000000  0.4476920000000 1.0
C      1  0.5584200000000  0.5456520000000  0.4726870000000 1.0
C      1  0.5583830000000  0.5609430000000  0.4961890000000 1.0
C      1  0.5002290000000  0.4988420000000  0.4139280000000 1.0
C      1  0.5018990000000  0.5444220000000  0.4254480000000 1.0
C      1  0.5024220000000  0.5782190000000  0.4613120000000 1.0
C      1  0.4942900000000  0.5861550000000  0.5070690000000 1.0
C      1  0.4919530000000  0.5657120000000  0.5523120000000 1.0
C      1  0.4921080000000  0.5270460000000  0.5797300000000 1.0
C      1  0.5015210000000  0.4777560000000  0.5844450000000 1.0
C      1  0.5035340000000  0.4360460000000  0.5624520000000 1.0
C      1  0.4963150000000  0.4158310000000  0.5173550000000 1.0
C      1  0.4938760000000  0.4217630000000  0.4689360000000 1.0
C      1  0.4900350000000  0.4537910000000  0.4351290000000 1.0
C      1  0.5584270000000  0.5161190000000  0.4748820000000 1.0
C      1  0.4601080000000  0.4906890000000  0.5020640000000 1.0
C      1  0.4147970000000  0.4902340000000  0.4911590000000 1.0
C      1  0.4396120000000  0.4859320000000  0.4820750000000 1.0
C      1  0.5356640000000  0.5056050000000  0.4896030000000 1.0
END
