TITL C-180445-1503-7 -791.105115386939 125000 -608.604137116345 0 0 90 (C1) n - 1
REM
REM in /rds/project/t2_vol4/rds-t2-cs072/BORA/CARBON/from-Arr/AIRSS/Generating-Clusters/GAP-ML-2020/Higher-Symm/SD-CG/HFTN-CG
REM
REM
REM
REM
REM
REM ./C.cell (b20cbc046b6831c77cfcea5457e17084)
REM AIRSS Version 0.9.1 bugfix July 2018 build 013d7b7c2542+ Fri, 06 Jul 2018 19:26:36 +0100
REM compiler GCC version 9.3.0
REM options -cpp -mtune=generic -march=x86-64 -g -O0
REM seed -420317230 526595960 185185409 -754020682 -1165227140 683820034 703801198 1583528766 1829487600 -1425225584 1616310445 -1193117952 -320567201 -609188884 -1901811837 -1937574137 2114521906 -988767076 1638750326 1168749416 293965264 -409431319 -1831029679 107334425 2018607619 -989839846 1468703062 -1928053468 -71751789 1561008239 1775535728 89002910 -2001678786
REM
CELL 1.54180   50.00000   50.00000   50.00000   90.00000   90.00000   90.00000
LATT -1
SFAC C  
C      1  0.4778310000000  0.5001070000000  0.4176070000000 1.0
C      1  0.5834710000000  0.5036500000000  0.5196720000000 1.0
C      1  0.4441510000000  0.5074800000000  0.5663950000000 1.0
C      1  0.4812500000000  0.5089560000000  0.5100360000000 1.0
C      1  0.4920880000000  0.5063900000000  0.4835430000000 1.0
C      1  0.5153250000000  0.5071240000000  0.5028840000000 1.0
C      1  0.4762790000000  0.5468550000000  0.5486020000000 1.0
C      1  0.4734290000000  0.5440810000000  0.4466380000000 1.0
C      1  0.5543400000000  0.5435020000000  0.5024650000000 1.0
C      1  0.5130090000000  0.5559140000000  0.5076830000000 1.0
C      1  0.4714540000000  0.5594840000000  0.4986390000000 1.0
C      1  0.4965150000000  0.5543110000000  0.4842680000000 1.0
C      1  0.5709320000000  0.5203190000000  0.4730620000000 1.0
C      1  0.4914770000000  0.5175460000000  0.5746570000000 1.0
C      1  0.4402880000000  0.5173200000000  0.4506950000000 1.0
C      1  0.5114620000000  0.5950540000000  0.4862230000000 1.0
C      1  0.5280670000000  0.5805400000000  0.5048750000000 1.0
C      1  0.4892840000000  0.5990610000000  0.5014440000000 1.0
C      1  0.4429090000000  0.4836530000000  0.5323400000000 1.0
C      1  0.5019100000000  0.4794350000000  0.4439540000000 1.0
C      1  0.5485210000000  0.4786330000000  0.5279710000000 1.0
C      1  0.5869570000000  0.4737330000000  0.4798450000000 1.0
C      1  0.4760620000000  0.4719990000000  0.5828060000000 1.0
C      1  0.4486740000000  0.4641020000000  0.4359570000000 1.0
C      1  0.5424620000000  0.5035180000000  0.5560220000000 1.0
C      1  0.4224750000000  0.5140200000000  0.5167810000000 1.0
C      1  0.5292090000000  0.5065630000000  0.4360070000000 1.0
C      1  0.5942650000000  0.4795860000000  0.5061560000000 1.0
C      1  0.4501130000000  0.4811890000000  0.5794790000000 1.0
C      1  0.4635580000000  0.4746450000000  0.4145800000000 1.0
C      1  0.4728250000000  0.5837470000000  0.5169150000000 1.0
C      1  0.5080680000000  0.5740120000000  0.4637340000000 1.0
C      1  0.5457720000000  0.5694720000000  0.5424730000000 1.0
C      1  0.5594750000000  0.4416290000000  0.5143680000000 1.0
C      1  0.4532610000000  0.4430460000000  0.5431510000000 1.0
C      1  0.4911910000000  0.4384120000000  0.4390760000000 1.0
C      1  0.4329920000000  0.4960500000000  0.4682790000000 1.0
C      1  0.5671630000000  0.4925090000000  0.4650640000000 1.0
C      1  0.4977900000000  0.4889460000000  0.5703610000000 1.0
C      1  0.4958240000000  0.5306090000000  0.4665680000000 1.0
C      1  0.5279390000000  0.5321240000000  0.5144410000000 1.0
C      1  0.4695320000000  0.5359270000000  0.5198210000000 1.0
C      1  0.5516200000000  0.5423600000000  0.4717310000000 1.0
C      1  0.5047690000000  0.5383940000000  0.5595310000000 1.0
C      1  0.4469520000000  0.5426110000000  0.4618610000000 1.0
C      1  0.5317900000000  0.5548680000000  0.5587370000000 1.0
C      1  0.4450470000000  0.5502730000000  0.4879670000000 1.0
C      1  0.5326440000000  0.5560290000000  0.4562440000000 1.0
C      1  0.4567070000000  0.4550200000000  0.5691600000000 1.0
C      1  0.4694320000000  0.4488930000000  0.4242810000000 1.0
C      1  0.5832780000000  0.4537850000000  0.5034030000000 1.0
C      1  0.5053380000000  0.4978050000000  0.4233690000000 1.0
C      1  0.5653850000000  0.4972650000000  0.5403210000000 1.0
C      1  0.4279620000000  0.5047670000000  0.5431290000000 1.0
C      1  0.4889900000000  0.4150610000000  0.5115570000000 1.0
C      1  0.4941860000000  0.4129770000000  0.4844040000000 1.0
C      1  0.5160450000000  0.4141850000000  0.5019650000000 1.0
C      1  0.4394120000000  0.5355490000000  0.5114390000000 1.0
C      1  0.5222800000000  0.5306370000000  0.4511370000000 1.0
C      1  0.5293540000000  0.5280870000000  0.5451940000000 1.0
C      1  0.4774360000000  0.4378740000000  0.5263070000000 1.0
C      1  0.4896900000000  0.4343330000000  0.4666420000000 1.0
C      1  0.5359530000000  0.4364610000000  0.4973290000000 1.0
C      1  0.4314510000000  0.4580160000000  0.5306980000000 1.0
C      1  0.5135800000000  0.4549430000000  0.4361210000000 1.0
C      1  0.5515710000000  0.4525440000000  0.5386390000000 1.0
C      1  0.4687590000000  0.5753650000000  0.5427370000000 1.0
C      1  0.4862810000000  0.5703320000000  0.4452150000000 1.0
C      1  0.5525570000000  0.5724600000000  0.5163090000000 1.0
C      1  0.4708170000000  0.4579690000000  0.5044110000000 1.0
C      1  0.4924780000000  0.4575920000000  0.4849080000000 1.0
C      1  0.5147310000000  0.4575560000000  0.5054410000000 1.0
C      1  0.5281790000000  0.4570060000000  0.5521790000000 1.0
C      1  0.4253080000000  0.4663230000000  0.5041080000000 1.0
C      1  0.5394300000000  0.4574710000000  0.4445470000000 1.0
C      1  0.5771040000000  0.5240200000000  0.5009840000000 1.0
C      1  0.4651280000000  0.5264910000000  0.5682590000000 1.0
C      1  0.4626930000000  0.5198270000000  0.4311670000000 1.0
C      1  0.4850870000000  0.4810070000000  0.4686470000000 1.0
C      1  0.5305320000000  0.4824450000000  0.5046460000000 1.0
C      1  0.4713770000000  0.4842480000000  0.5218300000000 1.0
C      1  0.5483790000000  0.4859400000000  0.4435200000000 1.0
C      1  0.5261020000000  0.4821090000000  0.5668440000000 1.0
C      1  0.4207360000000  0.4939140000000  0.4946050000000 1.0
C      1  0.4516030000000  0.4736570000000  0.4640980000000 1.0
C      1  0.5479650000000  0.4770170000000  0.4812570000000 1.0
C      1  0.4897380000000  0.4775570000000  0.5431130000000 1.0
C      1  0.5039240000000  0.4544000000000  0.5347670000000 1.0
C      1  0.4464050000000  0.4571810000000  0.4880290000000 1.0
C      1  0.5442160000000  0.4501200000000  0.4716770000000 1.0
END
