TITL C-183196-6587-5 -8.48689962503419 125000 -611.528170562525 0 0 89 (C1) n - 1
REM
REM in /rds/project/t2_vol4/rds-t2-cs072/BORA/CARBON/from-Arr/AIRSS/Generating-Clusters/GAP-ML-2020/Higher-Symm/SD-CG/HFTN-CG
REM
REM
REM
REM
REM
REM ./C.cell (b20cbc046b6831c77cfcea5457e17084)
REM AIRSS Version 0.9.1 bugfix July 2018 build 013d7b7c2542+ Fri, 06 Jul 2018 19:26:36 +0100
REM compiler GCC version 9.3.0
REM options -cpp -mtune=generic -march=x86-64 -g -O0
REM seed -875067929 -760280926 1021761749 -1074140853 -1224237177 1236995149 166177304 1119435832 -1668485844 -112358060 690372058 1082880815 -701064822 -1001493944 1780676348 847411639 -1234176228 665636811 1722878809 1509572807 2028561136 -1695735092 -360262062 -549939053 -846712510 -1191712010 -1898778367 -99904984 -887498518 -1989358679 909144719 1020457182 955134196
REM
CELL 1.54180   50.00000   50.00000   50.00000   90.00000   90.00000   90.00000
LATT -1
SFAC C  
C      1  0.5124720000000  0.4344630000000  0.5311060000000 1.0
C      1  0.5198460000000  0.4269980000000  0.4661760000000 1.0
C      1  0.5728730000000  0.5060290000000  0.5143640000000 1.0
C      1  0.5739370000000  0.5076300000000  0.4874250000000 1.0
C      1  0.4729040000000  0.4686520000000  0.4386390000000 1.0
C      1  0.4711310000000  0.4698940000000  0.5608170000000 1.0
C      1  0.4686240000000  0.4960890000000  0.5753740000000 1.0
C      1  0.4671160000000  0.4949260000000  0.4274550000000 1.0
C      1  0.5286120000000  0.5126140000000  0.4852530000000 1.0
C      1  0.5272900000000  0.5096870000000  0.5189310000000 1.0
C      1  0.4905540000000  0.4466240000000  0.5695090000000 1.0
C      1  0.4950880000000  0.4469580000000  0.4307830000000 1.0
C      1  0.5418560000000  0.5489440000000  0.5395000000000 1.0
C      1  0.5404890000000  0.5509650000000  0.4589220000000 1.0
C      1  0.5050010000000  0.5266990000000  0.4762350000000 1.0
C      1  0.5042790000000  0.5236820000000  0.5295700000000 1.0
C      1  0.5509000000000  0.4634250000000  0.4716810000000 1.0
C      1  0.5487400000000  0.4626040000000  0.5294820000000 1.0
C      1  0.4588720000000  0.5482860000000  0.5314660000000 1.0
C      1  0.4583920000000  0.5486470000000  0.4733320000000 1.0
C      1  0.4786830000000  0.5260820000000  0.4876970000000 1.0
C      1  0.4780650000000  0.5243930000000  0.5177340000000 1.0
C      1  0.5206080000000  0.5811770000000  0.5129380000000 1.0
C      1  0.5197410000000  0.5842510000000  0.4843760000000 1.0
C      1  0.5153350000000  0.4971260000000  0.4204890000000 1.0
C      1  0.5186430000000  0.4992650000000  0.5851170000000 1.0
C      1  0.4917700000000  0.5105970000000  0.4223130000000 1.0
C      1  0.4945540000000  0.5111910000000  0.5801450000000 1.0
C      1  0.4331690000000  0.4674230000000  0.4826890000000 1.0
C      1  0.4315370000000  0.4656980000000  0.5112670000000 1.0
C      1  0.5463320000000  0.5714410000000  0.5235480000000 1.0
C      1  0.5449860000000  0.5755400000000  0.4712150000000 1.0
C      1  0.4726100000000  0.5737480000000  0.5259940000000 1.0
C      1  0.4712980000000  0.5752120000000  0.4726260000000 1.0
C      1  0.4473810000000  0.4457490000000  0.4717460000000 1.0
C      1  0.4430730000000  0.4435750000000  0.5260710000000 1.0
C      1  0.5042930000000  0.4705200000000  0.4751890000000 1.0
C      1  0.5013920000000  0.4638480000000  0.5199420000000 1.0
C      1  0.5093020000000  0.5485650000000  0.4562860000000 1.0
C      1  0.5112590000000  0.5482310000000  0.5447410000000 1.0
C      1  0.5523430000000  0.5236250000000  0.4684730000000 1.0
C      1  0.5520530000000  0.5208160000000  0.5337890000000 1.0
C      1  0.5383910000000  0.4369810000000  0.5142700000000 1.0
C      1  0.5395780000000  0.4364190000000  0.4859720000000 1.0
C      1  0.5823860000000  0.4887500000000  0.5542750000000 1.0
C      1  0.5821800000000  0.4915740000000  0.4465750000000 1.0
C      1  0.4360320000000  0.4918560000000  0.5235240000000 1.0
C      1  0.4377070000000  0.4972660000000  0.4717650000000 1.0
C      1  0.5598570000000  0.5033830000000  0.5584970000000 1.0
C      1  0.5583010000000  0.5047130000000  0.4440830000000 1.0
C      1  0.4223730000000  0.5150900000000  0.5156770000000 1.0
C      1  0.4221140000000  0.5173210000000  0.4860590000000 1.0
C      1  0.4519360000000  0.4472620000000  0.5535000000000 1.0
C      1  0.4556180000000  0.4453350000000  0.4447890000000 1.0
C      1  0.4338500000000  0.5435020000000  0.4884200000000 1.0
C      1  0.4337360000000  0.5415690000000  0.5174700000000 1.0
C      1  0.5739550000000  0.4803590000000  0.5296610000000 1.0
C      1  0.5755200000000  0.4824870000000  0.4713480000000 1.0
C      1  0.5217500000000  0.4417880000000  0.4409790000000 1.0
C      1  0.5170340000000  0.4437480000000  0.5588530000000 1.0
C      1  0.4633740000000  0.4254760000000  0.5148110000000 1.0
C      1  0.4712140000000  0.4336750000000  0.4877440000000 1.0
C      1  0.4735210000000  0.4276020000000  0.5581080000000 1.0
C      1  0.4783690000000  0.4264810000000  0.4417980000000 1.0
C      1  0.5691670000000  0.5835200000000  0.4820070000000 1.0
C      1  0.5672360000000  0.5768120000000  0.5064710000000 1.0
C      1  0.4656700000000  0.4986520000000  0.4846300000000 1.0
C      1  0.4652360000000  0.4966060000000  0.5177530000000 1.0
C      1  0.4636600000000  0.5390450000000  0.5589740000000 1.0
C      1  0.4605550000000  0.5354340000000  0.4467990000000 1.0
C      1  0.4806670000000  0.4777590000000  0.5331890000000 1.0
C      1  0.4817440000000  0.4818490000000  0.4665980000000 1.0
C      1  0.4494920000000  0.5096520000000  0.4441520000000 1.0
C      1  0.4517590000000  0.5152610000000  0.5652750000000 1.0
C      1  0.5383640000000  0.4880100000000  0.4312200000000 1.0
C      1  0.5400080000000  0.4874070000000  0.5726620000000 1.0
C      1  0.4901700000000  0.4212300000000  0.4670900000000 1.0
C      1  0.4846450000000  0.4204360000000  0.5332990000000 1.0
C      1  0.5004050000000  0.5712060000000  0.5298540000000 1.0
C      1  0.4989390000000  0.5730240000000  0.4686880000000 1.0
C      1  0.4630580000000  0.5931340000000  0.5081190000000 1.0
C      1  0.4595730000000  0.6000980000000  0.4836160000000 1.0
C      1  0.4918960000000  0.5366310000000  0.5661090000000 1.0
C      1  0.4881950000000  0.5352870000000  0.4369970000000 1.0
C      1  0.5411200000000  0.4616370000000  0.4431450000000 1.0
C      1  0.5378940000000  0.4621290000000  0.5579770000000 1.0
C      1  0.5291060000000  0.4821790000000  0.4846960000000 1.0
C      1  0.5269930000000  0.4794950000000  0.5152860000000 1.0
C      1  0.4908160000000  0.4555360000000  0.4941880000000 1.0
END
