TITL C-183208-7146-3 -0.0694866859644257 125000 -388.395559410163 0 0 58 (D2d) n - 1
REM
REM in /rds/project/t2_vol4/rds-t2-cs072/BORA/CARBON/from-Arr/AIRSS/Generating-Clusters/GAP-ML-2020/Higher-Symm/SD-CG/HFTN-CG
REM
REM
REM
REM
REM
REM ./C.cell (b20cbc046b6831c77cfcea5457e17084)
REM AIRSS Version 0.9.1 bugfix July 2018 build 013d7b7c2542+ Fri, 06 Jul 2018 19:26:36 +0100
REM compiler GCC version 9.3.0
REM options -cpp -mtune=generic -march=x86-64 -g -O0
REM seed 1687645927 -698884001 -475708254 -653965353 -948400970 -1332652502 548912959 -211160648 -768342934 693773366 -913135919 -1806423007 -1687004338 439248229 -1881066269 456884484 143817496 149455999 1117677895 -1829495757 -1790144227 2064318972 729892372 -826756180 2078590039 391824970 588822518 135048770 -1957602016 1141967428 1924052643 639332994 1374379070
REM
CELL 1.54180   50.00000   50.00000   50.00000   90.00000   90.00000   90.00000
LATT -1
SFAC C  
C      1  0.5454050000000  0.5050270000000  0.4636670000000 1.0
C      1  0.4546150000000  0.4949900000000  0.4636380000000 1.0
C      1  0.4545950000000  0.5050100000000  0.5340220000000 1.0
C      1  0.5453850000000  0.4949730000000  0.5340460000000 1.0
C      1  0.5050290000000  0.5454040000000  0.4636650000000 1.0
C      1  0.4949910000000  0.4546140000000  0.4636400000000 1.0
C      1  0.5050090000000  0.4545960000000  0.5340240000000 1.0
C      1  0.4949710000000  0.5453860000000  0.5340440000000 1.0
C      1  0.5360530000000  0.4433620000000  0.4940080000000 1.0
C      1  0.4639490000000  0.5566400000000  0.4940150000000 1.0
C      1  0.4639470000000  0.4433600000000  0.5036510000000 1.0
C      1  0.5360510000000  0.5566380000000  0.5036990000000 1.0
C      1  0.4433630000000  0.5360530000000  0.4940040000000 1.0
C      1  0.5566400000000  0.4639490000000  0.4940190000000 1.0
C      1  0.4433600000000  0.4639470000000  0.5036500000000 1.0
C      1  0.5566370000000  0.5360510000000  0.5037000000000 1.0
C      1  0.4788410000000  0.5601250000000  0.4683220000000 1.0
C      1  0.5211760000000  0.4398900000000  0.4683050000000 1.0
C      1  0.5211590000000  0.5601100000000  0.5293940000000 1.0
C      1  0.4788240000000  0.4398750000000  0.5293520000000 1.0
C      1  0.5601260000000  0.4788400000000  0.4683260000000 1.0
C      1  0.4398910000000  0.5211750000000  0.4683010000000 1.0
C      1  0.5601090000000  0.5211600000000  0.5293960000000 1.0
C      1  0.4398740000000  0.4788250000000  0.5293510000000 1.0
C      1  0.5211200000000  0.5000170000000  0.4837330000000 1.0
C      1  0.4788890000000  0.4999900000000  0.4837210000000 1.0
C      1  0.4788800000000  0.5000100000000  0.5139540000000 1.0
C      1  0.5211110000000  0.4999830000000  0.5139660000000 1.0
C      1  0.5000180000000  0.5211190000000  0.4837320000000 1.0
C      1  0.4999910000000  0.4788890000000  0.4837220000000 1.0
C      1  0.5000090000000  0.4788810000000  0.5139540000000 1.0
C      1  0.4999820000000  0.5211110000000  0.5139650000000 1.0
C      1  0.5093130000000  0.4719180000000  0.5592000000000 1.0
C      1  0.4906520000000  0.5280520000000  0.5592080000000 1.0
C      1  0.4906870000000  0.4719480000000  0.4384730000000 1.0
C      1  0.5093480000000  0.5280820000000  0.4384920000000 1.0
C      1  0.4719160000000  0.5093160000000  0.5591980000000 1.0
C      1  0.5280500000000  0.4906550000000  0.5592100000000 1.0
C      1  0.4719500000000  0.4906840000000  0.4384720000000 1.0
C      1  0.5280840000000  0.5093450000000  0.4384930000000 1.0
C      1  0.4389640000000  0.4573790000000  0.5484940000000 1.0
C      1  0.5610080000000  0.5425960000000  0.5485490000000 1.0
C      1  0.5610360000000  0.4574040000000  0.4491720000000 1.0
C      1  0.4389920000000  0.5426210000000  0.4491580000000 1.0
C      1  0.4573770000000  0.4389660000000  0.5484940000000 1.0
C      1  0.5425940000000  0.5610100000000  0.5485490000000 1.0
C      1  0.4574060000000  0.5610340000000  0.4491680000000 1.0
C      1  0.5426230000000  0.4389900000000  0.4491620000000 1.0
C      1  0.4679500000000  0.5526630000000  0.5229930000000 1.0
C      1  0.5320370000000  0.4473250000000  0.5229860000000 1.0
C      1  0.5320500000000  0.5526750000000  0.4747190000000 1.0
C      1  0.4679630000000  0.4473370000000  0.4746750000000 1.0
C      1  0.5526620000000  0.4679510000000  0.5229970000000 1.0
C      1  0.4473240000000  0.5320380000000  0.5229820000000 1.0
C      1  0.5526760000000  0.5320490000000  0.4747200000000 1.0
C      1  0.4473380000000  0.4679620000000  0.4746740000000 1.0
C      1  0.5000190000000  0.5000160000000  0.4331540000000 1.0
C      1  0.4999810000000  0.4999840000000  0.5645330000000 1.0
END
