TITL C-180435-1490-5 -0.0238506030994863 125000 -691.362299427457 0 0 101 (C1) n - 1
REM
REM in /rds/project/t2_vol4/rds-t2-cs072/BORA/CARBON/from-Arr/AIRSS/Generating-Clusters/GAP-ML-2020/Higher-Symm/SD-CG/HFTN-CG
REM
REM
REM
REM
REM
REM ./C.cell (b20cbc046b6831c77cfcea5457e17084)
REM AIRSS Version 0.9.1 bugfix July 2018 build 013d7b7c2542+ Fri, 06 Jul 2018 19:26:36 +0100
REM compiler GCC version 9.3.0
REM options -cpp -mtune=generic -march=x86-64 -g -O0
REM seed 2040346452 2023209444 1969846882 1290978595 149553978 1601881413 -935965447 -2071867276 -1465144119 -1025436004 -24187654 -328009699 -1966137877 -903303450 458892287 -1961346067 1249201216 -471374266 1582831731 -1308506496 2019379152 -2045890400 147279416 171592253 -968473236 1305177212 -663790471 1985992423 -83595698 1442022911 217804786 -1459106208 162218620
REM
CELL 1.54180   50.00000   50.00000   50.00000   90.00000   90.00000   90.00000
LATT -1
SFAC C  
C      1  0.3932630000000  0.5152160000000  0.5048930000000 1.0
C      1  0.4963490000000  0.5150970000000  0.3933360000000 1.0
C      1  0.6055680000000  0.5151980000000  0.4952740000000 1.0
C      1  0.5044970000000  0.5160300000000  0.6050410000000 1.0
C      1  0.6053730000000  0.4856680000000  0.5055110000000 1.0
C      1  0.5060610000000  0.4857330000000  0.3932500000000 1.0
C      1  0.3941770000000  0.4860440000000  0.4946610000000 1.0
C      1  0.4940500000000  0.4865710000000  0.6047070000000 1.0
C      1  0.4386560000000  0.5584890000000  0.5088440000000 1.0
C      1  0.4928300000000  0.5573720000000  0.4389360000000 1.0
C      1  0.5610700000000  0.5575880000000  0.4914980000000 1.0
C      1  0.5078350000000  0.5585210000000  0.5602460000000 1.0
C      1  0.5605460000000  0.4436970000000  0.5081870000000 1.0
C      1  0.5090270000000  0.4433070000000  0.4387680000000 1.0
C      1  0.4398250000000  0.4443530000000  0.4910560000000 1.0
C      1  0.4913050000000  0.4444120000000  0.5600080000000 1.0
C      1  0.5130260000000  0.4669280000000  0.5642370000000 1.0
C      1  0.4340100000000  0.4657980000000  0.5132140000000 1.0
C      1  0.4876250000000  0.4658550000000  0.4336840000000 1.0
C      1  0.5650800000000  0.4660190000000  0.4864910000000 1.0
C      1  0.4862020000000  0.5363060000000  0.5647850000000 1.0
C      1  0.5653890000000  0.5352790000000  0.5137670000000 1.0
C      1  0.5157990000000  0.5356480000000  0.4321280000000 1.0
C      1  0.4337680000000  0.5360230000000  0.4877920000000 1.0
C      1  0.4683490000000  0.4474530000000  0.4495190000000 1.0
C      1  0.5504230000000  0.4464020000000  0.4672350000000 1.0
C      1  0.5321120000000  0.4471030000000  0.5495940000000 1.0
C      1  0.4496800000000  0.4470220000000  0.5320800000000 1.0
C      1  0.5339190000000  0.5548630000000  0.4486620000000 1.0
C      1  0.4506490000000  0.5541410000000  0.4682650000000 1.0
C      1  0.4666060000000  0.5554520000000  0.5499410000000 1.0
C      1  0.5504170000000  0.5551490000000  0.5325420000000 1.0
C      1  0.5212590000000  0.5221780000000  0.4068090000000 1.0
C      1  0.5907120000000  0.5222140000000  0.5193350000000 1.0
C      1  0.4806110000000  0.5232150000000  0.5902000000000 1.0
C      1  0.4083740000000  0.5227160000000  0.4813440000000 1.0
C      1  0.4818440000000  0.4791470000000  0.4083860000000 1.0
C      1  0.4081660000000  0.4789250000000  0.5189640000000 1.0
C      1  0.5182250000000  0.4796810000000  0.5899150000000 1.0
C      1  0.5906410000000  0.4788470000000  0.4812910000000 1.0
C      1  0.4108880000000  0.4944090000000  0.4728550000000 1.0
C      1  0.5286540000000  0.4931400000000  0.4094430000000 1.0
C      1  0.5887070000000  0.4935360000000  0.5274290000000 1.0
C      1  0.4721510000000  0.4948280000000  0.5880590000000 1.0
C      1  0.5891380000000  0.5074560000000  0.4730630000000 1.0
C      1  0.4742790000000  0.5078810000000  0.4100880000000 1.0
C      1  0.4078790000000  0.5075160000000  0.5283870000000 1.0
C      1  0.5268160000000  0.5082290000000  0.5889080000000 1.0
C      1  0.4555150000000  0.4291200000000  0.5102210000000 1.0
C      1  0.4897920000000  0.4285800000000  0.4544860000000 1.0
C      1  0.5454050000000  0.4282190000000  0.4890650000000 1.0
C      1  0.5103880000000  0.4287800000000  0.5446310000000 1.0
C      1  0.5457210000000  0.5732160000000  0.5105640000000 1.0
C      1  0.5118860000000  0.5725660000000  0.4545420000000 1.0
C      1  0.4554550000000  0.5726370000000  0.4899010000000 1.0
C      1  0.4885760000000  0.5735430000000  0.5445240000000 1.0
C      1  0.4652340000000  0.4538850000000  0.5545860000000 1.0
C      1  0.4457280000000  0.4541180000000  0.4650800000000 1.0
C      1  0.5353610000000  0.4522860000000  0.4443390000000 1.0
C      1  0.5547390000000  0.4529650000000  0.5341400000000 1.0
C      1  0.5341920000000  0.5493030000000  0.5547330000000 1.0
C      1  0.5558570000000  0.5484390000000  0.4651770000000 1.0
C      1  0.4668930000000  0.5478760000000  0.4457100000000 1.0
C      1  0.4428310000000  0.5496470000000  0.5356610000000 1.0
C      1  0.4495500000000  0.4871430000000  0.4973110000000 1.0
C      1  0.5058540000000  0.4856170000000  0.4496500000000 1.0
C      1  0.5473040000000  0.4863050000000  0.5033620000000 1.0
C      1  0.4962200000000  0.4877920000000  0.5466790000000 1.0
C      1  0.5478390000000  0.5149400000000  0.4968390000000 1.0
C      1  0.5001810000000  0.5145690000000  0.4486360000000 1.0
C      1  0.4471970000000  0.5156340000000  0.5076130000000 1.0
C      1  0.5039290000000  0.5161100000000  0.5477890000000 1.0
C      1  0.5210090000000  0.5261530000000  0.4981540000000 1.0
C      1  0.5022840000000  0.5280910000000  0.5210680000000 1.0
C      1  0.4755390000000  0.5266820000000  0.5100360000000 1.0
C      1  0.5045950000000  0.5237530000000  0.4752400000000 1.0
C      1  0.4802810000000  0.4847930000000  0.4950400000000 1.0
C      1  0.4978970000000  0.4786530000000  0.5191470000000 1.0
C      1  0.5203860000000  0.4740210000000  0.5012810000000 1.0
C      1  0.5028050000000  0.4742810000000  0.4773100000000 1.0
C      1  0.5611170000000  0.4833540000000  0.5327740000000 1.0
C      1  0.4666170000000  0.4842100000000  0.5607620000000 1.0
C      1  0.4383750000000  0.4843940000000  0.4672520000000 1.0
C      1  0.5343670000000  0.4827190000000  0.4371180000000 1.0
C      1  0.4343620000000  0.5190910000000  0.5355110000000 1.0
C      1  0.5326020000000  0.5188330000000  0.5615350000000 1.0
C      1  0.5618760000000  0.5179930000000  0.4670730000000 1.0
C      1  0.4688220000000  0.5181450000000  0.4374870000000 1.0
C      1  0.4955690000000  0.5857490000000  0.5201540000000 1.0
C      1  0.4807370000000  0.5842940000000  0.4949380000000 1.0
C      1  0.5059480000000  0.5841090000000  0.4797790000000 1.0
C      1  0.5209170000000  0.5853720000000  0.5050400000000 1.0
C      1  0.5055370000000  0.4164380000000  0.5197220000000 1.0
C      1  0.5208870000000  0.4156950000000  0.4945960000000 1.0
C      1  0.4957560000000  0.4164190000000  0.4792190000000 1.0
C      1  0.4805230000000  0.4172410000000  0.5043110000000 1.0
C      1  0.5532960000000  0.5005180000000  0.4474110000000 1.0
C      1  0.4466890000000  0.5017000000000  0.5534700000000 1.0
C      1  0.5514500000000  0.5009270000000  0.5518840000000 1.0
C      1  0.4501340000000  0.5011990000000  0.4486780000000 1.0
C      1  0.4819480000000  0.5127130000000  0.4868130000000 1.0
END
