TITL C-180448-1415-4 -0.00160184782040205 125000 -355.883778390688 0 0 54 (C1) n - 1
REM
REM in /rds/project/t2_vol4/rds-t2-cs072/BORA/CARBON/from-Arr/AIRSS/Generating-Clusters/GAP-ML-2020/Higher-Symm/SD-CG/HFTN-CG
REM
REM
REM
REM
REM
REM ./C.cell (b20cbc046b6831c77cfcea5457e17084)
REM AIRSS Version 0.9.1 bugfix July 2018 build 013d7b7c2542+ Fri, 06 Jul 2018 19:26:36 +0100
REM compiler GCC version 9.3.0
REM options -cpp -mtune=generic -march=x86-64 -g -O0
REM seed -1130746430 495109048 -1566267994 -1534365540 -169701272 212162277 -1205421427 -431426259 1758329788 511130069 146091739 -2146309764 1573754581 -820064731 1426955587 712174681 -260538288 -646637661 -691779414 801404573 1437220323 1665601001 -2117672782 2018034623 629537638 -1740971928 1792489753 -1599853446 -368163223 1284799190 1767030327 1468818230 -361216791
REM
CELL 1.54180   50.00000   50.00000   50.00000   90.00000   90.00000   90.00000
LATT -1
SFAC C  
C      1  0.5398110000000  0.5436460000000  0.4963720000000 1.0
C      1  0.5606300000000  0.5104270000000  0.5320790000000 1.0
C      1  0.5108620000000  0.5254370000000  0.5446890000000 1.0
C      1  0.4645540000000  0.5539690000000  0.4887690000000 1.0
C      1  0.4641470000000  0.4454360000000  0.5073820000000 1.0
C      1  0.5413180000000  0.4557580000000  0.4984690000000 1.0
C      1  0.4407950000000  0.5102250000000  0.4819720000000 1.0
C      1  0.4390490000000  0.4991330000000  0.5318580000000 1.0
C      1  0.5599890000000  0.4982500000000  0.4580100000000 1.0
C      1  0.4867620000000  0.5164420000000  0.4603910000000 1.0
C      1  0.4950980000000  0.4769450000000  0.5541190000000 1.0
C      1  0.5056960000000  0.4681600000000  0.4625360000000 1.0
C      1  0.5094540000000  0.5457190000000  0.5230570000000 1.0
C      1  0.5378130000000  0.5115600000000  0.5502090000000 1.0
C      1  0.5600570000000  0.5233770000000  0.5041550000000 1.0
C      1  0.4895730000000  0.5417140000000  0.4758000000000 1.0
C      1  0.5127550000000  0.4526540000000  0.4871120000000 1.0
C      1  0.4969590000000  0.4541160000000  0.5363720000000 1.0
C      1  0.4614440000000  0.5024500000000  0.4627410000000 1.0
C      1  0.5341410000000  0.4963120000000  0.4461420000000 1.0
C      1  0.4608060000000  0.5050460000000  0.5500950000000 1.0
C      1  0.4398520000000  0.5390730000000  0.4914680000000 1.0
C      1  0.5635210000000  0.4734910000000  0.4928990000000 1.0
C      1  0.4409650000000  0.4630160000000  0.5056920000000 1.0
C      1  0.5271540000000  0.5488800000000  0.5594520000000 1.0
C      1  0.5503060000000  0.5636020000000  0.5158230000000 1.0
C      1  0.5733890000000  0.5326770000000  0.5459550000000 1.0
C      1  0.4743680000000  0.5314660000000  0.4371160000000 1.0
C      1  0.4734210000000  0.4636720000000  0.5694590000000 1.0
C      1  0.5224100000000  0.4519180000000  0.4444770000000 1.0
C      1  0.4541660000000  0.5660350000000  0.4648130000000 1.0
C      1  0.4544620000000  0.4354170000000  0.5335310000000 1.0
C      1  0.5525780000000  0.4367200000000  0.4784210000000 1.0
C      1  0.4283520000000  0.5228070000000  0.4571470000000 1.0
C      1  0.4301680000000  0.4763410000000  0.5489010000000 1.0
C      1  0.5681850000000  0.4722150000000  0.4473000000000 1.0
C      1  0.5734140000000  0.5466770000000  0.5208630000000 1.0
C      1  0.5285070000000  0.5643410000000  0.5351260000000 1.0
C      1  0.5507820000000  0.5335840000000  0.5637960000000 1.0
C      1  0.4291510000000  0.5501960000000  0.4672110000000 1.0
C      1  0.5721770000000  0.4561010000000  0.4708850000000 1.0
C      1  0.4314800000000  0.4530760000000  0.5320270000000 1.0
C      1  0.4775230000000  0.5563090000000  0.4511350000000 1.0
C      1  0.5272620000000  0.4339570000000  0.4661200000000 1.0
C      1  0.4754750000000  0.4406210000000  0.5522110000000 1.0
C      1  0.4503450000000  0.5160300000000  0.4398500000000 1.0
C      1  0.5419420000000  0.4699660000000  0.4336400000000 1.0
C      1  0.4513650000000  0.4819870000000  0.5674030000000 1.0
C      1  0.5117330000000  0.5442180000000  0.4947020000000 1.0
C      1  0.5661350000000  0.5015300000000  0.4858700000000 1.0
C      1  0.4896630000000  0.5053860000000  0.5510650000000 1.0
C      1  0.4931350000000  0.4484220000000  0.5083270000000 1.0
C      1  0.4363870000000  0.4915160000000  0.5041430000000 1.0
C      1  0.5077900000000  0.4958820000000  0.4564050000000 1.0
END
