TITL C-183184-7227-7 60.4344261066286 125000 -410.741929172843 0 0 62 (C1) n - 1
REM
REM in /rds/project/t2_vol4/rds-t2-cs072/BORA/CARBON/from-Arr/AIRSS/Generating-Clusters/GAP-ML-2020/Higher-Symm/SD-CG/HFTN-CG
REM
REM
REM
REM
REM
REM ./C.cell (b20cbc046b6831c77cfcea5457e17084)
REM AIRSS Version 0.9.1 bugfix July 2018 build 013d7b7c2542+ Fri, 06 Jul 2018 19:26:36 +0100
REM compiler GCC version 9.3.0
REM options -cpp -mtune=generic -march=x86-64 -g -O0
REM seed -58495735 -1289078331 178571264 1739895370 -101767848 -1147246751 -563029182 -131673363 843386466 173626281 1883383196 -2113544356 -368765285 301084968 -696132845 889337700 419167828 -711968466 -1283553173 90908616 824448913 299974980 2084084372 1812793901 -618825450 2064213395 -571640828 -2081972401 -185628596 1989682416 -1359791569 904056241 1647982707
REM
CELL 1.54180   50.00000   50.00000   50.00000   90.00000   90.00000   90.00000
LATT -1
SFAC C  
C      1  0.4668270000000  0.5611960000000  0.4570830000000 1.0
C      1  0.4551800000000  0.5106220000000  0.4385850000000 1.0
C      1  0.4556000000000  0.4595640000000  0.4610190000000 1.0
C      1  0.5034340000000  0.4476940000000  0.4411740000000 1.0
C      1  0.5483340000000  0.4757140000000  0.4336630000000 1.0
C      1  0.5593810000000  0.5260710000000  0.4411130000000 1.0
C      1  0.5199310000000  0.5615640000000  0.4417230000000 1.0
C      1  0.5560290000000  0.5063650000000  0.4947940000000 1.0
C      1  0.5137910000000  0.5371170000000  0.4964650000000 1.0
C      1  0.4828130000000  0.5401470000000  0.4969430000000 1.0
C      1  0.4323860000000  0.4983760000000  0.4778610000000 1.0
C      1  0.4751130000000  0.4790210000000  0.4965280000000 1.0
C      1  0.5109130000000  0.4487970000000  0.5031980000000 1.0
C      1  0.5363590000000  0.4490270000000  0.4894330000000 1.0
C      1  0.5171900000000  0.4634790000000  0.5307960000000 1.0
C      1  0.5433000000000  0.4785090000000  0.5263850000000 1.0
C      1  0.5436890000000  0.5072960000000  0.5219350000000 1.0
C      1  0.5172970000000  0.5164400000000  0.5157560000000 1.0
C      1  0.4742280000000  0.5273850000000  0.5224420000000 1.0
C      1  0.4477360000000  0.5191000000000  0.5280830000000 1.0
C      1  0.4690680000000  0.4743590000000  0.5286820000000 1.0
C      1  0.4749540000000  0.5232690000000  0.4745390000000 1.0
C      1  0.4637030000000  0.4989060000000  0.4805450000000 1.0
C      1  0.4982520000000  0.4680600000000  0.4832350000000 1.0
C      1  0.5258680000000  0.4727900000000  0.4726040000000 1.0
C      1  0.5378610000000  0.4999850000000  0.4730500000000 1.0
C      1  0.5222980000000  0.5242050000000  0.4684510000000 1.0
C      1  0.4961390000000  0.5256100000000  0.4539440000000 1.0
C      1  0.4268800000000  0.5408430000000  0.4987430000000 1.0
C      1  0.4316810000000  0.4800830000000  0.5004940000000 1.0
C      1  0.4629070000000  0.4360220000000  0.5033020000000 1.0
C      1  0.5459480000000  0.4288860000000  0.5293690000000 1.0
C      1  0.5760250000000  0.4861630000000  0.4922590000000 1.0
C      1  0.5478790000000  0.5539730000000  0.5288410000000 1.0
C      1  0.4879170000000  0.5867730000000  0.4970850000000 1.0
C      1  0.4295040000000  0.5278060000000  0.4753680000000 1.0
C      1  0.4496770000000  0.4579870000000  0.4895400000000 1.0
C      1  0.4882400000000  0.4335220000000  0.4894180000000 1.0
C      1  0.5578580000000  0.4395590000000  0.5057210000000 1.0
C      1  0.5823740000000  0.4895550000000  0.4665680000000 1.0
C      1  0.5279470000000  0.5613150000000  0.5097670000000 1.0
C      1  0.4742480000000  0.5667210000000  0.4848360000000 1.0
C      1  0.5598450000000  0.4976880000000  0.4493640000000 1.0
C      1  0.5393110000000  0.5419960000000  0.4491690000000 1.0
C      1  0.4940420000000  0.5550960000000  0.4486260000000 1.0
C      1  0.4516720000000  0.5351820000000  0.4573840000000 1.0
C      1  0.4487770000000  0.4877420000000  0.4553710000000 1.0
C      1  0.4843260000000  0.4483680000000  0.4619480000000 1.0
C      1  0.5262680000000  0.4633010000000  0.4435550000000 1.0
C      1  0.4275430000000  0.5387450000000  0.5244930000000 1.0
C      1  0.4439670000000  0.4907130000000  0.5252520000000 1.0
C      1  0.4658730000000  0.4458880000000  0.5281150000000 1.0
C      1  0.5260450000000  0.4361630000000  0.5431480000000 1.0
C      1  0.5637830000000  0.4663700000000  0.5103320000000 1.0
C      1  0.5516340000000  0.5309410000000  0.5389810000000 1.0
C      1  0.5111990000000  0.5834570000000  0.5074990000000 1.0
C      1  0.4983120000000  0.5044250000000  0.5900780000000 1.0
C      1  0.4815790000000  0.5129730000000  0.4274990000000 1.0
C      1  0.4891250000000  0.5157400000000  0.4023200000000 1.0
C      1  0.4946950000000  0.4834160000000  0.5422560000000 1.0
C      1  0.4955720000000  0.5111420000000  0.5306910000000 1.0
C      1  0.4961780000000  0.4893640000000  0.5703720000000 1.0
END
