TITL C-180436-1578-6 0.212636680405214 125000 -991.450020075588 0 0 144 (C1) n - 1
REM
REM in /rds/project/t2_vol4/rds-t2-cs072/BORA/CARBON/from-Arr/AIRSS/Generating-Clusters/GAP-ML-2020/Higher-Symm/SD-CG/HFTN-CG
REM
REM
REM
REM
REM
REM ./C.cell (b20cbc046b6831c77cfcea5457e17084)
REM AIRSS Version 0.9.1 bugfix July 2018 build 013d7b7c2542+ Fri, 06 Jul 2018 19:26:36 +0100
REM compiler GCC version 9.3.0
REM options -cpp -mtune=generic -march=x86-64 -g -O0
REM seed -596623845 1708659441 -653695010 -720580619 -506362933 -644045239 -1481324212 -428106318 -1262808611 -988573876 -158291281 -282588067 881437148 365569086 1141434977 -614831933 9269646 -1293456063 1647787680 -1212712065 1839100083 72281691 1105480611 1915783746 -946926514 -135803110 -1574968600 -1466018605 678286372 2067260884 650584398 1578533977 99123821
REM
CELL 1.54180   50.00000   50.00000   50.00000   90.00000   90.00000   90.00000
LATT -1
SFAC C  
C      1  0.4758220000000  0.5718630000000  0.5256320000000 1.0
C      1  0.5712740000000  0.5255570000000  0.4759530000000 1.0
C      1  0.5258920000000  0.4773860000000  0.5699460000000 1.0
C      1  0.4744940000000  0.4249370000000  0.4784950000000 1.0
C      1  0.5222140000000  0.5728220000000  0.4759030000000 1.0
C      1  0.5242420000000  0.4268020000000  0.5262220000000 1.0
C      1  0.5760570000000  0.4749340000000  0.5232390000000 1.0
C      1  0.4259560000000  0.5258620000000  0.5227450000000 1.0
C      1  0.4296350000000  0.4774410000000  0.4748050000000 1.0
C      1  0.5242410000000  0.5246980000000  0.4252580000000 1.0
C      1  0.4759600000000  0.4789990000000  0.4270030000000 1.0
C      1  0.4746450000000  0.5216010000000  0.5712580000000 1.0
C      1  0.5899340000000  0.4916670000000  0.5643610000000 1.0
C      1  0.4908010000000  0.5633730000000  0.5893680000000 1.0
C      1  0.5636330000000  0.5897680000000  0.4919900000000 1.0
C      1  0.5879640000000  0.5076880000000  0.4371500000000 1.0
C      1  0.4103250000000  0.4929490000000  0.4348730000000 1.0
C      1  0.4108090000000  0.5082310000000  0.5634980000000 1.0
C      1  0.4910570000000  0.4362990000000  0.4123190000000 1.0
C      1  0.5084950000000  0.5657600000000  0.4105380000000 1.0
C      1  0.5094550000000  0.4363300000000  0.5895190000000 1.0
C      1  0.5648000000000  0.4095960000000  0.5096530000000 1.0
C      1  0.4350030000000  0.5897260000000  0.5090780000000 1.0
C      1  0.4333230000000  0.4091270000000  0.4927770000000 1.0
C      1  0.4212210000000  0.4222670000000  0.4714150000000 1.0
C      1  0.4219420000000  0.4719440000000  0.4210090000000 1.0
C      1  0.4698850000000  0.4236830000000  0.4244610000000 1.0
C      1  0.4211390000000  0.5783510000000  0.5299660000000 1.0
C      1  0.5786600000000  0.4208910000000  0.5306170000000 1.0
C      1  0.5770700000000  0.5779690000000  0.4709730000000 1.0
C      1  0.4208540000000  0.5296150000000  0.5774930000000 1.0
C      1  0.5792570000000  0.4702040000000  0.5776560000000 1.0
C      1  0.5779450000000  0.5288440000000  0.4222260000000 1.0
C      1  0.4698120000000  0.5767870000000  0.5779030000000 1.0
C      1  0.5303700000000  0.4222760000000  0.5786260000000 1.0
C      1  0.5299500000000  0.5787630000000  0.4216820000000 1.0
C      1  0.4910590000000  0.4129260000000  0.4565480000000 1.0
C      1  0.4161330000000  0.4559310000000  0.4907420000000 1.0
C      1  0.4545420000000  0.4929760000000  0.4116290000000 1.0
C      1  0.4910200000000  0.5882240000000  0.5456350000000 1.0
C      1  0.5089200000000  0.4109720000000  0.5467530000000 1.0
C      1  0.5072040000000  0.5887010000000  0.4555050000000 1.0
C      1  0.4100640000000  0.5462860000000  0.5077750000000 1.0
C      1  0.5904850000000  0.4538660000000  0.5076820000000 1.0
C      1  0.5865030000000  0.5458870000000  0.4916170000000 1.0
C      1  0.4550140000000  0.5066720000000  0.5881740000000 1.0
C      1  0.5452800000000  0.4924870000000  0.5873370000000 1.0
C      1  0.5456180000000  0.5090420000000  0.4118570000000 1.0
C      1  0.5568810000000  0.4674030000000  0.5944510000000 1.0
C      1  0.4657370000000  0.5948870000000  0.5570100000000 1.0
C      1  0.5947030000000  0.5566730000000  0.4665570000000 1.0
C      1  0.5572150000000  0.5340180000000  0.4040830000000 1.0
C      1  0.4439050000000  0.4675500000000  0.4042250000000 1.0
C      1  0.4431540000000  0.5319530000000  0.5945030000000 1.0
C      1  0.4660440000000  0.4055210000000  0.4450760000000 1.0
C      1  0.5325730000000  0.5954440000000  0.4441220000000 1.0
C      1  0.5342410000000  0.4040420000000  0.5577300000000 1.0
C      1  0.5961010000000  0.4424610000000  0.5333180000000 1.0
C      1  0.4033630000000  0.5570240000000  0.5333670000000 1.0
C      1  0.4061860000000  0.4453070000000  0.4663030000000 1.0
C      1  0.4845080000000  0.5589120000000  0.4267200000000 1.0
C      1  0.5583350000000  0.4255830000000  0.4857150000000 1.0
C      1  0.4273040000000  0.4846270000000  0.5572280000000 1.0
C      1  0.4851300000000  0.4413720000000  0.5731990000000 1.0
C      1  0.5148210000000  0.5578150000000  0.5726520000000 1.0
C      1  0.5151120000000  0.4429570000000  0.4285260000000 1.0
C      1  0.5569630000000  0.5727190000000  0.5156990000000 1.0
C      1  0.4418490000000  0.4258490000000  0.5167770000000 1.0
C      1  0.4408280000000  0.5739130000000  0.4846710000000 1.0
C      1  0.4264010000000  0.5171220000000  0.4412470000000 1.0
C      1  0.5700820000000  0.4852160000000  0.4439140000000 1.0
C      1  0.5735830000000  0.5155790000000  0.5580230000000 1.0
C      1  0.5167920000000  0.4236860000000  0.4512770000000 1.0
C      1  0.4250550000000  0.4500500000000  0.5169830000000 1.0
C      1  0.4489500000000  0.5189090000000  0.4221980000000 1.0
C      1  0.5167290000000  0.5775950000000  0.5506880000000 1.0
C      1  0.4827450000000  0.4206280000000  0.5521470000000 1.0
C      1  0.4819030000000  0.5773280000000  0.4497530000000 1.0
C      1  0.4207300000000  0.5520330000000  0.4821000000000 1.0
C      1  0.5769790000000  0.4483110000000  0.4835080000000 1.0
C      1  0.5764800000000  0.5505670000000  0.5176410000000 1.0
C      1  0.4496020000000  0.4815370000000  0.5767730000000 1.0
C      1  0.5505390000000  0.5178910000000  0.5764960000000 1.0
C      1  0.5497460000000  0.4833290000000  0.4233840000000 1.0
C      1  0.4491560000000  0.5858670000000  0.5341510000000 1.0
C      1  0.5856320000000  0.5339490000000  0.4499500000000 1.0
C      1  0.5343310000000  0.4506610000000  0.5850780000000 1.0
C      1  0.4488570000000  0.4123470000000  0.4682810000000 1.0
C      1  0.5489210000000  0.5858660000000  0.4671800000000 1.0
C      1  0.5506980000000  0.4130310000000  0.5346980000000 1.0
C      1  0.5880670000000  0.4660220000000  0.5498290000000 1.0
C      1  0.4127330000000  0.5338570000000  0.5495580000000 1.0
C      1  0.4151320000000  0.4679060000000  0.4492660000000 1.0
C      1  0.5341700000000  0.5511160000000  0.4129000000000 1.0
C      1  0.4664670000000  0.4516840000000  0.4156280000000 1.0
C      1  0.4660340000000  0.5485770000000  0.5855220000000 1.0
C      1  0.5850320000000  0.5012720000000  0.5143910000000 1.0
C      1  0.5008500000000  0.5133940000000  0.5800640000000 1.0
C      1  0.5129510000000  0.5828370000000  0.5013940000000 1.0
C      1  0.5836540000000  0.5007940000000  0.4865800000000 1.0
C      1  0.4169380000000  0.5019670000000  0.4850430000000 1.0
C      1  0.4167330000000  0.4999580000000  0.5132090000000 1.0
C      1  0.5010410000000  0.4869410000000  0.4146670000000 1.0
C      1  0.4990480000000  0.5154170000000  0.4138900000000 1.0
C      1  0.4998630000000  0.4857270000000  0.5794930000000 1.0
C      1  0.5141280000000  0.4149480000000  0.5011840000000 1.0
C      1  0.4850470000000  0.5817010000000  0.4998560000000 1.0
C      1  0.4856550000000  0.4134450000000  0.5030430000000 1.0
C      1  0.5229210000000  0.5205260000000  0.4549150000000 1.0
C      1  0.5215240000000  0.4571980000000  0.5290780000000 1.0
C      1  0.4554900000000  0.5303390000000  0.5188880000000 1.0
C      1  0.5312900000000  0.4832260000000  0.5403320000000 1.0
C      1  0.4705410000000  0.5162600000000  0.5416650000000 1.0
C      1  0.4756580000000  0.4904890000000  0.4550540000000 1.0
C      1  0.5172150000000  0.5431780000000  0.4727030000000 1.0
C      1  0.4762800000000  0.4538550000000  0.4784090000000 1.0
C      1  0.4809560000000  0.5421230000000  0.5304790000000 1.0
C      1  0.4605970000000  0.4777100000000  0.4767710000000 1.0
C      1  0.5408770000000  0.5262360000000  0.4791450000000 1.0
C      1  0.5468580000000  0.4696210000000  0.5176590000000 1.0
C      1  0.5696960000000  0.4765360000000  0.4730350000000 1.0
C      1  0.4759310000000  0.4686640000000  0.5770210000000 1.0
C      1  0.4681880000000  0.5782920000000  0.4757060000000 1.0
C      1  0.5797450000000  0.5250790000000  0.5315040000000 1.0
C      1  0.4220030000000  0.4758980000000  0.5303040000000 1.0
C      1  0.4203700000000  0.5260760000000  0.4683070000000 1.0
C      1  0.4752270000000  0.5320460000000  0.4203390000000 1.0
C      1  0.5241890000000  0.4697350000000  0.4210390000000 1.0
C      1  0.5242970000000  0.5307330000000  0.5769030000000 1.0
C      1  0.4686170000000  0.4186040000000  0.5265100000000 1.0
C      1  0.5301830000000  0.5789900000000  0.5249130000000 1.0
C      1  0.5311520000000  0.4200170000000  0.4767110000000 1.0
C      1  0.5164790000000  0.5063790000000  0.5238120000000 1.0
C      1  0.5042830000000  0.5320180000000  0.5157730000000 1.0
C      1  0.5360890000000  0.5067300000000  0.5007240000000 1.0
C      1  0.5154160000000  0.4796210000000  0.4784070000000 1.0
C      1  0.5009640000000  0.5023560000000  0.4661800000000 1.0
C      1  0.4852210000000  0.4929120000000  0.5246750000000 1.0
C      1  0.4992990000000  0.4615360000000  0.4921630000000 1.0
C      1  0.4941770000000  0.5282230000000  0.4871150000000 1.0
C      1  0.4960460000000  0.4661170000000  0.5194770000000 1.0
C      1  0.5422820000000  0.4807140000000  0.4904950000000 1.0
C      1  0.4656240000000  0.5221930000000  0.4929000000000 1.0
C      1  0.4659350000000  0.4956950000000  0.5010990000000 1.0
END
