TITL C-180444-1507-10 0.305984661129581 125000 -671.937750743386 0 0 94 (C1) n - 1
REM
REM in /rds/project/t2_vol4/rds-t2-cs072/BORA/CARBON/from-Arr/AIRSS/Generating-Clusters/GAP-ML-2020/Higher-Symm/SD-CG/HFTN-CG
REM
REM
REM
REM
REM
REM ./C.cell (b20cbc046b6831c77cfcea5457e17084)
REM AIRSS Version 0.9.1 bugfix July 2018 build 013d7b7c2542+ Fri, 06 Jul 2018 19:26:36 +0100
REM compiler GCC version 9.3.0
REM options -cpp -mtune=generic -march=x86-64 -g -O0
REM seed -1653263203 733635641 1806023991 -1116038757 1969863249 502911108 1363878947 -1838421651 -1513196593 -1949252527 682002237 1926778974 -1380791504 -264964655 221430098 -547684653 -59605452 -471727128 -932263350 -144017388 -1889712247 281034381 1807548797 -1138334048 -495062444 -1656768351 1969186929 -1904057369 -1070014239 -1108567206 -1243731795 301448493 -66072657
REM
CELL 1.54180   50.00000   50.00000   50.00000   90.00000   90.00000   90.00000
LATT -1
SFAC C  
C      1  0.4494650000000  0.4352530000000  0.4994030000000 1.0
C      1  0.5396710000000  0.5052770000000  0.5079240000000 1.0
C      1  0.4622150000000  0.4541730000000  0.4569680000000 1.0
C      1  0.5044460000000  0.4221180000000  0.5107090000000 1.0
C      1  0.4708220000000  0.5440290000000  0.5645760000000 1.0
C      1  0.4886250000000  0.5410940000000  0.4378350000000 1.0
C      1  0.5559820000000  0.4291340000000  0.5027850000000 1.0
C      1  0.4826820000000  0.5661840000000  0.5516070000000 1.0
C      1  0.4745720000000  0.4895770000000  0.4271860000000 1.0
C      1  0.4669290000000  0.5742100000000  0.5290450000000 1.0
C      1  0.4683950000000  0.5062510000000  0.5189090000000 1.0
C      1  0.4330640000000  0.5643380000000  0.4793940000000 1.0
C      1  0.4070860000000  0.5261660000000  0.4746450000000 1.0
C      1  0.5452180000000  0.4946390000000  0.5659140000000 1.0
C      1  0.4507410000000  0.4764420000000  0.5513590000000 1.0
C      1  0.5424660000000  0.5244750000000  0.5623710000000 1.0
C      1  0.4577010000000  0.5719740000000  0.4644590000000 1.0
C      1  0.5430970000000  0.5508140000000  0.5202550000000 1.0
C      1  0.4760760000000  0.4684250000000  0.5636150000000 1.0
C      1  0.4900530000000  0.5077520000000  0.5932170000000 1.0
C      1  0.5396210000000  0.4882140000000  0.4431890000000 1.0
C      1  0.4813370000000  0.5853380000000  0.5071030000000 1.0
C      1  0.4437280000000  0.5560050000000  0.5293230000000 1.0
C      1  0.5854110000000  0.4959010000000  0.5351760000000 1.0
C      1  0.4792000000000  0.5835660000000  0.4776340000000 1.0
C      1  0.5971100000000  0.4841980000000  0.5118060000000 1.0
C      1  0.5613400000000  0.5300790000000  0.4535300000000 1.0
C      1  0.4370360000000  0.5390790000000  0.4391910000000 1.0
C      1  0.4119220000000  0.5043860000000  0.4578750000000 1.0
C      1  0.4203020000000  0.4791750000000  0.4984820000000 1.0
C      1  0.5448290000000  0.4820050000000  0.4948080000000 1.0
C      1  0.4136250000000  0.5272700000000  0.5027580000000 1.0
C      1  0.4423740000000  0.4547320000000  0.5356290000000 1.0
C      1  0.5100090000000  0.5807970000000  0.5044380000000 1.0
C      1  0.4922110000000  0.5125080000000  0.4345970000000 1.0
C      1  0.5138510000000  0.5524560000000  0.4546000000000 1.0
C      1  0.4592900000000  0.4326980000000  0.5263740000000 1.0
C      1  0.5243080000000  0.5702040000000  0.5264930000000 1.0
C      1  0.5661430000000  0.4813100000000  0.5513070000000 1.0
C      1  0.4626510000000  0.5531070000000  0.4417240000000 1.0
C      1  0.5860890000000  0.5259550000000  0.4984020000000 1.0
C      1  0.4857930000000  0.4285410000000  0.5326800000000 1.0
C      1  0.5912950000000  0.4586580000000  0.5028520000000 1.0
C      1  0.5318640000000  0.4255730000000  0.5184630000000 1.0
C      1  0.5403800000000  0.5459520000000  0.4437800000000 1.0
C      1  0.5228880000000  0.4765240000000  0.5728860000000 1.0
C      1  0.4191070000000  0.4798570000000  0.4690070000000 1.0
C      1  0.4614800000000  0.5053130000000  0.4725950000000 1.0
C      1  0.5184870000000  0.5404820000000  0.5672270000000 1.0
C      1  0.4297920000000  0.5116520000000  0.4351930000000 1.0
C      1  0.5666970000000  0.5365810000000  0.4812590000000 1.0
C      1  0.4957520000000  0.5205210000000  0.5209870000000 1.0
C      1  0.4763050000000  0.4791390000000  0.5085550000000 1.0
C      1  0.5618100000000  0.4371560000000  0.4750460000000 1.0
C      1  0.4939380000000  0.5323110000000  0.4947480000000 1.0
C      1  0.4749100000000  0.4808970000000  0.4786030000000 1.0
C      1  0.5820680000000  0.4583800000000  0.4754100000000 1.0
C      1  0.5646360000000  0.5005370000000  0.4492910000000 1.0
C      1  0.4209970000000  0.5031220000000  0.5158470000000 1.0
C      1  0.4948380000000  0.4253880000000  0.4824060000000 1.0
C      1  0.5030370000000  0.4816730000000  0.4708480000000 1.0
C      1  0.4436870000000  0.5051300000000  0.5377720000000 1.0
C      1  0.4673240000000  0.4332580000000  0.4773250000000 1.0
C      1  0.4198040000000  0.5479300000000  0.4609790000000 1.0
C      1  0.4916390000000  0.4454320000000  0.5555570000000 1.0
C      1  0.5800210000000  0.5231470000000  0.5276970000000 1.0
C      1  0.5070160000000  0.5760970000000  0.4749630000000 1.0
C      1  0.5154260000000  0.5015540000000  0.5237430000000 1.0
C      1  0.4309690000000  0.4559970000000  0.5087530000000 1.0
C      1  0.4954210000000  0.4847700000000  0.5790390000000 1.0
C      1  0.4929270000000  0.5309470000000  0.5788690000000 1.0
C      1  0.5141880000000  0.5036660000000  0.4544330000000 1.0
C      1  0.4478110000000  0.5344880000000  0.5491100000000 1.0
C      1  0.5620070000000  0.4543020000000  0.5420850000000 1.0
C      1  0.5190350000000  0.4505850000000  0.5615410000000 1.0
C      1  0.5167420000000  0.5293740000000  0.4755950000000 1.0
C      1  0.5110210000000  0.5635810000000  0.5514230000000 1.0
C      1  0.5579900000000  0.5362170000000  0.5402230000000 1.0
C      1  0.5376900000000  0.4398540000000  0.5436080000000 1.0
C      1  0.5406580000000  0.4376040000000  0.4569790000000 1.0
C      1  0.5037440000000  0.4761200000000  0.5155640000000 1.0
C      1  0.5123550000000  0.4304120000000  0.4599200000000 1.0
C      1  0.4378560000000  0.4682660000000  0.4498830000000 1.0
C      1  0.5745440000000  0.4434840000000  0.5190030000000 1.0
C      1  0.5340910000000  0.4602290000000  0.4392300000000 1.0
C      1  0.4274490000000  0.5529400000000  0.5065240000000 1.0
C      1  0.5197260000000  0.4705650000000  0.4914850000000 1.0
C      1  0.4460340000000  0.4890590000000  0.4307060000000 1.0
C      1  0.5840480000000  0.4862680000000  0.4661720000000 1.0
C      1  0.5062250000000  0.4493230000000  0.4374550000000 1.0
C      1  0.4815320000000  0.4616670000000  0.4348330000000 1.0
C      1  0.4668000000000  0.5233880000000  0.4912830000000 1.0
C      1  0.5953380000000  0.5009800000000  0.4887920000000 1.0
C      1  0.5411150000000  0.5338000000000  0.4951570000000 1.0
END
