TITL C-188675-9551-10 87.9910934338608 125000 -380.92393107724 0 0 56 (C4) n - 1
REM
REM in /rds/project/t2_vol4/rds-t2-cs072/BORA/CARBON/from-Arr/AIRSS/Generating-Clusters/GAP-ML-2020/Higher-Symm/SD-CG/HFTN-CG
REM
REM
REM
REM
REM
REM ./C.cell (b20cbc046b6831c77cfcea5457e17084)
REM AIRSS Version 0.9.1 bugfix July 2018 build 013d7b7c2542+ Fri, 06 Jul 2018 19:26:36 +0100
REM compiler GCC version 9.3.0
REM options -cpp -mtune=generic -march=x86-64 -g -O0
REM seed -1669887596 -46362990 1703512263 1920078335 1548828063 -1401973340 -1453280047 509723487 -1942359100 -2043663791 1900354370 -1320421543 -569408948 -554292569 -663358827 -186489799 -391918336 -106808354 -989337103 -298734473 -1640798119 -2125468226 1556838957 1500901891 1575316625 -634885581 1796183725 -107471616 -749135501 -1692503130 2133304192 -782148862 -92893817
REM
CELL 1.54180   50.00000   50.00000   50.00000   90.00000   90.00000   90.00000
LATT -1
SFAC C  
C      1  0.4675230000000  0.4584450000000  0.4766130000000 1.0
C      1  0.4675230000000  0.4766130000000  0.5415540000000 1.0
C      1  0.4675220000000  0.5415540000000  0.5233870000000 1.0
C      1  0.4675220000000  0.5233860000000  0.4584460000000 1.0
C      1  0.5324780000000  0.4584460000000  0.5233860000000 1.0
C      1  0.5324770000000  0.4766140000000  0.4584450000000 1.0
C      1  0.5324770000000  0.5415550000000  0.4766140000000 1.0
C      1  0.5324770000000  0.5233870000000  0.5415540000000 1.0
C      1  0.5362620000000  0.4528540000000  0.4760880000000 1.0
C      1  0.5362620000000  0.4760890000000  0.5471460000000 1.0
C      1  0.5362620000000  0.5471470000000  0.5239120000000 1.0
C      1  0.5362610000000  0.5239120000000  0.4528530000000 1.0
C      1  0.4637390000000  0.4528530000000  0.5239110000000 1.0
C      1  0.4637380000000  0.4760880000000  0.4528530000000 1.0
C      1  0.4637380000000  0.5471460000000  0.4760890000000 1.0
C      1  0.4637380000000  0.5239110000000  0.5471470000000 1.0
C      1  0.4860570000000  0.4369100000000  0.4846600000000 1.0
C      1  0.4860570000000  0.4846600000000  0.5630900000000 1.0
C      1  0.4860570000000  0.5630900000000  0.5153400000000 1.0
C      1  0.4860570000000  0.5153400000000  0.4369100000000 1.0
C      1  0.5139440000000  0.4369100000000  0.5153400000000 1.0
C      1  0.5139430000000  0.4846610000000  0.4369090000000 1.0
C      1  0.5139430000000  0.5630910000000  0.4846600000000 1.0
C      1  0.5139430000000  0.5153400000000  0.5630900000000 1.0
C      1  0.5151100000000  0.4367970000000  0.4857690000000 1.0
C      1  0.5151100000000  0.4857690000000  0.5632030000000 1.0
C      1  0.5151090000000  0.5632030000000  0.5142310000000 1.0
C      1  0.5151090000000  0.5142310000000  0.4367970000000 1.0
C      1  0.4848910000000  0.4367970000000  0.5142310000000 1.0
C      1  0.4848910000000  0.4857690000000  0.4367970000000 1.0
C      1  0.4848900000000  0.5632030000000  0.4857690000000 1.0
C      1  0.4848910000000  0.5142310000000  0.5632030000000 1.0
C      1  0.5519630000000  0.4995830000000  0.4587260000000 1.0
C      1  0.5519630000000  0.4587260000000  0.5004170000000 1.0
C      1  0.5519630000000  0.5004180000000  0.5412740000000 1.0
C      1  0.5519620000000  0.5412750000000  0.4995830000000 1.0
C      1  0.4480370000000  0.4995820000000  0.5412740000000 1.0
C      1  0.4480380000000  0.4587260000000  0.4995830000000 1.0
C      1  0.4480370000000  0.5004170000000  0.4587260000000 1.0
C      1  0.4480370000000  0.5412740000000  0.5004180000000 1.0
C      1  0.4304000000000  0.5206610000000  0.5000180000000 1.0
C      1  0.4304000000000  0.5000180000000  0.4793390000000 1.0
C      1  0.4304010000000  0.4793380000000  0.4999820000000 1.0
C      1  0.4304000000000  0.4999810000000  0.5206620000000 1.0
C      1  0.5695990000000  0.5206620000000  0.4999820000000 1.0
C      1  0.5695990000000  0.5000190000000  0.5206610000000 1.0
C      1  0.5696000000000  0.4793390000000  0.5000180000000 1.0
C      1  0.5695990000000  0.4999820000000  0.4793380000000 1.0
C      1  0.4852800000000  0.5164350000000  0.5135080000000 1.0
C      1  0.4852800000000  0.5135080000000  0.4835650000000 1.0
C      1  0.4852800000000  0.4835650000000  0.4864920000000 1.0
C      1  0.4852800000000  0.4864920000000  0.5164350000000 1.0
C      1  0.5147200000000  0.5164350000000  0.4864920000000 1.0
C      1  0.5147200000000  0.5135080000000  0.5164350000000 1.0
C      1  0.5147210000000  0.4835650000000  0.5135080000000 1.0
C      1  0.5147200000000  0.4864920000000  0.4835650000000 1.0
END
