TITL C-188654-9454-2 -0.148325078896377 125000 -715.761950959493 0 0 104 (C2v) n - 1
REM
REM in /rds/project/t2_vol4/rds-t2-cs072/BORA/CARBON/from-Arr/AIRSS/Generating-Clusters/GAP-ML-2020/Higher-Symm/SD-CG/HFTN-CG
REM
REM
REM
REM
REM
REM ./C.cell (b20cbc046b6831c77cfcea5457e17084)
REM AIRSS Version 0.9.1 bugfix July 2018 build 013d7b7c2542+ Fri, 06 Jul 2018 19:26:36 +0100
REM compiler GCC version 9.3.0
REM options -cpp -mtune=generic -march=x86-64 -g -O0
REM seed 302395099 1940078892 -1210434157 773201705 -1694568822 -1892234018 -69098767 452318048 -1053390445 -2024589885 609677883 69741566 1796699750 -1768320081 -1529076391 2002713953 485217691 -440489760 -264839279 -824213230 -654060886 673133045 283902602 -2146785740 -351461069 -393477139 -887902299 -1394397145 -113849651 655944369 -1853002080 -4262789 -308795542
REM
CELL 1.54180   50.00000   50.00000   50.00000   90.00000   90.00000   90.00000
LATT -1
SFAC C  
C      1  0.4364980000000  0.5468010000000  0.5262010000000 1.0
C      1  0.4365300000000  0.4531550000000  0.4738010000000 1.0
C      1  0.4364970000000  0.5468000000000  0.4737980000000 1.0
C      1  0.4365310000000  0.4531560000000  0.5262030000000 1.0
C      1  0.4972650000000  0.5276940000000  0.5154340000000 1.0
C      1  0.4972840000000  0.4723040000000  0.4845660000000 1.0
C      1  0.4972650000000  0.5276930000000  0.4845650000000 1.0
C      1  0.4972850000000  0.4723050000000  0.5154350000000 1.0
C      1  0.4738490000000  0.5731140000000  0.5562940000000 1.0
C      1  0.4738990000000  0.4268680000000  0.4437070000000 1.0
C      1  0.4738480000000  0.5731110000000  0.4437040000000 1.0
C      1  0.4739010000000  0.4268700000000  0.5562970000000 1.0
C      1  0.5186450000000  0.4863190000000  0.5964340000000 1.0
C      1  0.5186330000000  0.5136940000000  0.4035650000000 1.0
C      1  0.5186420000000  0.4863150000000  0.4035660000000 1.0
C      1  0.5186360000000  0.5136980000000  0.5964340000000 1.0
C      1  0.4493120000000  0.4303120000000  0.4857660000000 1.0
C      1  0.4492640000000  0.5696530000000  0.5142350000000 1.0
C      1  0.4493130000000  0.4303120000000  0.5142390000000 1.0
C      1  0.4492630000000  0.5696520000000  0.4857630000000 1.0
C      1  0.5664900000000  0.5136790000000  0.5374640000000 1.0
C      1  0.5664980000000  0.4863670000000  0.4625340000000 1.0
C      1  0.5664890000000  0.5136770000000  0.4625340000000 1.0
C      1  0.5664990000000  0.4863690000000  0.5374650000000 1.0
C      1  0.5487410000000  0.5554510000000  0.4456950000000 1.0
C      1  0.5487810000000  0.4445840000000  0.5543040000000 1.0
C      1  0.5487420000000  0.5554530000000  0.5543010000000 1.0
C      1  0.5487800000000  0.4445810000000  0.4456980000000 1.0
C      1  0.4301880000000  0.4875740000000  0.4418980000000 1.0
C      1  0.4301810000000  0.5123770000000  0.5581040000000 1.0
C      1  0.4301900000000  0.4875770000000  0.5581040000000 1.0
C      1  0.4301790000000  0.5123740000000  0.4418980000000 1.0
C      1  0.4776340000000  0.5274810000000  0.5613960000000 1.0
C      1  0.4776520000000  0.4725040000000  0.4386040000000 1.0
C      1  0.4776330000000  0.5274780000000  0.4386030000000 1.0
C      1  0.4776540000000  0.4725070000000  0.5613980000000 1.0
C      1  0.4495790000000  0.4753870000000  0.4859680000000 1.0
C      1  0.4495620000000  0.5245770000000  0.5140330000000 1.0
C      1  0.4495790000000  0.4753880000000  0.5140350000000 1.0
C      1  0.4495620000000  0.5245770000000  0.4859670000000 1.0
C      1  0.4347650000000  0.4598160000000  0.4460300000000 1.0
C      1  0.4347380000000  0.5401380000000  0.5539720000000 1.0
C      1  0.4347670000000  0.4598190000000  0.5539740000000 1.0
C      1  0.4347370000000  0.5401350000000  0.4460280000000 1.0
C      1  0.5509390000000  0.4717060000000  0.4849820000000 1.0
C      1  0.5509190000000  0.5283290000000  0.5150170000000 1.0
C      1  0.5509390000000  0.4717070000000  0.5150180000000 1.0
C      1  0.5509190000000  0.5283290000000  0.4849810000000 1.0
C      1  0.5480490000000  0.5557540000000  0.4741130000000 1.0
C      1  0.5480890000000  0.4442800000000  0.5258850000000 1.0
C      1  0.5480500000000  0.5557550000000  0.5258830000000 1.0
C      1  0.5480880000000  0.4442780000000  0.4741160000000 1.0
C      1  0.5235030000000  0.5711090000000  0.5257770000000 1.0
C      1  0.5235520000000  0.4289080000000  0.4742230000000 1.0
C      1  0.5235020000000  0.5711080000000  0.4742190000000 1.0
C      1  0.5235530000000  0.4289090000000  0.5257800000000 1.0
C      1  0.5246190000000  0.4847450000000  0.5541620000000 1.0
C      1  0.5246070000000  0.5152720000000  0.4458370000000 1.0
C      1  0.5246170000000  0.4847420000000  0.4458380000000 1.0
C      1  0.5246080000000  0.5152750000000  0.5541610000000 1.0
C      1  0.5251890000000  0.5740290000000  0.4450020000000 1.0
C      1  0.5252430000000  0.4259880000000  0.5549980000000 1.0
C      1  0.5251910000000  0.5740320000000  0.5549940000000 1.0
C      1  0.5252410000000  0.4259860000000  0.4450050000000 1.0
C      1  0.5478340000000  0.4857500000000  0.5882310000000 1.0
C      1  0.5478220000000  0.5142840000000  0.4117680000000 1.0
C      1  0.5478320000000  0.4857460000000  0.4117680000000 1.0
C      1  0.5478240000000  0.5142880000000  0.5882300000000 1.0
C      1  0.4740390000000  0.5155150000000  0.5314110000000 1.0
C      1  0.4740490000000  0.4844660000000  0.4685900000000 1.0
C      1  0.4740380000000  0.5155140000000  0.4685890000000 1.0
C      1  0.4740500000000  0.4844680000000  0.5314110000000 1.0
C      1  0.5519580000000  0.5269020000000  0.5614050000000 1.0
C      1  0.5519750000000  0.4731340000000  0.4385940000000 1.0
C      1  0.5519560000000  0.5268990000000  0.4385930000000 1.0
C      1  0.5519770000000  0.4731370000000  0.5614060000000 1.0
C      1  0.5227460000000  0.4846220000000  0.5243420000000 1.0
C      1  0.5227350000000  0.5153940000000  0.4756570000000 1.0
C      1  0.5227450000000  0.4846210000000  0.4756580000000 1.0
C      1  0.5227350000000  0.5153950000000  0.5243410000000 1.0
C      1  0.4980160000000  0.4384740000000  0.4848000000000 1.0
C      1  0.4979730000000  0.5615250000000  0.5152000000000 1.0
C      1  0.4980170000000  0.4384740000000  0.5152030000000 1.0
C      1  0.4979730000000  0.5615240000000  0.4847970000000 1.0
C      1  0.4738700000000  0.4257240000000  0.4721810000000 1.0
C      1  0.4738180000000  0.5742570000000  0.5278200000000 1.0
C      1  0.4738700000000  0.4257260000000  0.5278240000000 1.0
C      1  0.4738170000000  0.5742560000000  0.4721770000000 1.0
C      1  0.5129210000000  0.4431740000000  0.4227580000000 1.0
C      1  0.5128840000000  0.5568350000000  0.5772420000000 1.0
C      1  0.5129240000000  0.4431780000000  0.5772440000000 1.0
C      1  0.5128820000000  0.5568310000000  0.4227550000000 1.0
C      1  0.4990880000000  0.4219880000000  0.5686320000000 1.0
C      1  0.4990320000000  0.5780110000000  0.4313680000000 1.0
C      1  0.4990860000000  0.4219850000000  0.4313710000000 1.0
C      1  0.4990340000000  0.5780140000000  0.5686290000000 1.0
C      1  0.4593680000000  0.5495580000000  0.5651730000000 1.0
C      1  0.4594010000000  0.4504130000000  0.4348290000000 1.0
C      1  0.4593660000000  0.5495550000000  0.4348260000000 1.0
C      1  0.4594030000000  0.4504170000000  0.5651750000000 1.0
C      1  0.5048960000000  0.4714000000000  0.4266800000000 1.0
C      1  0.5048780000000  0.5286040000000  0.5733200000000 1.0
C      1  0.5048980000000  0.4714030000000  0.5733210000000 1.0
C      1  0.5048760000000  0.5286000000000  0.4266780000000 1.0
END
