TITL C-180228-5860-7 -122.970486100419 125000 -1108.62896752183 0 0 157 (C1) n - 1
REM
REM in /rds/project/t2_vol4/rds-t2-cs072/BORA/CARBON/from-Arr/AIRSS/Generating-Clusters/GAP-ML-2020/Higher-Symm/SD-CG/HFTN-CG
REM
REM
REM
REM
REM
REM ./C.cell (b20cbc046b6831c77cfcea5457e17084)
REM AIRSS Version 0.9.1 bugfix July 2018 build 013d7b7c2542+ Fri, 06 Jul 2018 19:26:36 +0100
REM compiler GCC version 9.3.0
REM options -cpp -mtune=generic -march=x86-64 -g -O0
REM seed -1187584587 599275466 1891073064 -1440845190 -49307378 1773963987 1134079645 1336271565 -520820705 -850289896 885773091 -1083022272 -1573352058 2026826828 2109304385 220377573 -1049115899 -1453627888 471071462 1702717543 -1090096179 -1143358262 -411971197 -1552124838 -1234143112 1569129009 211145403 -1828581818 -258663777 1658001830 -832654948 -1811936392 641662863
REM
CELL 1.54180   50.00000   50.00000   50.00000   90.00000   90.00000   90.00000
LATT -1
SFAC C  
C      1  0.5178940000000  0.4113830000000  0.5294180000000 1.0
C      1  0.4224930000000  0.4544750000000  0.5285880000000 1.0
C      1  0.4328770000000  0.5586970000000  0.5287990000000 1.0
C      1  0.5351060000000  0.5800990000000  0.5287580000000 1.0
C      1  0.5851190000000  0.4898150000000  0.5300520000000 1.0
C      1  0.4603280000000  0.5958220000000  0.5226220000000 1.0
C      1  0.5798640000000  0.5700480000000  0.5235210000000 1.0
C      1  0.5864690000000  0.4438900000000  0.5233910000000 1.0
C      1  0.4738090000000  0.3977880000000  0.5223670000000 1.0
C      1  0.3956730000000  0.4921300000000  0.5221020000000 1.0
C      1  0.5071130000000  0.5927670000000  0.5307110000000 1.0
C      1  0.5951550000000  0.5196130000000  0.5269030000000 1.0
C      1  0.5478220000000  0.4177080000000  0.5318110000000 1.0
C      1  0.4378820000000  0.4278060000000  0.5308940000000 1.0
C      1  0.4124860000000  0.5357970000000  0.5309620000000 1.0
C      1  0.4389390000000  0.4741770000000  0.5102850000000 1.0
C      1  0.4563170000000  0.5494530000000  0.5099590000000 1.0
C      1  0.5333430000000  0.5557030000000  0.5091080000000 1.0
C      1  0.5588410000000  0.4856830000000  0.5104190000000 1.0
C      1  0.5038450000000  0.4328240000000  0.5104910000000 1.0
C      1  0.5508440000000  0.5020390000000  0.4708640000000 1.0
C      1  0.5158030000000  0.4529710000000  0.4744860000000 1.0
C      1  0.4609330000000  0.4701600000000  0.4738470000000 1.0
C      1  0.4601540000000  0.5272630000000  0.4733620000000 1.0
C      1  0.5130000000000  0.5463390000000  0.4719740000000 1.0
C      1  0.5954190000000  0.4860560000000  0.4688220000000 1.0
C      1  0.5132770000000  0.4050010000000  0.4676550000000 1.0
C      1  0.4141940000000  0.4574350000000  0.4676790000000 1.0
C      1  0.4326220000000  0.5675840000000  0.4676240000000 1.0
C      1  0.5419140000000  0.5859660000000  0.4668330000000 1.0
C      1  0.4919660000000  0.5233200000000  0.4003130000000 1.0
C      1  0.5194300000000  0.5144470000000  0.4002850000000 1.0
C      1  0.5195990000000  0.4856150000000  0.4014940000000 1.0
C      1  0.4922320000000  0.4768540000000  0.4019060000000 1.0
C      1  0.4752190000000  0.5000450000000  0.4012770000000 1.0
C      1  0.3961890000000  0.5737860000000  0.4868040000000 1.0
C      1  0.5367160000000  0.6222760000000  0.4870030000000 1.0
C      1  0.6128160000000  0.5087500000000  0.5007100000000 1.0
C      1  0.5395310000000  0.3799740000000  0.4872190000000 1.0
C      1  0.3970320000000  0.4244470000000  0.4862840000000 1.0
C      1  0.5297490000000  0.4463080000000  0.4275770000000 1.0
C      1  0.4577150000000  0.4550970000000  0.4270520000000 1.0
C      1  0.4439190000000  0.5258490000000  0.4268270000000 1.0
C      1  0.5062630000000  0.5613600000000  0.4254570000000 1.0
C      1  0.5609020000000  0.5126230000000  0.4241870000000 1.0
C      1  0.3925420000000  0.4521180000000  0.4886040000000 1.0
C      1  0.4211700000000  0.5864540000000  0.4890070000000 1.0
C      1  0.5564140000000  0.6025940000000  0.4896450000000 1.0
C      1  0.6118160000000  0.4802540000000  0.4934990000000 1.0
C      1  0.5116770000000  0.3829380000000  0.4889190000000 1.0
C      1  0.4932080000000  0.5841190000000  0.5540630000000 1.0
C      1  0.5829420000000  0.5346060000000  0.5546270000000 1.0
C      1  0.5544960000000  0.4328760000000  0.5553830000000 1.0
C      1  0.4543190000000  0.4260880000000  0.5541410000000 1.0
C      1  0.4163770000000  0.5193690000000  0.5539030000000 1.0
C      1  0.4582120000000  0.5512440000000  0.4249340000000 1.0
C      1  0.5349700000000  0.5558290000000  0.4235780000000 1.0
C      1  0.5636190000000  0.4829520000000  0.4250590000000 1.0
C      1  0.5028410000000  0.4344760000000  0.4258030000000 1.0
C      1  0.4381660000000  0.4768380000000  0.4253950000000 1.0
C      1  0.4759920000000  0.4981070000000  0.5936350000000 1.0
C      1  0.4917720000000  0.5214900000000  0.5933560000000 1.0
C      1  0.5194630000000  0.5152840000000  0.5964680000000 1.0
C      1  0.5197020000000  0.4866630000000  0.5947960000000 1.0
C      1  0.4933780000000  0.4762170000000  0.5942840000000 1.0
C      1  0.4757120000000  0.4082040000000  0.5488400000000 1.0
C      1  0.4061570000000  0.4934300000000  0.5484760000000 1.0
C      1  0.4652700000000  0.5860140000000  0.5488000000000 1.0
C      1  0.5743270000000  0.5615000000000  0.5501000000000 1.0
C      1  0.5775650000000  0.4485170000000  0.5501280000000 1.0
C      1  0.5645600000000  0.5215750000000  0.4508740000000 1.0
C      1  0.5388220000000  0.4460270000000  0.4548460000000 1.0
C      1  0.4606780000000  0.4465100000000  0.4541130000000 1.0
C      1  0.4374020000000  0.5199760000000  0.4539690000000 1.0
C      1  0.4985820000000  0.5655720000000  0.4526290000000 1.0
C      1  0.4845750000000  0.5403280000000  0.5724690000000 1.0
C      1  0.5391370000000  0.5321520000000  0.5852900000000 1.0
C      1  0.5374330000000  0.4747180000000  0.5757550000000 1.0
C      1  0.4875370000000  0.4547980000000  0.5754140000000 1.0
C      1  0.4543560000000  0.4964110000000  0.5743330000000 1.0
C      1  0.4548370000000  0.5446790000000  0.5712200000000 1.0
C      1  0.5306240000000  0.5580440000000  0.5748800000000 1.0
C      1  0.5627420000000  0.4896660000000  0.5732930000000 1.0
C      1  0.5090960000000  0.4345900000000  0.5729370000000 1.0
C      1  0.4413740000000  0.4698360000000  0.5721940000000 1.0
C      1  0.4592780000000  0.4943210000000  0.5179070000000 1.0
C      1  0.4817200000000  0.5368440000000  0.5176150000000 1.0
C      1  0.5529650000000  0.5343740000000  0.5157040000000 1.0
C      1  0.5364870000000  0.4710200000000  0.5217060000000 1.0
C      1  0.4906210000000  0.4581990000000  0.5185310000000 1.0
C      1  0.4393090000000  0.5213260000000  0.5706010000000 1.0
C      1  0.5028980000000  0.5634790000000  0.5712170000000 1.0
C      1  0.5602830000000  0.5190440000000  0.5679520000000 1.0
C      1  0.5353470000000  0.4447770000000  0.5727010000000 1.0
C      1  0.4590310000000  0.4479230000000  0.5716400000000 1.0
C      1  0.5675050000000  0.4258080000000  0.5109060000000 1.0
C      1  0.4509070000000  0.4111200000000  0.5102440000000 1.0
C      1  0.4008300000000  0.5182020000000  0.5101970000000 1.0
C      1  0.4864160000000  0.5990660000000  0.5102830000000 1.0
C      1  0.5827780000000  0.5433170000000  0.5097690000000 1.0
C      1  0.5653670000000  0.5483270000000  0.4613060000000 1.0
C      1  0.5651010000000  0.4521090000000  0.4647850000000 1.0
C      1  0.4729110000000  0.4226300000000  0.4641170000000 1.0
C      1  0.4184570000000  0.5011970000000  0.4642290000000 1.0
C      1  0.4753700000000  0.5777400000000  0.4639410000000 1.0
C      1  0.4818940000000  0.5146690000000  0.4601870000000 1.0
C      1  0.5091720000000  0.5215970000000  0.4585030000000 1.0
C      1  0.5244590000000  0.4977970000000  0.4600510000000 1.0
C      1  0.5061430000000  0.4765390000000  0.4626130000000 1.0
C      1  0.4803540000000  0.4869730000000  0.4624160000000 1.0
C      1  0.4492560000000  0.5011600000000  0.4133220000000 1.0
C      1  0.4846170000000  0.5483810000000  0.4121850000000 1.0
C      1  0.5412350000000  0.5293130000000  0.4114210000000 1.0
C      1  0.5400860000000  0.4694100000000  0.4138170000000 1.0
C      1  0.4830140000000  0.4525250000000  0.4138170000000 1.0
C      1  0.6013140000000  0.4672770000000  0.5161250000000 1.0
C      1  0.5004260000000  0.3899560000000  0.5145060000000 1.0
C      1  0.3966210000000  0.4645820000000  0.5141500000000 1.0
C      1  0.4344240000000  0.5863670000000  0.5145840000000 1.0
C      1  0.5609390000000  0.5894690000000  0.5150560000000 1.0
C      1  0.6023180000000  0.5169070000000  0.4755010000000 1.0
C      1  0.5446210000000  0.4041810000000  0.4740620000000 1.0
C      1  0.4221830000000  0.4269880000000  0.4739570000000 1.0
C      1  0.4063360000000  0.5507200000000  0.4740170000000 1.0
C      1  0.5183350000000  0.6052430000000  0.4733420000000 1.0
C      1  0.5393730000000  0.5590220000000  0.4792070000000 1.0
C      1  0.5670210000000  0.4788670000000  0.4809140000000 1.0
C      1  0.4995090000000  0.4279590000000  0.4810780000000 1.0
C      1  0.4322340000000  0.4773740000000  0.4810980000000 1.0
C      1  0.4573640000000  0.5568360000000  0.4807980000000 1.0
C      1  0.4483460000000  0.4159220000000  0.4812570000000 1.0
C      1  0.4043370000000  0.5223380000000  0.4812270000000 1.0
C      1  0.4908970000000  0.5977900000000  0.4811210000000 1.0
C      1  0.5878060000000  0.5409790000000  0.4797670000000 1.0
C      1  0.5630270000000  0.4257150000000  0.4817070000000 1.0
C      1  0.4614560000000  0.5198470000000  0.5032910000000 1.0
C      1  0.5071490000000  0.5400890000000  0.5020820000000 1.0
C      1  0.5452460000000  0.5104730000000  0.4998660000000 1.0
C      1  0.5174180000000  0.4590180000000  0.5045840000000 1.0
C      1  0.4683020000000  0.4694990000000  0.5035970000000 1.0
C      1  0.4164290000000  0.4772460000000  0.4445280000000 1.0
C      1  0.4518250000000  0.5719370000000  0.4442620000000 1.0
C      1  0.5522160000000  0.5689970000000  0.4429090000000 1.0
C      1  0.5809910000000  0.4706440000000  0.4451220000000 1.0
C      1  0.4954610000000  0.4135870000000  0.4444170000000 1.0
C      1  0.4927570000000  0.4720060000000  0.5451620000000 1.0
C      1  0.4734390000000  0.4961060000000  0.5445060000000 1.0
C      1  0.4896450000000  0.5222040000000  0.5435400000000 1.0
C      1  0.5440130000000  0.5237030000000  0.5416480000000 1.0
C      1  0.5212860000000  0.4822720000000  0.5450900000000 1.0
C      1  0.4196190000000  0.4694680000000  0.5547740000000 1.0
C      1  0.4467230000000  0.5657130000000  0.5549100000000 1.0
C      1  0.5474080000000  0.5698640000000  0.5553120000000 1.0
C      1  0.5796930000000  0.4762330000000  0.5561180000000 1.0
C      1  0.5026280000000  0.4138280000000  0.5552550000000 1.0
C      1  0.5165930000000  0.5119690000000  0.5071460000000 1.0
C      1  0.5176890000000  0.5109510000000  0.5376950000000 1.0
END
