TITL C-183214-7504-6 -179.352886111861 125000 -784.195484247519 0 0 112 (C1) n - 1
REM
REM in /rds/project/t2_vol4/rds-t2-cs072/BORA/CARBON/from-Arr/AIRSS/Generating-Clusters/GAP-ML-2020/Higher-Symm/SD-CG/HFTN-CG
REM
REM
REM
REM
REM
REM ./C.cell (b20cbc046b6831c77cfcea5457e17084)
REM AIRSS Version 0.9.1 bugfix July 2018 build 013d7b7c2542+ Fri, 06 Jul 2018 19:26:36 +0100
REM compiler GCC version 9.3.0
REM options -cpp -mtune=generic -march=x86-64 -g -O0
REM seed 319949267 -2074342752 100786785 2044656056 1378248286 240220946 644484597 1224564911 1235503454 1522595329 1297764756 1288133440 -630519614 1433248254 -1089365407 220337020 -2108518718 95976801 1173986962 411693920 -590516292 -1019934780 -76204484 -1951051188 -1068001606 -7964706 1447728663 18032328 1059856537 -1845400464 -1847256889 937505406 597151061
REM
CELL 1.54180   50.00000   50.00000   50.00000   90.00000   90.00000   90.00000
LATT -1
SFAC C  
C      1  0.4632800000000  0.5624020000000  0.4441230000000 1.0
C      1  0.5722010000000  0.4534230000000  0.4637670000000 1.0
C      1  0.4450490000000  0.4538130000000  0.5784670000000 1.0
C      1  0.4760270000000  0.4247800000000  0.5572260000000 1.0
C      1  0.5280480000000  0.5682920000000  0.5528140000000 1.0
C      1  0.5350710000000  0.4299940000000  0.4432580000000 1.0
C      1  0.5691960000000  0.5461250000000  0.5366140000000 1.0
C      1  0.4372700000000  0.4451550000000  0.5327090000000 1.0
C      1  0.4252390000000  0.5480200000000  0.4723290000000 1.0
C      1  0.4392790000000  0.5232280000000  0.4315940000000 1.0
C      1  0.5510660000000  0.4728030000000  0.4248990000000 1.0
C      1  0.5456030000000  0.5250730000000  0.5742290000000 1.0
C      1  0.4712210000000  0.4437550000000  0.5777050000000 1.0
C      1  0.5711160000000  0.4745480000000  0.4451620000000 1.0
C      1  0.4445340000000  0.5682350000000  0.4661890000000 1.0
C      1  0.4519860000000  0.5463320000000  0.4247180000000 1.0
C      1  0.5258170000000  0.5439740000000  0.5667050000000 1.0
C      1  0.5317720000000  0.4515350000000  0.4251060000000 1.0
C      1  0.5658370000000  0.5237850000000  0.5550110000000 1.0
C      1  0.4221010000000  0.5257820000000  0.4545830000000 1.0
C      1  0.4362960000000  0.4642670000000  0.5544520000000 1.0
C      1  0.4564790000000  0.4243150000000  0.5362160000000 1.0
C      1  0.5521810000000  0.4330320000000  0.4657310000000 1.0
C      1  0.5511420000000  0.5692240000000  0.5362110000000 1.0
C      1  0.5092520000000  0.4991680000000  0.5636830000000 1.0
C      1  0.5005440000000  0.5778330000000  0.5145600000000 1.0
C      1  0.5503250000000  0.5210100000000  0.5045110000000 1.0
C      1  0.5192360000000  0.4994580000000  0.4412340000000 1.0
C      1  0.4792640000000  0.5015170000000  0.4438850000000 1.0
C      1  0.4686900000000  0.5085700000000  0.5829360000000 1.0
C      1  0.5033530000000  0.4328880000000  0.4738250000000 1.0
C      1  0.4999980000000  0.5560420000000  0.4757750000000 1.0
C      1  0.4983230000000  0.4159910000000  0.5170050000000 1.0
C      1  0.5721410000000  0.4851950000000  0.4957930000000 1.0
C      1  0.4483510000000  0.5236940000000  0.5081250000000 1.0
C      1  0.4537790000000  0.4788690000000  0.5016060000000 1.0
C      1  0.5209350000000  0.5642160000000  0.4993480000000 1.0
C      1  0.5029320000000  0.5278310000000  0.5576510000000 1.0
C      1  0.5556890000000  0.4943450000000  0.5183710000000 1.0
C      1  0.5162980000000  0.4204720000000  0.4958660000000 1.0
C      1  0.4696130000000  0.4171340000000  0.5114130000000 1.0
C      1  0.4793370000000  0.5643710000000  0.4974810000000 1.0
C      1  0.4986230000000  0.4775460000000  0.4443070000000 1.0
C      1  0.4885160000000  0.4881740000000  0.5821100000000 1.0
C      1  0.4995930000000  0.5188040000000  0.4307450000000 1.0
C      1  0.5563210000000  0.5044100000000  0.4786320000000 1.0
C      1  0.4541270000000  0.4977560000000  0.5249500000000 1.0
C      1  0.4485690000000  0.5044440000000  0.4856700000000 1.0
C      1  0.5467610000000  0.5589390000000  0.4512170000000 1.0
C      1  0.5870100000000  0.4411450000000  0.5096370000000 1.0
C      1  0.4421310000000  0.5420920000000  0.5637320000000 1.0
C      1  0.5246630000000  0.4370360000000  0.5547240000000 1.0
C      1  0.4753390000000  0.5763110000000  0.5537390000000 1.0
C      1  0.4917170000000  0.4127580000000  0.4286950000000 1.0
C      1  0.5782760000000  0.5569830000000  0.4871490000000 1.0
C      1  0.4246320000000  0.4532680000000  0.4752140000000 1.0
C      1  0.4205410000000  0.5625760000000  0.5190060000000 1.0
C      1  0.4425430000000  0.4724000000000  0.4371470000000 1.0
C      1  0.5531910000000  0.5242520000000  0.4235430000000 1.0
C      1  0.5416330000000  0.4730670000000  0.5787070000000 1.0
C      1  0.5203480000000  0.4533730000000  0.5775240000000 1.0
C      1  0.5751120000000  0.5258320000000  0.4427070000000 1.0
C      1  0.4399430000000  0.5849190000000  0.5127920000000 1.0
C      1  0.5353270000000  0.5462210000000  0.4294150000000 1.0
C      1  0.4669060000000  0.5546120000000  0.5711490000000 1.0
C      1  0.4813920000000  0.4383010000000  0.4264360000000 1.0
C      1  0.5578050000000  0.4709460000000  0.5558530000000 1.0
C      1  0.4223390000000  0.4752060000000  0.4582170000000 1.0
C      1  0.4308990000000  0.5608310000000  0.5459990000000 1.0
C      1  0.4450700000000  0.4351890000000  0.4646230000000 1.0
C      1  0.5605270000000  0.4354140000000  0.5151340000000 1.0
C      1  0.5683500000000  0.5820010000000  0.4939010000000 1.0
C      1  0.4379550000000  0.4923700000000  0.5489860000000 1.0
C      1  0.5069180000000  0.5452710000000  0.4286710000000 1.0
C      1  0.5443620000000  0.4249420000000  0.4927540000000 1.0
C      1  0.4236070000000  0.5015460000000  0.4694570000000 1.0
C      1  0.5757490000000  0.5011570000000  0.4563460000000 1.0
C      1  0.5666510000000  0.4963780000000  0.5447520000000 1.0
C      1  0.4932370000000  0.4604220000000  0.5851850000000 1.0
C      1  0.4831540000000  0.5332060000000  0.5781890000000 1.0
C      1  0.5024990000000  0.4587350000000  0.4231350000000 1.0
C      1  0.5457580000000  0.5787260000000  0.5085980000000 1.0
C      1  0.4540140000000  0.4290370000000  0.4914430000000 1.0
C      1  0.4554030000000  0.5796800000000  0.4898560000000 1.0
C      1  0.4242660000000  0.5415090000000  0.5009400000000 1.0
C      1  0.5022180000000  0.4221980000000  0.5451240000000 1.0
C      1  0.5402610000000  0.4990810000000  0.4211720000000 1.0
C      1  0.4379970000000  0.4530840000000  0.5033690000000 1.0
C      1  0.5826480000000  0.4604130000000  0.4896150000000 1.0
C      1  0.5742570000000  0.5384240000000  0.5094280000000 1.0
C      1  0.4919900000000  0.5615400000000  0.4479090000000 1.0
C      1  0.5020160000000  0.5787680000000  0.5424900000000 1.0
C      1  0.5096040000000  0.4187470000000  0.4489800000000 1.0
C      1  0.5327150000000  0.5000090000000  0.5809060000000 1.0
C      1  0.4537140000000  0.4978690000000  0.4300050000000 1.0
C      1  0.4438480000000  0.5128320000000  0.5682650000000 1.0
C      1  0.5301270000000  0.4764550000000  0.5178170000000 1.0
C      1  0.5205230000000  0.4778560000000  0.4881660000000 1.0
C      1  0.4727080000000  0.5399610000000  0.5130790000000 1.0
C      1  0.5266840000000  0.5023760000000  0.4714430000000 1.0
C      1  0.4789680000000  0.5067620000000  0.4749680000000 1.0
C      1  0.4866170000000  0.4964060000000  0.5217560000000 1.0
C      1  0.5062100000000  0.5246900000000  0.4807340000000 1.0
C      1  0.5078980000000  0.4840570000000  0.5356100000000 1.0
C      1  0.5203660000000  0.5332170000000  0.5061930000000 1.0
C      1  0.4960180000000  0.5259150000000  0.5241160000000 1.0
C      1  0.4834980000000  0.4820420000000  0.4930510000000 1.0
C      1  0.5002780000000  0.4635600000000  0.4740840000000 1.0
C      1  0.4510970000000  0.5819610000000  0.5398020000000 1.0
C      1  0.5449470000000  0.4508440000000  0.5363920000000 1.0
C      1  0.5708070000000  0.5493690000000  0.4601050000000 1.0
C      1  0.4568970000000  0.4472710000000  0.4401230000000 1.0
END
