TITL C-187003-1045-1 -47.3142082064734 125000 -644.929820339597 0 0 93 (C1) n - 1
REM
REM in /rds/project/t2_vol4/rds-t2-cs072/BORA/CARBON/from-Arr/AIRSS/Generating-Clusters/GAP-ML-2020/Higher-Symm/SD-CG/HFTN-CG
REM
REM
REM
REM
REM
REM ./C.cell (b20cbc046b6831c77cfcea5457e17084)
REM AIRSS Version 0.9.1 bugfix July 2018 build 013d7b7c2542+ Fri, 06 Jul 2018 19:26:36 +0100
REM compiler GCC version 9.3.0
REM options -cpp -mtune=generic -march=x86-64 -g -O0
REM seed 250833920 695821052 -1168759532 -2017448371 -1060683221 1397344139 135345164 -771914864 -436123556 -1884587520 702714586 -1873200625 -2124780331 126195125 -791014640 -1917706775 905543789 -1781167249 -1131268999 165836553 1769174578 -923554806 1734967359 1535038740 -1213292839 1372267878 -591597886 -1857000088 -1604044706 1526616922 504571576 1395757721 252894437
REM
CELL 1.54180   50.00000   50.00000   50.00000   90.00000   90.00000   90.00000
LATT -1
SFAC C  
C      1  0.4486060000000  0.4648920000000  0.5609180000000 1.0
C      1  0.4502560000000  0.5680910000000  0.4991050000000 1.0
C      1  0.4488160000000  0.4639090000000  0.4388960000000 1.0
C      1  0.5495900000000  0.4666800000000  0.5595990000000 1.0
C      1  0.5506480000000  0.5701780000000  0.5005960000000 1.0
C      1  0.5491490000000  0.4661770000000  0.4409880000000 1.0
C      1  0.4478650000000  0.5334670000000  0.5599820000000 1.0
C      1  0.4486510000000  0.4280950000000  0.5004570000000 1.0
C      1  0.4498610000000  0.5358030000000  0.4389690000000 1.0
C      1  0.5496780000000  0.5343560000000  0.5613150000000 1.0
C      1  0.5504250000000  0.4328660000000  0.4989930000000 1.0
C      1  0.5510730000000  0.5352760000000  0.4414600000000 1.0
C      1  0.5261330000000  0.4479680000000  0.4414420000000 1.0
C      1  0.5269580000000  0.4749010000000  0.5761820000000 1.0
C      1  0.5270800000000  0.5782980000000  0.4848680000000 1.0
C      1  0.4715250000000  0.4451410000000  0.4376980000000 1.0
C      1  0.4722490000000  0.4744860000000  0.5754750000000 1.0
C      1  0.4726340000000  0.5787780000000  0.4836770000000 1.0
C      1  0.5277490000000  0.5533500000000  0.4415810000000 1.0
C      1  0.5266590000000  0.5253510000000  0.5768910000000 1.0
C      1  0.5273020000000  0.4226960000000  0.4836240000000 1.0
C      1  0.4725170000000  0.5540980000000  0.4390570000000 1.0
C      1  0.4711850000000  0.5244350000000  0.5756900000000 1.0
C      1  0.4717810000000  0.4204400000000  0.4836770000000 1.0
C      1  0.5149110000000  0.4742110000000  0.4981720000000 1.0
C      1  0.5307960000000  0.5230220000000  0.5219520000000 1.0
C      1  0.5205720000000  0.5138780000000  0.4782300000000 1.0
C      1  0.4664010000000  0.4707110000000  0.5090620000000 1.0
C      1  0.4824500000000  0.5114680000000  0.5237360000000 1.0
C      1  0.4734040000000  0.5089330000000  0.4661910000000 1.0
C      1  0.5362470000000  0.5286740000000  0.4957890000000 1.0
C      1  0.5225990000000  0.4810060000000  0.5245630000000 1.0
C      1  0.5299240000000  0.4868970000000  0.4783110000000 1.0
C      1  0.4787300000000  0.5301630000000  0.5030190000000 1.0
C      1  0.4626490000000  0.4919370000000  0.5252480000000 1.0
C      1  0.4734460000000  0.4814410000000  0.4698320000000 1.0
C      1  0.4846700000000  0.4654680000000  0.4212480000000 1.0
C      1  0.4861410000000  0.4497610000000  0.5677960000000 1.0
C      1  0.4849950000000  0.5839690000000  0.5095140000000 1.0
C      1  0.5128740000000  0.4665200000000  0.4231600000000 1.0
C      1  0.5144360000000  0.4499390000000  0.5682730000000 1.0
C      1  0.5132950000000  0.5839740000000  0.5101820000000 1.0
C      1  0.4853940000000  0.5350340000000  0.4210930000000 1.0
C      1  0.4850490000000  0.5494520000000  0.5683780000000 1.0
C      1  0.4857820000000  0.4151610000000  0.5091200000000 1.0
C      1  0.5135680000000  0.5348900000000  0.4234440000000 1.0
C      1  0.5132930000000  0.5502480000000  0.5691510000000 1.0
C      1  0.5139970000000  0.4160000000000  0.5090940000000 1.0
C      1  0.5576600000000  0.4733500000000  0.4675000000000 1.0
C      1  0.5539630000000  0.4844460000000  0.5380360000000 1.0
C      1  0.5620400000000  0.5453420000000  0.4902850000000 1.0
C      1  0.4425880000000  0.4691970000000  0.4662310000000 1.0
C      1  0.4362960000000  0.4859540000000  0.5455410000000 1.0
C      1  0.4479580000000  0.5403830000000  0.4937090000000 1.0
C      1  0.5699340000000  0.5358470000000  0.4620790000000 1.0
C      1  0.5562270000000  0.5164310000000  0.5399530000000 1.0
C      1  0.5668690000000  0.4521560000000  0.4884950000000 1.0
C      1  0.4457560000000  0.5261010000000  0.4654600000000 1.0
C      1  0.4293790000000  0.5152820000000  0.5499370000000 1.0
C      1  0.4405820000000  0.4546810000000  0.4948490000000 1.0
C      1  0.5355120000000  0.5599690000000  0.5521220000000 1.0
C      1  0.5355960000000  0.5152010000000  0.4242110000000 1.0
C      1  0.5361970000000  0.4271020000000  0.5254540000000 1.0
C      1  0.4627260000000  0.5584820000000  0.5509240000000 1.0
C      1  0.4634730000000  0.5145520000000  0.4213480000000 1.0
C      1  0.4637720000000  0.4245490000000  0.5265210000000 1.0
C      1  0.5361850000000  0.4410080000000  0.5504830000000 1.0
C      1  0.5348830000000  0.4863450000000  0.4242040000000 1.0
C      1  0.5357450000000  0.5740780000000  0.5267980000000 1.0
C      1  0.4636950000000  0.4402200000000  0.5510470000000 1.0
C      1  0.4630490000000  0.4855140000000  0.4222150000000 1.0
C      1  0.4631880000000  0.5729830000000  0.5260190000000 1.0
C      1  0.5834580000000  0.4882380000000  0.4747390000000 1.0
C      1  0.5805520000000  0.4855170000000  0.5227680000000 1.0
C      1  0.5847690000000  0.5281580000000  0.5007870000000 1.0
C      1  0.4191080000000  0.4855090000000  0.4760420000000 1.0
C      1  0.4145330000000  0.4854380000000  0.5244280000000 1.0
C      1  0.4216590000000  0.5271600000000  0.5009760000000 1.0
C      1  0.5873330000000  0.5157950000000  0.4745730000000 1.0
C      1  0.5823920000000  0.5138280000000  0.5244790000000 1.0
C      1  0.5857590000000  0.4717210000000  0.4987240000000 1.0
C      1  0.4204960000000  0.5135780000000  0.4761030000000 1.0
C      1  0.4140060000000  0.5145250000000  0.5247810000000 1.0
C      1  0.4162010000000  0.4712180000000  0.5006750000000 1.0
C      1  0.4847090000000  0.4996700000000  0.5807730000000 1.0
C      1  0.5133130000000  0.4305710000000  0.4598290000000 1.0
C      1  0.5140080000000  0.4999420000000  0.5819030000000 1.0
C      1  0.5144760000000  0.5700770000000  0.4604760000000 1.0
C      1  0.4850460000000  0.5704520000000  0.4592850000000 1.0
C      1  0.4839690000000  0.4291030000000  0.4587240000000 1.0
C      1  0.5096690000000  0.5055150000000  0.5287150000000 1.0
C      1  0.4878250000000  0.4708600000000  0.4916890000000 1.0
C      1  0.4935310000000  0.5214610000000  0.4804100000000 1.0
END
