TITL C-188669-9623-7 0.0111378319957244 125000 -545.879340797628 0 0 81 (C1) n - 1
REM
REM in /rds/project/t2_vol4/rds-t2-cs072/BORA/CARBON/from-Arr/AIRSS/Generating-Clusters/GAP-ML-2020/Higher-Symm/SD-CG/HFTN-CG
REM
REM
REM
REM
REM
REM ./C.cell (b20cbc046b6831c77cfcea5457e17084)
REM AIRSS Version 0.9.1 bugfix July 2018 build 013d7b7c2542+ Fri, 06 Jul 2018 19:26:36 +0100
REM compiler GCC version 9.3.0
REM options -cpp -mtune=generic -march=x86-64 -g -O0
REM seed 885481904 -565983097 106117325 1900795417 -1133377171 412594646 -739266965 -246482012 1665987980 163614397 1412248407 1111810548 -546585551 -132265848 -715811052 327757268 -1313807336 -161005275 -781457635 90985634 -532329967 291321480 -1434915783 -596656091 -1282661084 748801544 110492185 -1858072474 -1477468472 -1057014116 268074065 -302840939 1052122267
REM
CELL 1.54180   50.00000   50.00000   50.00000   90.00000   90.00000   90.00000
LATT -1
SFAC C  
C      1  0.5605830000000  0.4512270000000  0.5109410000000 1.0
C      1  0.5827780000000  0.4889110000000  0.5007370000000 1.0
C      1  0.5689920000000  0.5330710000000  0.5154740000000 1.0
C      1  0.5427360000000  0.5692860000000  0.5271860000000 1.0
C      1  0.4974010000000  0.5808340000000  0.5295570000000 1.0
C      1  0.4565360000000  0.5674590000000  0.5060370000000 1.0
C      1  0.4266890000000  0.5326770000000  0.5249860000000 1.0
C      1  0.4112710000000  0.4882700000000  0.5157910000000 1.0
C      1  0.4401820000000  0.4500150000000  0.5219120000000 1.0
C      1  0.4780490000000  0.4228280000000  0.5213060000000 1.0
C      1  0.5234120000000  0.4261810000000  0.5129080000000 1.0
C      1  0.5243230000000  0.5449220000000  0.5228990000000 1.0
C      1  0.4983640000000  0.5504560000000  0.5361310000000 1.0
C      1  0.4777130000000  0.5344840000000  0.5214830000000 1.0
C      1  0.4532700000000  0.5211910000000  0.5344740000000 1.0
C      1  0.4603100000000  0.4949480000000  0.5193670000000 1.0
C      1  0.4634810000000  0.4673040000000  0.5301950000000 1.0
C      1  0.4866380000000  0.4529230000000  0.5159600000000 1.0
C      1  0.5140030000000  0.4518280000000  0.5284670000000 1.0
C      1  0.5376610000000  0.4703730000000  0.5260500000000 1.0
C      1  0.5349220000000  0.4966680000000  0.5094480000000 1.0
C      1  0.5429110000000  0.5218940000000  0.5279140000000 1.0
C      1  0.4779010000000  0.4514230000000  0.4641050000000 1.0
C      1  0.5288970000000  0.4329440000000  0.4593400000000 1.0
C      1  0.5531630000000  0.4496280000000  0.4581280000000 1.0
C      1  0.5521600000000  0.5058820000000  0.4610500000000 1.0
C      1  0.5512240000000  0.5347010000000  0.4612340000000 1.0
C      1  0.5331680000000  0.5470060000000  0.4436690000000 1.0
C      1  0.5063320000000  0.5556310000000  0.4512550000000 1.0
C      1  0.4526740000000  0.5511070000000  0.4410600000000 1.0
C      1  0.4498330000000  0.5247900000000  0.4528620000000 1.0
C      1  0.4472410000000  0.4654890000000  0.4332100000000 1.0
C      1  0.4504410000000  0.4598930000000  0.4612390000000 1.0
C      1  0.4996100000000  0.5453050000000  0.4784430000000 1.0
C      1  0.4724930000000  0.5441550000000  0.4944890000000 1.0
C      1  0.4635680000000  0.5184470000000  0.4784470000000 1.0
C      1  0.4514190000000  0.4968270000000  0.4921900000000 1.0
C      1  0.4377290000000  0.4740670000000  0.4818820000000 1.0
C      1  0.4937090000000  0.4522890000000  0.4869760000000 1.0
C      1  0.5206050000000  0.4426030000000  0.4858360000000 1.0
C      1  0.5481500000000  0.4606000000000  0.4844810000000 1.0
C      1  0.5540360000000  0.4898870000000  0.4861920000000 1.0
C      1  0.5488380000000  0.5500450000000  0.4853470000000 1.0
C      1  0.5223870000000  0.5503100000000  0.4941600000000 1.0
C      1  0.5514890000000  0.4244640000000  0.5170750000000 1.0
C      1  0.5862260000000  0.4636210000000  0.5098430000000 1.0
C      1  0.5878780000000  0.5147960000000  0.5077750000000 1.0
C      1  0.5637700000000  0.5595050000000  0.5080090000000 1.0
C      1  0.5250780000000  0.5886250000000  0.5323780000000 1.0
C      1  0.4746660000000  0.5861600000000  0.5159440000000 1.0
C      1  0.4319340000000  0.5571770000000  0.5142850000000 1.0
C      1  0.4062640000000  0.5122820000000  0.5221360000000 1.0
C      1  0.4223960000000  0.4653760000000  0.5052630000000 1.0
C      1  0.4502690000000  0.4246730000000  0.5217270000000 1.0
C      1  0.5010060000000  0.4085860000000  0.5193790000000 1.0
C      1  0.4698320000000  0.5394490000000  0.4201630000000 1.0
C      1  0.4587260000000  0.5126360000000  0.4270340000000 1.0
C      1  0.4587660000000  0.4867620000000  0.4182030000000 1.0
C      1  0.4717150000000  0.4606340000000  0.4194030000000 1.0
C      1  0.4904680000000  0.4499760000000  0.4377540000000 1.0
C      1  0.5180620000000  0.4463590000000  0.4365810000000 1.0
C      1  0.5417560000000  0.4643870000000  0.4364270000000 1.0
C      1  0.5443500000000  0.4929480000000  0.4362120000000 1.0
C      1  0.5320390000000  0.5088740000000  0.4168990000000 1.0
C      1  0.5228400000000  0.5338480000000  0.4203660000000 1.0
C      1  0.4960860000000  0.5466520000000  0.4254300000000 1.0
C      1  0.5265630000000  0.5370010000000  0.5706170000000 1.0
C      1  0.5006900000000  0.5427880000000  0.5646740000000 1.0
C      1  0.4772620000000  0.5351920000000  0.5757990000000 1.0
C      1  0.4602520000000  0.5177330000000  0.5636500000000 1.0
C      1  0.4616720000000  0.4922380000000  0.5723720000000 1.0
C      1  0.4690200000000  0.4690270000000  0.5610280000000 1.0
C      1  0.4923370000000  0.4591480000000  0.5720510000000 1.0
C      1  0.5148080000000  0.4547070000000  0.5583230000000 1.0
C      1  0.5385620000000  0.4716480000000  0.5566680000000 1.0
C      1  0.5454210000000  0.4933820000000  0.5707120000000 1.0
C      1  0.5428480000000  0.5186040000000  0.5593650000000 1.0
C      1  0.4892480000000  0.5055800000000  0.5193140000000 1.0
C      1  0.5076090000000  0.5004740000000  0.4975550000000 1.0
C      1  0.5006660000000  0.5001090000000  0.5432920000000 1.0
C      1  0.4958300000000  0.5136590000000  0.4754780000000 1.0
END
