TITL C-187001-1097-7 -0.0319835976696383 125000 -550.961675109149 0 0 80 (C1) n - 1
REM
REM in /rds/project/t2_vol4/rds-t2-cs072/BORA/CARBON/from-Arr/AIRSS/Generating-Clusters/GAP-ML-2020/Higher-Symm/SD-CG/HFTN-CG
REM
REM
REM
REM
REM
REM ./C.cell (b20cbc046b6831c77cfcea5457e17084)
REM AIRSS Version 0.9.1 bugfix July 2018 build 013d7b7c2542+ Fri, 06 Jul 2018 19:26:36 +0100
REM compiler GCC version 9.3.0
REM options -cpp -mtune=generic -march=x86-64 -g -O0
REM seed 73916686 993165544 1847529691 -599920425 -1599722105 -963958375 -1382715422 1990579172 1480544245 365416327 1581336380 -1080257225 385547092 -204527366 2060481395 260894783 1677371986 380151720 -159871838 -1394262328 -56914514 600660933 -1611728455 -644726553 -9131441 -170186781 -716437544 -307825913 -1675357556 1037347635 -701215904 1906640333 467810664
REM
CELL 1.54180   50.00000   50.00000   50.00000   90.00000   90.00000   90.00000
LATT -1
SFAC C  
C      1  0.4980790000000  0.5241130000000  0.4303610000000 1.0
C      1  0.5208340000000  0.4813310000000  0.4300850000000 1.0
C      1  0.4741840000000  0.4884710000000  0.4271650000000 1.0
C      1  0.5417190000000  0.5372300000000  0.5091880000000 1.0
C      1  0.5107540000000  0.4578230000000  0.5119210000000 1.0
C      1  0.4598040000000  0.5085030000000  0.5084200000000 1.0
C      1  0.5026300000000  0.5591430000000  0.4543060000000 1.0
C      1  0.5521830000000  0.4661900000000  0.4505810000000 1.0
C      1  0.4447570000000  0.4677880000000  0.4485370000000 1.0
C      1  0.4696500000000  0.4588340000000  0.4362470000000 1.0
C      1  0.4800140000000  0.5438300000000  0.4447470000000 1.0
C      1  0.5473810000000  0.4910070000000  0.4366540000000 1.0
C      1  0.4746480000000  0.5190380000000  0.5755500000000 1.0
C      1  0.5227290000000  0.5160600000000  0.5768490000000 1.0
C      1  0.4985760000000  0.4658540000000  0.5819760000000 1.0
C      1  0.5179930000000  0.4351580000000  0.5516440000000 1.0
C      1  0.4376250000000  0.5179200000000  0.5473250000000 1.0
C      1  0.5464750000000  0.5470980000000  0.5537080000000 1.0
C      1  0.5400620000000  0.4748830000000  0.5531770000000 1.0
C      1  0.4607730000000  0.4781990000000  0.5501890000000 1.0
C      1  0.5006340000000  0.5565590000000  0.5537200000000 1.0
C      1  0.5247210000000  0.4555010000000  0.5695210000000 1.0
C      1  0.4529730000000  0.5026350000000  0.5652170000000 1.0
C      1  0.5225840000000  0.5432300000000  0.5675930000000 1.0
C      1  0.4561290000000  0.5526190000000  0.4847390000000 1.0
C      1  0.5633900000000  0.4992990000000  0.4773440000000 1.0
C      1  0.4656130000000  0.4428770000000  0.4770290000000 1.0
C      1  0.5607180000000  0.5790200000000  0.5152510000000 1.0
C      1  0.5359750000000  0.4191330000000  0.5026490000000 1.0
C      1  0.4136190000000  0.5083310000000  0.5007850000000 1.0
C      1  0.4433890000000  0.5135880000000  0.4598180000000 1.0
C      1  0.5422620000000  0.5371430000000  0.4553340000000 1.0
C      1  0.5130960000000  0.4424450000000  0.4613470000000 1.0
C      1  0.5342530000000  0.4378680000000  0.5256840000000 1.0
C      1  0.4312700000000  0.5014630000000  0.5231250000000 1.0
C      1  0.5404390000000  0.5617020000000  0.5291470000000 1.0
C      1  0.4628120000000  0.4383740000000  0.5050580000000 1.0
C      1  0.4733250000000  0.5629230000000  0.5019340000000 1.0
C      1  0.5720690000000  0.4992730000000  0.5048380000000 1.0
C      1  0.4777020000000  0.4576010000000  0.5632500000000 1.0
C      1  0.4754940000000  0.5433790000000  0.5592150000000 1.0
C      1  0.5449520000000  0.5018360000000  0.5642530000000 1.0
C      1  0.5590110000000  0.5220020000000  0.5489180000000 1.0
C      1  0.4901640000000  0.4370670000000  0.5474090000000 1.0
C      1  0.4522910000000  0.5411280000000  0.5411140000000 1.0
C      1  0.4565830000000  0.5397690000000  0.5119270000000 1.0
C      1  0.5640910000000  0.5212930000000  0.5206160000000 1.0
C      1  0.4870160000000  0.4403550000000  0.5192530000000 1.0
C      1  0.4181170000000  0.5116860000000  0.4759720000000 1.0
C      1  0.5632630000000  0.5734540000000  0.4903800000000 1.0
C      1  0.5278640000000  0.4216840000000  0.4784680000000 1.0
C      1  0.4835420000000  0.4428070000000  0.4552630000000 1.0
C      1  0.4573260000000  0.5394000000000  0.4599780000000 1.0
C      1  0.5556900000000  0.5123650000000  0.4535650000000 1.0
C      1  0.4419000000000  0.4578580000000  0.5075070000000 1.0
C      1  0.5000570000000  0.5708910000000  0.5038580000000 1.0
C      1  0.5634480000000  0.4717830000000  0.5079810000000 1.0
C      1  0.4643770000000  0.4952900000000  0.4814930000000 1.0
C      1  0.5414490000000  0.5526640000000  0.4808500000000 1.0
C      1  0.5159600000000  0.4681130000000  0.4836280000000 1.0
C      1  0.4771940000000  0.4974170000000  0.5284690000000 1.0
C      1  0.5157010000000  0.5213710000000  0.5086770000000 1.0
C      1  0.5150880000000  0.4790260000000  0.5322540000000 1.0
C      1  0.5117140000000  0.5693680000000  0.5299680000000 1.0
C      1  0.5545330000000  0.4590590000000  0.5312070000000 1.0
C      1  0.4383600000000  0.4734460000000  0.5301260000000 1.0
C      1  0.5205120000000  0.5423820000000  0.4387720000000 1.0
C      1  0.5281090000000  0.4549030000000  0.4399330000000 1.0
C      1  0.4474530000000  0.4943250000000  0.4384270000000 1.0
C      1  0.4486410000000  0.4682360000000  0.4787850000000 1.0
C      1  0.5142170000000  0.5655940000000  0.4794790000000 1.0
C      1  0.5485460000000  0.4723280000000  0.4804420000000 1.0
C      1  0.4978540000000  0.5059710000000  0.5878850000000 1.0
C      1  0.5073670000000  0.5164930000000  0.4839320000000 1.0
C      1  0.4986600000000  0.4962240000000  0.4430900000000 1.0
C      1  0.4965140000000  0.4930250000000  0.4742010000000 1.0
C      1  0.4869450000000  0.5087880000000  0.4043320000000 1.0
C      1  0.4935940000000  0.5053100000000  0.3796300000000 1.0
C      1  0.4959800000000  0.4825200000000  0.6035350000000 1.0
C      1  0.5041340000000  0.5037770000000  0.5269690000000 1.0
END
