TITL C-180436-1578-9 0.143697971151648 125000 -762.181513589842 0 0 109 (C1) n - 1
REM
REM in /rds/project/t2_vol4/rds-t2-cs072/BORA/CARBON/from-Arr/AIRSS/Generating-Clusters/GAP-ML-2020/Higher-Symm/SD-CG/HFTN-CG
REM
REM
REM
REM
REM
REM ./C.cell (b20cbc046b6831c77cfcea5457e17084)
REM AIRSS Version 0.9.1 bugfix July 2018 build 013d7b7c2542+ Fri, 06 Jul 2018 19:26:36 +0100
REM compiler GCC version 9.3.0
REM options -cpp -mtune=generic -march=x86-64 -g -O0
REM seed 1507841586 1219537186 1335051746 -1073460036 -950520369 -69034469 1442783863 -29179846 -311243741 -726448062 846325257 -621511379 1537418301 532680061 1792652025 190126590 1194932864 1550507855 -843276897 -846690332 -2048738899 -970173389 572689339 1905543936 -2034107640 588427695 516715986 -823462443 1360920274 -148236995 -887087099 1792911129 1918973379
REM
CELL 1.54180   50.00000   50.00000   50.00000   90.00000   90.00000   90.00000
LATT -1
SFAC C  
C      1  0.5864110000000  0.4656660000000  0.4605630000000 1.0
C      1  0.5025520000000  0.4783680000000  0.4249130000000 1.0
C      1  0.4311320000000  0.4683070000000  0.4793990000000 1.0
C      1  0.4512040000000  0.4713970000000  0.5675920000000 1.0
C      1  0.5420320000000  0.4713280000000  0.5536290000000 1.0
C      1  0.5808720000000  0.5368490000000  0.4714200000000 1.0
C      1  0.5007300000000  0.5321790000000  0.4296380000000 1.0
C      1  0.4312650000000  0.5192300000000  0.4721080000000 1.0
C      1  0.4492280000000  0.5243360000000  0.5667550000000 1.0
C      1  0.5395230000000  0.5264800000000  0.5561520000000 1.0
C      1  0.4977420000000  0.5765690000000  0.4503790000000 1.0
C      1  0.4424780000000  0.5657420000000  0.4905560000000 1.0
C      1  0.4723010000000  0.5695720000000  0.5338490000000 1.0
C      1  0.5372280000000  0.5715990000000  0.5368780000000 1.0
C      1  0.5530100000000  0.5733950000000  0.4910270000000 1.0
C      1  0.5112680000000  0.4379460000000  0.4450830000000 1.0
C      1  0.4502670000000  0.4283730000000  0.4927230000000 1.0
C      1  0.4758070000000  0.4271600000000  0.5344090000000 1.0
C      1  0.5343180000000  0.4298860000000  0.5305640000000 1.0
C      1  0.5485550000000  0.4359030000000  0.4815050000000 1.0
C      1  0.5353800000000  0.4894880000000  0.4908020000000 1.0
C      1  0.5055430000000  0.4866230000000  0.4544820000000 1.0
C      1  0.4589600000000  0.4818640000000  0.4872680000000 1.0
C      1  0.4669200000000  0.4834940000000  0.5411410000000 1.0
C      1  0.5183140000000  0.4835480000000  0.5384890000000 1.0
C      1  0.5349710000000  0.5174900000000  0.4928980000000 1.0
C      1  0.5044980000000  0.5164730000000  0.4558900000000 1.0
C      1  0.4586230000000  0.5108030000000  0.4865070000000 1.0
C      1  0.4657500000000  0.5131980000000  0.5412720000000 1.0
C      1  0.5170610000000  0.5139210000000  0.5394600000000 1.0
C      1  0.5055320000000  0.5902200000000  0.4752690000000 1.0
C      1  0.4605690000000  0.5835530000000  0.4784620000000 1.0
C      1  0.4889770000000  0.5876470000000  0.5195470000000 1.0
C      1  0.5181690000000  0.5862570000000  0.5203090000000 1.0
C      1  0.5279850000000  0.5872030000000  0.4931320000000 1.0
C      1  0.5115580000000  0.4136820000000  0.4626160000000 1.0
C      1  0.4725100000000  0.4105790000000  0.4913530000000 1.0
C      1  0.4892690000000  0.4110520000000  0.5153100000000 1.0
C      1  0.5183110000000  0.4123050000000  0.5131180000000 1.0
C      1  0.5288910000000  0.4140260000000  0.4857840000000 1.0
C      1  0.4124520000000  0.4802770000000  0.4958810000000 1.0
C      1  0.4685100000000  0.4841680000000  0.5874770000000 1.0
C      1  0.5652430000000  0.4856320000000  0.5470560000000 1.0
C      1  0.5803470000000  0.4882300000000  0.4461100000000 1.0
C      1  0.4769040000000  0.4904660000000  0.4202170000000 1.0
C      1  0.4129200000000  0.5089310000000  0.4930020000000 1.0
C      1  0.4672340000000  0.5130970000000  0.5875680000000 1.0
C      1  0.5641420000000  0.5138060000000  0.5534990000000 1.0
C      1  0.5773480000000  0.5171410000000  0.4506680000000 1.0
C      1  0.4772860000000  0.5196740000000  0.4184810000000 1.0
C      1  0.4306140000000  0.5419430000000  0.5595740000000 1.0
C      1  0.5312170000000  0.5537400000000  0.5596650000000 1.0
C      1  0.5904280000000  0.5321980000000  0.4977550000000 1.0
C      1  0.5141500000000  0.5572040000000  0.4365140000000 1.0
C      1  0.4343290000000  0.5483820000000  0.4687160000000 1.0
C      1  0.4329390000000  0.4526670000000  0.5623640000000 1.0
C      1  0.5319170000000  0.4442150000000  0.5565210000000 1.0
C      1  0.5770950000000  0.4507390000000  0.4807890000000 1.0
C      1  0.5180690000000  0.4544850000000  0.4211290000000 1.0
C      1  0.4396240000000  0.4436130000000  0.4698750000000 1.0
C      1  0.5362500000000  0.4511790000000  0.4578630000000 1.0
C      1  0.4810680000000  0.4433650000000  0.4545110000000 1.0
C      1  0.4525520000000  0.4413230000000  0.5198300000000 1.0
C      1  0.4885210000000  0.4425410000000  0.5537830000000 1.0
C      1  0.5464190000000  0.4481920000000  0.5104150000000 1.0
C      1  0.5617180000000  0.5583000000000  0.4683300000000 1.0
C      1  0.4687010000000  0.5741800000000  0.4521300000000 1.0
C      1  0.4493370000000  0.5544910000000  0.5177000000000 1.0
C      1  0.4864180000000  0.5544160000000  0.5525750000000 1.0
C      1  0.5593380000000  0.5666530000000  0.5184110000000 1.0
C      1  0.5543780000000  0.5258870000000  0.4352170000000 1.0
C      1  0.4527410000000  0.5285920000000  0.4303330000000 1.0
C      1  0.4146520000000  0.5202450000000  0.5198170000000 1.0
C      1  0.4952640000000  0.5229310000000  0.5825270000000 1.0
C      1  0.5837570000000  0.5267510000000  0.5381840000000 1.0
C      1  0.5595410000000  0.4812670000000  0.4255230000000 1.0
C      1  0.4536790000000  0.4812530000000  0.4351410000000 1.0
C      1  0.4152220000000  0.4728180000000  0.5234400000000 1.0
C      1  0.4973660000000  0.4756700000000  0.5820840000000 1.0
C      1  0.5826190000000  0.4819650000000  0.5234510000000 1.0
C      1  0.4670330000000  0.4697720000000  0.5145380000000 1.0
C      1  0.4927990000000  0.4732530000000  0.5504760000000 1.0
C      1  0.5216890000000  0.4721500000000  0.5101280000000 1.0
C      1  0.5313170000000  0.4792450000000  0.4652520000000 1.0
C      1  0.4858270000000  0.4698550000000  0.4736530000000 1.0
C      1  0.4637050000000  0.5264250000000  0.5145380000000 1.0
C      1  0.4912610000000  0.5241290000000  0.5514460000000 1.0
C      1  0.5163630000000  0.5255200000000  0.5117730000000 1.0
C      1  0.5295980000000  0.5273630000000  0.4658240000000 1.0
C      1  0.4843210000000  0.5233560000000  0.4766350000000 1.0
C      1  0.5744010000000  0.4591140000000  0.5083830000000 1.0
C      1  0.5452000000000  0.4576830000000  0.4289920000000 1.0
C      1  0.4547820000000  0.4531540000000  0.4460400000000 1.0
C      1  0.4278700000000  0.4498710000000  0.5350340000000 1.0
C      1  0.5084770000000  0.4461790000000  0.5734500000000 1.0
C      1  0.5809060000000  0.5490830000000  0.5200340000000 1.0
C      1  0.5409660000000  0.5486020000000  0.4483350000000 1.0
C      1  0.4499380000000  0.5531620000000  0.4453340000000 1.0
C      1  0.4251950000000  0.5443240000000  0.5323030000000 1.0
C      1  0.5056950000000  0.5526980000000  0.5728710000000 1.0
C      1  0.4176690000000  0.4975100000000  0.5353090000000 1.0
C      1  0.4400250000000  0.5066000000000  0.4437870000000 1.0
C      1  0.5116290000000  0.4997680000000  0.5863670000000 1.0
C      1  0.5445720000000  0.5040570000000  0.4220470000000 1.0
C      1  0.5923450000000  0.5089700000000  0.5165800000000 1.0
C      1  0.4951200000000  0.4646070000000  0.5009450000000 1.0
C      1  0.4915380000000  0.5330850000000  0.5017160000000 1.0
C      1  0.4837580000000  0.4159000000000  0.4668060000000 1.0
C      1  0.4827720000000  0.5935740000000  0.4922220000000 1.0
END
