TITL C-183194-6616-11 -19.4792709134546 125000 -246.646272999085 0 0 37 (C1) n - 1
REM
REM in /rds/project/t2_vol4/rds-t2-cs072/BORA/CARBON/from-Arr/AIRSS/Generating-Clusters/GAP-ML-2020/Higher-Symm/SD-CG/HFTN-CG
REM
REM
REM
REM
REM
REM ./C.cell (b20cbc046b6831c77cfcea5457e17084)
REM AIRSS Version 0.9.1 bugfix July 2018 build 013d7b7c2542+ Fri, 06 Jul 2018 19:26:36 +0100
REM compiler GCC version 9.3.0
REM options -cpp -mtune=generic -march=x86-64 -g -O0
REM seed -1237089737 -1439036691 1599313177 1983303691 -1195719486 -1451166173 8034029 999536197 1333414186 1082073754 879249872 -2034438393 -1447640396 -2140117471 308943997 1183339886 -1186107585 -1303154222 -1260191766 323398150 1553994437 1317330323 -1955279322 -1045897715 1900529033 1100977739 1228324478 708516436 622073424 -1323423354 -2116677712 596574133 1604409046
REM
CELL 1.54180   50.00000   50.00000   50.00000   90.00000   90.00000   90.00000
LATT -1
SFAC C  
C      1  0.4716060000000  0.5182960000000  0.5437040000000 1.0
C      1  0.5521840000000  0.5218420000000  0.5122510000000 1.0
C      1  0.4772750000000  0.4640680000000  0.5297010000000 1.0
C      1  0.5045670000000  0.4664210000000  0.5419290000000 1.0
C      1  0.4677650000000  0.5366490000000  0.5226820000000 1.0
C      1  0.5465800000000  0.4915000000000  0.5410440000000 1.0
C      1  0.5320130000000  0.4680290000000  0.5338160000000 1.0
C      1  0.5129180000000  0.4772840000000  0.4643880000000 1.0
C      1  0.4690130000000  0.4889620000000  0.5432200000000 1.0
C      1  0.4975920000000  0.5172300000000  0.5568460000000 1.0
C      1  0.4666930000000  0.4570200000000  0.5043650000000 1.0
C      1  0.4610230000000  0.4734100000000  0.4605320000000 1.0
C      1  0.4745330000000  0.4942810000000  0.4461900000000 1.0
C      1  0.5470120000000  0.4672470000000  0.5083470000000 1.0
C      1  0.5035120000000  0.4910000000000  0.4411480000000 1.0
C      1  0.4543200000000  0.5266240000000  0.4992150000000 1.0
C      1  0.4706100000000  0.4378680000000  0.4842420000000 1.0
C      1  0.4965870000000  0.4889630000000  0.5579010000000 1.0
C      1  0.5189910000000  0.5446120000000  0.4758740000000 1.0
C      1  0.4897330000000  0.5527080000000  0.5130910000000 1.0
C      1  0.5347760000000  0.5421230000000  0.5012040000000 1.0
C      1  0.5589420000000  0.4935320000000  0.5121500000000 1.0
C      1  0.5489630000000  0.4494660000000  0.4876870000000 1.0
C      1  0.4641940000000  0.4455110000000  0.4592480000000 1.0
C      1  0.4915470000000  0.5506230000000  0.4844690000000 1.0
C      1  0.5325750000000  0.4610060000000  0.4718480000000 1.0
C      1  0.4688200000000  0.5196330000000  0.4535020000000 1.0
C      1  0.5189590000000  0.5324810000000  0.5463170000000 1.0
C      1  0.4685930000000  0.5355510000000  0.4750510000000 1.0
C      1  0.5058800000000  0.5018660000000  0.5069240000000 1.0
C      1  0.5197300000000  0.5315020000000  0.4518320000000 1.0
C      1  0.4991860000000  0.4900060000000  0.4861440000000 1.0
C      1  0.4526130000000  0.4788180000000  0.4878770000000 1.0
C      1  0.5173340000000  0.5144140000000  0.4327490000000 1.0
C      1  0.5429230000000  0.5186450000000  0.5408980000000 1.0
C      1  0.4447910000000  0.5015830000000  0.4981930000000 1.0
C      1  0.5156470000000  0.5492240000000  0.5234230000000 1.0
END
