TITL C-180455-1580-4 168.500083039861 125000 -1179.17526717157 0 0 160 (C3) n - 1
REM
REM in /rds/project/t2_vol4/rds-t2-cs072/BORA/CARBON/from-Arr/AIRSS/Generating-Clusters/GAP-ML-2020/Higher-Symm/SD-CG/HFTN-CG
REM
REM
REM
REM
REM
REM ./C.cell (b20cbc046b6831c77cfcea5457e17084)
REM AIRSS Version 0.9.1 bugfix July 2018 build 013d7b7c2542+ Fri, 06 Jul 2018 19:26:36 +0100
REM compiler GCC version 9.3.0
REM options -cpp -mtune=generic -march=x86-64 -g -O0
REM seed 1034134279 -1558699727 889999124 -1962460394 -817580797 -37046342 -1794551044 -255332487 -1439406749 -1785673736 -1609285568 1051536161 1266061211 -419057558 -1382696073 1769643943 54223088 -2022705578 280400939 -722099808 -1777690642 -1326671648 -2091158676 211779656 1701268937 1837526952 839594602 -1565184689 -1167020313 1156339992 -1191568645 -1392809227 2113867040
REM
CELL 1.54180   50.00000   50.00000   50.00000   90.00000   90.00000   90.00000
LATT -1
SFAC C  
C      1  0.5479920000000  0.5688370000000  0.4890870000000 1.0
C      1  0.4164450000000  0.5075750000000  0.4890970000000 1.0
C      1  0.5352720000000  0.4242840000000  0.4890920000000 1.0
C      1  0.4530480000000  0.5661890000000  0.5094790000000 1.0
C      1  0.5804520000000  0.5078330000000  0.5094730000000 1.0
C      1  0.4662120000000  0.4266760000000  0.5094820000000 1.0
C      1  0.4805890000000  0.5815100000000  0.5533820000000 1.0
C      1  0.4391790000000  0.4428660000000  0.5533890000000 1.0
C      1  0.5799530000000  0.4763250000000  0.5533790000000 1.0
C      1  0.5197290000000  0.5822640000000  0.4452800000000 1.0
C      1  0.5610290000000  0.4420410000000  0.4452820000000 1.0
C      1  0.4189430000000  0.4763860000000  0.4452890000000 1.0
C      1  0.5115950000000  0.4508540000000  0.4862540000000 1.0
C      1  0.5368190000000  0.5350460000000  0.4862500000000 1.0
C      1  0.4512940000000  0.5147950000000  0.4862560000000 1.0
C      1  0.4900900000000  0.4513220000000  0.5118130000000 1.0
C      1  0.4624540000000  0.5331870000000  0.5118120000000 1.0
C      1  0.5471690000000  0.5161890000000  0.5118070000000 1.0
C      1  0.5876530000000  0.5041330000000  0.5569350000000 1.0
C      1  0.4526570000000  0.5742750000000  0.5569410000000 1.0
C      1  0.4594110000000  0.4222940000000  0.5569450000000 1.0
C      1  0.4112700000000  0.5043160000000  0.4414060000000 1.0
C      1  0.5477540000000  0.5749430000000  0.4413960000000 1.0
C      1  0.5406770000000  0.4214310000000  0.4414010000000 1.0
C      1  0.4938290000000  0.5290800000000  0.5113740000000 1.0
C      1  0.4779600000000  0.4805480000000  0.5113760000000 1.0
C      1  0.5279240000000  0.4910700000000  0.5113730000000 1.0
C      1  0.5062160000000  0.5345090000000  0.4858830000000 1.0
C      1  0.5264310000000  0.4776260000000  0.4858830000000 1.0
C      1  0.4670620000000  0.4885600000000  0.4858860000000 1.0
C      1  0.4743120000000  0.4323590000000  0.4174240000000 1.0
C      1  0.5714710000000  0.5120060000000  0.4174160000000 1.0
C      1  0.4539150000000  0.5563240000000  0.4174210000000 1.0
C      1  0.5255200000000  0.4321350000000  0.5816320000000 1.0
C      1  0.4281270000000  0.5121050000000  0.5816350000000 1.0
C      1  0.5460790000000  0.5564640000000  0.5816270000000 1.0
C      1  0.5227130000000  0.4747270000000  0.5366600000000 1.0
C      1  0.5105910000000  0.5327380000000  0.5366590000000 1.0
C      1  0.4664140000000  0.4932350000000  0.5366630000000 1.0
C      1  0.4784590000000  0.4755700000000  0.4625370000000 1.0
C      1  0.4892660000000  0.5311320000000  0.4625350000000 1.0
C      1  0.5319800000000  0.4939920000000  0.4625340000000 1.0
C      1  0.4748050000000  0.4063270000000  0.4906050000000 1.0
C      1  0.5937760000000  0.5254490000000  0.4905940000000 1.0
C      1  0.4311280000000  0.5689200000000  0.4906020000000 1.0
C      1  0.5257740000000  0.4051080000000  0.5082330000000 1.0
C      1  0.4045890000000  0.5253900000000  0.5082370000000 1.0
C      1  0.5693490000000  0.5701990000000  0.5082260000000 1.0
C      1  0.5090560000000  0.3931120000000  0.4677250000000 1.0
C      1  0.5880930000000  0.5617180000000  0.4677150000000 1.0
C      1  0.4025570000000  0.5458630000000  0.4677260000000 1.0
C      1  0.4906860000000  0.3934460000000  0.5309450000000 1.0
C      1  0.4120350000000  0.5616110000000  0.5309440000000 1.0
C      1  0.5969960000000  0.5456420000000  0.5309340000000 1.0
C      1  0.4797170000000  0.4232970000000  0.5768760000000 1.0
C      1  0.5766330000000  0.5212170000000  0.5768670000000 1.0
C      1  0.4433740000000  0.5561890000000  0.5768740000000 1.0
C      1  0.5201280000000  0.4231350000000  0.4217660000000 1.0
C      1  0.4230190000000  0.5212580000000  0.4217690000000 1.0
C      1  0.5565510000000  0.5562960000000  0.4217600000000 1.0
C      1  0.4271800000000  0.4477450000000  0.5273530000000 1.0
C      1  0.5817240000000  0.4634950000000  0.5273440000000 1.0
C      1  0.4908120000000  0.5894590000000  0.5273450000000 1.0
C      1  0.5735220000000  0.4464610000000  0.4713390000000 1.0
C      1  0.4165260000000  0.4633600000000  0.4713470000000 1.0
C      1  0.5096590000000  0.5908730000000  0.4713380000000 1.0
C      1  0.5004650000000  0.5725320000000  0.4261120000000 1.0
C      1  0.4370010000000  0.4645680000000  0.4261190000000 1.0
C      1  0.5622320000000  0.4635890000000  0.4261110000000 1.0
C      1  0.4996930000000  0.5725900000000  0.5729290000000 1.0
C      1  0.5626770000000  0.4642430000000  0.5729290000000 1.0
C      1  0.4373540000000  0.4638700000000  0.5729360000000 1.0
C      1  0.4053450000000  0.5410310000000  0.5495330000000 1.0
C      1  0.5118560000000  0.3979420000000  0.5495310000000 1.0
C      1  0.5825190000000  0.5617280000000  0.5495220000000 1.0
C      1  0.5944230000000  0.5408780000000  0.4493690000000 1.0
C      1  0.4878410000000  0.3980480000000  0.4493800000000 1.0
C      1  0.4174380000000  0.5617660000000  0.4493790000000 1.0
C      1  0.4037020000000  0.5183220000000  0.4644520000000 1.0
C      1  0.5323340000000  0.4078740000000  0.4644480000000 1.0
C      1  0.5636690000000  0.5744970000000  0.4644410000000 1.0
C      1  0.5947970000000  0.5181680000000  0.5338690000000 1.0
C      1  0.4679920000000  0.4090880000000  0.5338800000000 1.0
C      1  0.4369280000000  0.5734440000000  0.5338760000000 1.0
C      1  0.5389360000000  0.4662450000000  0.4087100000000 1.0
C      1  0.5098110000000  0.5510290000000  0.4087090000000 1.0
C      1  0.4509480000000  0.4834140000000  0.4087140000000 1.0
C      1  0.4609220000000  0.4664740000000  0.5900610000000 1.0
C      1  0.4901650000000  0.5508790000000  0.5900560000000 1.0
C      1  0.5486400000000  0.4833520000000  0.5900550000000 1.0
C      1  0.4816960000000  0.4474220000000  0.5914760000000 1.0
C      1  0.5547530000000  0.5108690000000  0.5914700000000 1.0
C      1  0.4632780000000  0.5424150000000  0.5914740000000 1.0
C      1  0.5181060000000  0.4472630000000  0.4071480000000 1.0
C      1  0.4449250000000  0.5109440000000  0.4071500000000 1.0
C      1  0.5366640000000  0.5424810000000  0.4071440000000 1.0
C      1  0.5099760000000  0.4528970000000  0.5939320000000 1.0
C      1  0.5358720000000  0.5326220000000  0.5939280000000 1.0
C      1  0.4538800000000  0.5151860000000  0.5939330000000 1.0
C      1  0.4898570000000  0.4528830000000  0.4049010000000 1.0
C      1  0.4639150000000  0.5325980000000  0.4049000000000 1.0
C      1  0.5459220000000  0.5152070000000  0.4048960000000 1.0
C      1  0.5717630000000  0.5492120000000  0.5719010000000 1.0
C      1  0.4215640000000  0.5379740000000  0.5719100000000 1.0
C      1  0.5063960000000  0.4135170000000  0.5719090000000 1.0
C      1  0.4280270000000  0.5492430000000  0.4268840000000 1.0
C      1  0.5782820000000  0.5379670000000  0.4268760000000 1.0
C      1  0.4933890000000  0.4134800000000  0.4268840000000 1.0
C      1  0.5870310000000  0.4709740000000  0.4768560000000 1.0
C      1  0.4816760000000  0.5903160000000  0.4768590000000 1.0
C      1  0.4310000000000  0.4394050000000  0.4768660000000 1.0
C      1  0.4119850000000  0.4712960000000  0.5221370000000 1.0
C      1  0.5188050000000  0.5908420000000  0.5221270000000 1.0
C      1  0.5689250000000  0.4385610000000  0.5221290000000 1.0
C      1  0.5281590000000  0.5749460000000  0.5681730000000 1.0
C      1  0.4210800000000  0.4873450000000  0.5681810000000 1.0
C      1  0.5504840000000  0.4384130000000  0.5681760000000 1.0
C      1  0.4719950000000  0.5746170000000  0.4308700000000 1.0
C      1  0.5782730000000  0.4872030000000  0.4308670000000 1.0
C      1  0.4494310000000  0.4388710000000  0.4308760000000 1.0
C      1  0.4619780000000  0.5293780000000  0.4653750000000 1.0
C      1  0.4936210000000  0.4528140000000  0.4653750000000 1.0
C      1  0.5441060000000  0.5185010000000  0.4653700000000 1.0
C      1  0.5378290000000  0.5315600000000  0.5329600000000 1.0
C      1  0.5080730000000  0.4517270000000  0.5329640000000 1.0
C      1  0.4538140000000  0.5174130000000  0.5329650000000 1.0
C      1  0.5258910000000  0.5873750000000  0.4945510000000 1.0
C      1  0.4114410000000  0.4791670000000  0.4945610000000 1.0
C      1  0.5623780000000  0.4341540000000  0.4945540000000 1.0
C      1  0.4750350000000  0.5851030000000  0.5042360000000 1.0
C      1  0.5858390000000  0.4793340000000  0.5042330000000 1.0
C      1  0.4388390000000  0.4362590000000  0.5042430000000 1.0
C      1  0.4070530000000  0.4906460000000  0.5429220000000 1.0
C      1  0.5546350000000  0.4246140000000  0.5429160000000 1.0
C      1  0.5380300000000  0.5854400000000  0.5429120000000 1.0
C      1  0.5919910000000  0.4904130000000  0.4562380000000 1.0
C      1  0.4453540000000  0.4253880000000  0.4562480000000 1.0
C      1  0.4623590000000  0.5848920000000  0.4562430000000 1.0
C      1  0.5085760000000  0.5291540000000  0.5888840000000 1.0
C      1  0.4705310000000  0.4932820000000  0.5888870000000 1.0
C      1  0.5206190000000  0.4782700000000  0.5888850000000 1.0
C      1  0.4912760000000  0.5293590000000  0.4095650000000 1.0
C      1  0.5294360000000  0.4931310000000  0.4095640000000 1.0
C      1  0.4789820000000  0.4781980000000  0.4095670000000 1.0
C      1  0.5043990000000  0.5169420000000  0.5611380000000 1.0
C      1  0.4831920000000  0.4957710000000  0.5611400000000 1.0
C      1  0.5121310000000  0.4879900000000  0.5611380000000 1.0
C      1  0.4956000000000  0.5168850000000  0.4371750000000 1.0
C      1  0.5164740000000  0.4956260000000  0.4371740000000 1.0
C      1  0.4876260000000  0.4881790000000  0.4371760000000 1.0
C      1  0.4362270000000  0.5770600000000  0.4644290000000 1.0
C      1  0.4652040000000  0.4066730000000  0.4644330000000 1.0
C      1  0.5982750000000  0.5169610000000  0.4644210000000 1.0
C      1  0.5640850000000  0.5775390000000  0.5346900000000 1.0
C      1  0.5347650000000  0.4060000000000  0.5346970000000 1.0
C      1  0.4008680000000  0.5171610000000  0.5347010000000 1.0
C      1  0.5000000000000  0.3941590000000  0.4994630000000 1.0
C      1  0.4079930000000  0.5531860000000  0.4994640000000 1.0
C      1  0.5917180000000  0.5533520000000  0.4994530000000 1.0
C      1  0.4999040000000  0.5002320000000  0.5079930000000 1.0
END
