TITL C-183189-4286-4 892.128794415883 125000 -625.127781600987 0 0 92 (C1) n - 1
REM
REM in /rds/project/t2_vol4/rds-t2-cs072/BORA/CARBON/from-Arr/AIRSS/Generating-Clusters/GAP-ML-2020/Higher-Symm/SD-CG/HFTN-CG
REM
REM
REM
REM
REM
REM ./C.cell (b20cbc046b6831c77cfcea5457e17084)
REM AIRSS Version 0.9.1 bugfix July 2018 build 013d7b7c2542+ Fri, 06 Jul 2018 19:26:36 +0100
REM compiler GCC version 9.3.0
REM options -cpp -mtune=generic -march=x86-64 -g -O0
REM seed 961787414 226958458 -496212494 -1139350599 -1411314030 -260527109 1582857523 -1921530683 -141544430 -559267271 470633639 1822461742 -1179636623 -64808833 -1742308452 99570858 -699994226 269124308 262904074 -479414864 969391375 1217215672 376875878 -1654339700 -1260088546 1348812095 -576690399 -2728152 -1308754929 197371803 -208612883 -1606920620 -302606698
REM
CELL 1.54180   50.00000   50.00000   50.00000   90.00000   90.00000   90.00000
LATT -1
SFAC C  
C      1  0.5740350000000  0.4394460000000  0.5147490000000 1.0
C      1  0.4098870000000  0.4688730000000  0.5156760000000 1.0
C      1  0.5068090000000  0.5890970000000  0.5150710000000 1.0
C      1  0.5743260000000  0.4405290000000  0.4842380000000 1.0
C      1  0.4103540000000  0.4715950000000  0.4866390000000 1.0
C      1  0.5065570000000  0.5896290000000  0.4840080000000 1.0
C      1  0.4277090000000  0.4451050000000  0.5143140000000 1.0
C      1  0.5870090000000  0.4666300000000  0.5156840000000 1.0
C      1  0.4766370000000  0.5902920000000  0.5152720000000 1.0
C      1  0.4276820000000  0.4481050000000  0.4832640000000 1.0
C      1  0.5882690000000  0.4665820000000  0.4851620000000 1.0
C      1  0.4767060000000  0.5894860000000  0.4849080000000 1.0
C      1  0.4440310000000  0.5550640000000  0.4635100000000 1.0
C      1  0.5760960000000  0.5099450000000  0.4640920000000 1.0
C      1  0.4716180000000  0.4316490000000  0.4611260000000 1.0
C      1  0.4480800000000  0.5565330000000  0.5407360000000 1.0
C      1  0.5678950000000  0.5082800000000  0.5389150000000 1.0
C      1  0.4719380000000  0.4295760000000  0.5355320000000 1.0
C      1  0.5433450000000  0.5605830000000  0.4636220000000 1.0
C      1  0.4246860000000  0.4981820000000  0.4487700000000 1.0
C      1  0.5308240000000  0.4299330000000  0.4602350000000 1.0
C      1  0.5402740000000  0.5564540000000  0.5386060000000 1.0
C      1  0.4291080000000  0.5039210000000  0.5403080000000 1.0
C      1  0.5307240000000  0.4292020000000  0.5371590000000 1.0
C      1  0.5851510000000  0.4866300000000  0.5329400000000 1.0
C      1  0.4456370000000  0.4351920000000  0.5311110000000 1.0
C      1  0.4584530000000  0.5807500000000  0.5328780000000 1.0
C      1  0.5894970000000  0.4864200000000  0.4675330000000 1.0
C      1  0.4456960000000  0.4384780000000  0.4659880000000 1.0
C      1  0.4597650000000  0.5768460000000  0.4690810000000 1.0
C      1  0.4086120000000  0.4858390000000  0.5363020000000 1.0
C      1  0.5571690000000  0.4271290000000  0.5317720000000 1.0
C      1  0.5236800000000  0.5786750000000  0.5321640000000 1.0
C      1  0.4133320000000  0.4969600000000  0.4735070000000 1.0
C      1  0.5575200000000  0.4317350000000  0.4658170000000 1.0
C      1  0.5259540000000  0.5818500000000  0.4673740000000 1.0
C      1  0.5293720000000  0.4695830000000  0.5630860000000 1.0
C      1  0.4575920000000  0.4888020000000  0.5746370000000 1.0
C      1  0.5119780000000  0.5446160000000  0.5771010000000 1.0
C      1  0.5289730000000  0.4674220000000  0.4277260000000 1.0
C      1  0.4677350000000  0.4916490000000  0.4248570000000 1.0
C      1  0.5229500000000  0.5445370000000  0.4219200000000 1.0
C      1  0.4730810000000  0.4640580000000  0.5699590000000 1.0
C      1  0.5446120000000  0.4882610000000  0.5757460000000 1.0
C      1  0.4878760000000  0.5412120000000  0.5650620000000 1.0
C      1  0.4726990000000  0.4651110000000  0.4262050000000 1.0
C      1  0.5438960000000  0.4930520000000  0.4288020000000 1.0
C      1  0.4732940000000  0.5474360000000  0.4263910000000 1.0
C      1  0.5155700000000  0.4239440000000  0.4832990000000 1.0
C      1  0.4228570000000  0.5172980000000  0.4912020000000 1.0
C      1  0.5481530000000  0.5463570000000  0.4892820000000 1.0
C      1  0.5147430000000  0.4344750000000  0.5123410000000 1.0
C      1  0.4427170000000  0.5105590000000  0.5139120000000 1.0
C      1  0.5606090000000  0.5517050000000  0.5168030000000 1.0
C      1  0.4872770000000  0.4207690000000  0.4834980000000 1.0
C      1  0.5644160000000  0.5194820000000  0.4897640000000 1.0
C      1  0.4345340000000  0.5428150000000  0.4882650000000 1.0
C      1  0.4872610000000  0.4227700000000  0.5130190000000 1.0
C      1  0.5740990000000  0.5280370000000  0.5170250000000 1.0
C      1  0.4506430000000  0.5408370000000  0.5144970000000 1.0
C      1  0.5240530000000  0.5314590000000  0.5277040000000 1.0
C      1  0.5107120000000  0.4667910000000  0.5130060000000 1.0
C      1  0.4666610000000  0.4965040000000  0.4992650000000 1.0
C      1  0.5230480000000  0.5315140000000  0.4972160000000 1.0
C      1  0.5267240000000  0.4785680000000  0.4891250000000 1.0
C      1  0.4801710000000  0.5145830000000  0.4792400000000 1.0
C      1  0.4809880000000  0.5402670000000  0.5149190000000 1.0
C      1  0.4843450000000  0.4749000000000  0.4985310000000 1.0
C      1  0.5382030000000  0.5048620000000  0.5269240000000 1.0
C      1  0.4944950000000  0.5351830000000  0.4913070000000 1.0
C      1  0.5023960000000  0.4799680000000  0.4738340000000 1.0
C      1  0.5388270000000  0.5039070000000  0.4968080000000 1.0
C      1  0.4447800000000  0.5122880000000  0.5634240000000 1.0
C      1  0.5376580000000  0.5403260000000  0.5664930000000 1.0
C      1  0.5166530000000  0.4435540000000  0.5587430000000 1.0
C      1  0.4451030000000  0.5085340000000  0.4352140000000 1.0
C      1  0.5426650000000  0.5413090000000  0.4407260000000 1.0
C      1  0.5163550000000  0.4449100000000  0.4395430000000 1.0
C      1  0.5530290000000  0.5134550000000  0.5661100000000 1.0
C      1  0.4581380000000  0.5384020000000  0.5622310000000 1.0
C      1  0.4874900000000  0.4431080000000  0.5569080000000 1.0
C      1  0.5563130000000  0.5148820000000  0.4426510000000 1.0
C      1  0.4510890000000  0.5383930000000  0.4391190000000 1.0
C      1  0.4863530000000  0.4452050000000  0.4392820000000 1.0
C      1  0.4970740000000  0.5351730000000  0.4210540000000 1.0
C      1  0.4953610000000  0.5285500000000  0.5374990000000 1.0
C      1  0.4840960000000  0.4891270000000  0.5679380000000 1.0
C      1  0.5177480000000  0.4909310000000  0.4197720000000 1.0
C      1  0.5183950000000  0.4844230000000  0.5365670000000 1.0
C      1  0.4966730000000  0.5028730000000  0.4595380000000 1.0
C      1  0.4943130000000  0.5057120000000  0.4289570000000 1.0
C      1  0.4957900000000  0.4999770000000  0.5448850000000 1.0
END
