TITL C-180221-6785-4 -0.213542742526188 125000 -591.289101263094 0 0 85 (C1) n - 1
REM
REM in /rds/project/t2_vol4/rds-t2-cs072/BORA/CARBON/from-Arr/AIRSS/Generating-Clusters/GAP-ML-2020/Higher-Symm/SD-CG/HFTN-CG
REM
REM
REM
REM
REM
REM ./C.cell (b20cbc046b6831c77cfcea5457e17084)
REM AIRSS Version 0.9.1 bugfix July 2018 build 013d7b7c2542+ Fri, 06 Jul 2018 19:26:36 +0100
REM compiler GCC version 9.3.0
REM options -cpp -mtune=generic -march=x86-64 -g -O0
REM seed 1017092690 784585834 1315403222 -1511284154 -1503411437 465724013 1127902010 -1287852863 1319531320 -919220026 843779702 1096675794 321566558 -1995196154 -1258713379 -33206112 1565879274 1799184072 -1198323505 1044761558 -367424443 -1854426499 -1271294199 -1298843298 2059646051 -1199620538 -987207860 -430099354 -263925759 1178398807 -643020423 -618218775 -1370589987
REM
CELL 1.54180   50.00000   50.00000   50.00000   90.00000   90.00000   90.00000
LATT -1
SFAC C  
C      1  0.5335550000000  0.4765450000000  0.4260930000000 1.0
C      1  0.4488890000000  0.5265950000000  0.5233740000000 1.0
C      1  0.5556770000000  0.4664360000000  0.5672280000000 1.0
C      1  0.5459320000000  0.4817720000000  0.4535590000000 1.0
C      1  0.5194540000000  0.4386420000000  0.4709900000000 1.0
C      1  0.5423390000000  0.5413490000000  0.5324320000000 1.0
C      1  0.4946280000000  0.5548050000000  0.5518350000000 1.0
C      1  0.5063860000000  0.4378230000000  0.4460240000000 1.0
C      1  0.5502830000000  0.4442550000000  0.5499790000000 1.0
C      1  0.5634510000000  0.4910430000000  0.5562720000000 1.0
C      1  0.4637750000000  0.4612930000000  0.5578200000000 1.0
C      1  0.5493320000000  0.5356600000000  0.5596320000000 1.0
C      1  0.4853490000000  0.4624730000000  0.5772530000000 1.0
C      1  0.4642780000000  0.4312090000000  0.4694720000000 1.0
C      1  0.5185650000000  0.4440770000000  0.5200060000000 1.0
C      1  0.5495670000000  0.5117900000000  0.5711620000000 1.0
C      1  0.5319910000000  0.4641290000000  0.4735320000000 1.0
C      1  0.4257120000000  0.4850400000000  0.5245280000000 1.0
C      1  0.4796710000000  0.5131890000000  0.5146690000000 1.0
C      1  0.4406150000000  0.4477810000000  0.4729880000000 1.0
C      1  0.4349150000000  0.4718170000000  0.4565730000000 1.0
C      1  0.4907890000000  0.5126220000000  0.4675240000000 1.0
C      1  0.5388960000000  0.5121950000000  0.4635280000000 1.0
C      1  0.4589730000000  0.4310530000000  0.5140320000000 1.0
C      1  0.5148020000000  0.5577600000000  0.5305440000000 1.0
C      1  0.5663720000000  0.5445480000000  0.4898100000000 1.0
C      1  0.4515620000000  0.4444300000000  0.5390890000000 1.0
C      1  0.4811430000000  0.4904000000000  0.5824450000000 1.0
C      1  0.5123220000000  0.5885700000000  0.5269720000000 1.0
C      1  0.5812120000000  0.4682740000000  0.4875910000000 1.0
C      1  0.5086710000000  0.5144090000000  0.4195290000000 1.0
C      1  0.4407840000000  0.5024400000000  0.5409420000000 1.0
C      1  0.4788800000000  0.5164230000000  0.4177920000000 1.0
C      1  0.4845180000000  0.5866540000000  0.5174060000000 1.0
C      1  0.4632700000000  0.4916820000000  0.5559130000000 1.0
C      1  0.4492910000000  0.4718620000000  0.4316690000000 1.0
C      1  0.4993670000000  0.5246940000000  0.4942070000000 1.0
C      1  0.5223190000000  0.4379310000000  0.5508480000000 1.0
C      1  0.5571440000000  0.5581430000000  0.5112470000000 1.0
C      1  0.4877770000000  0.5588400000000  0.4430190000000 1.0
C      1  0.5071120000000  0.4735200000000  0.5169190000000 1.0
C      1  0.5174220000000  0.4814700000000  0.4900250000000 1.0
C      1  0.4876610000000  0.4855220000000  0.4775290000000 1.0
C      1  0.5617500000000  0.4934710000000  0.5279450000000 1.0
C      1  0.4897710000000  0.5088670000000  0.5426270000000 1.0
C      1  0.4720790000000  0.5643900000000  0.4671940000000 1.0
C      1  0.5137750000000  0.5196680000000  0.4480200000000 1.0
C      1  0.4306320000000  0.5241680000000  0.4992640000000 1.0
C      1  0.4779010000000  0.4324550000000  0.4452080000000 1.0
C      1  0.5154500000000  0.4948160000000  0.5359270000000 1.0
C      1  0.5117940000000  0.4573290000000  0.4255980000000 1.0
C      1  0.5542250000000  0.5383330000000  0.4664910000000 1.0
C      1  0.4695490000000  0.4894530000000  0.4174920000000 1.0
C      1  0.4848920000000  0.5722830000000  0.4922470000000 1.0
C      1  0.5339860000000  0.6023740000000  0.5199210000000 1.0
C      1  0.4291780000000  0.4573490000000  0.5246700000000 1.0
C      1  0.4785480000000  0.4253370000000  0.4942990000000 1.0
C      1  0.5377840000000  0.5114380000000  0.5208680000000 1.0
C      1  0.4657280000000  0.4491590000000  0.4263750000000 1.0
C      1  0.5338990000000  0.5588520000000  0.4602130000000 1.0
C      1  0.4346050000000  0.5253790000000  0.4705080000000 1.0
C      1  0.5274620000000  0.4979180000000  0.4086370000000 1.0
C      1  0.4690240000000  0.5385360000000  0.4333030000000 1.0
C      1  0.4939270000000  0.5293390000000  0.5638070000000 1.0
C      1  0.5007740000000  0.5104620000000  0.5851160000000 1.0
C      1  0.5117350000000  0.4522640000000  0.5742050000000 1.0
C      1  0.5054850000000  0.5532190000000  0.5002660000000 1.0
C      1  0.4264800000000  0.4956820000000  0.4701400000000 1.0
C      1  0.5509820000000  0.4481120000000  0.5216300000000 1.0
C      1  0.4530070000000  0.5523540000000  0.5343590000000 1.0
C      1  0.4210950000000  0.4970140000000  0.4987340000000 1.0
C      1  0.5073380000000  0.4298900000000  0.4960640000000 1.0
C      1  0.5320380000000  0.4712050000000  0.5830700000000 1.0
C      1  0.4357240000000  0.4438250000000  0.5000970000000 1.0
C      1  0.5713450000000  0.4708570000000  0.4640970000000 1.0
C      1  0.5423840000000  0.5821690000000  0.5027460000000 1.0
C      1  0.5686620000000  0.4698060000000  0.5130250000000 1.0
C      1  0.4864150000000  0.4656690000000  0.4144190000000 1.0
C      1  0.4795830000000  0.4840490000000  0.5051850000000 1.0
C      1  0.4730490000000  0.5691070000000  0.5388240000000 1.0
C      1  0.5262560000000  0.5091850000000  0.4928220000000 1.0
C      1  0.5135320000000  0.5485240000000  0.4442320000000 1.0
C      1  0.5240050000000  0.5712270000000  0.4833800000000 1.0
C      1  0.4518150000000  0.5438820000000  0.4567230000000 1.0
C      1  0.5276840000000  0.4994170000000  0.5862490000000 1.0
END
