TITL C-180227-6042-4 -0.0500826904252528 125000 -789.926453135448 0 0 115 (C5) n - 1
REM
REM in /rds/project/t2_vol4/rds-t2-cs072/BORA/CARBON/from-Arr/AIRSS/Generating-Clusters/GAP-ML-2020/Higher-Symm/SD-CG/HFTN-CG
REM
REM
REM
REM
REM
REM ./C.cell (b20cbc046b6831c77cfcea5457e17084)
REM AIRSS Version 0.9.1 bugfix July 2018 build 013d7b7c2542+ Fri, 06 Jul 2018 19:26:36 +0100
REM compiler GCC version 9.3.0
REM options -cpp -mtune=generic -march=x86-64 -g -O0
REM seed 94669473 -2097462453 1483541854 -2074110488 -1602072782 382680749 300441501 -978149521 -365594683 632140051 332853934 1110308370 -432548661 -112881171 1087951762 1598169410 -1825231403 600573718 755548989 1761272740 -1211267719 -1297471640 -556905111 -148221366 -883055275 -2076107166 -359502549 -286100830 493522100 843151789 -1204402231 1129489511 -726646913
REM
CELL 1.54180   50.00000   50.00000   50.00000   90.00000   90.00000   90.00000
LATT -1
SFAC C  
C      1  0.5896360000000  0.4856970000000  0.5366490000000 1.0
C      1  0.5140970000000  0.4103320000000  0.5366490000000 1.0
C      1  0.4190780000000  0.4588840000000  0.5366530000000 1.0
C      1  0.4358920000000  0.5642570000000  0.5366540000000 1.0
C      1  0.5413020000000  0.5808270000000  0.5366520000000 1.0
C      1  0.5896340000000  0.4856980000000  0.4631900000000 1.0
C      1  0.5140950000000  0.4103330000000  0.4631900000000 1.0
C      1  0.4190760000000  0.4588860000000  0.4631940000000 1.0
C      1  0.4358900000000  0.5642580000000  0.4631950000000 1.0
C      1  0.5413000000000  0.5808290000000  0.4631930000000 1.0
C      1  0.5406990000000  0.4158490000000  0.4733350000000 1.0
C      1  0.4325430000000  0.4352880000000  0.4733380000000 1.0
C      1  0.4176090000000  0.5441580000000  0.4733410000000 1.0
C      1  0.5165350000000  0.5920040000000  0.4733390000000 1.0
C      1  0.5926090000000  0.5127040000000  0.4733360000000 1.0
C      1  0.5407010000000  0.4158480000000  0.5265030000000 1.0
C      1  0.4325450000000  0.4352870000000  0.5265060000000 1.0
C      1  0.4176110000000  0.5441570000000  0.5265090000000 1.0
C      1  0.5165370000000  0.5920030000000  0.5265070000000 1.0
C      1  0.5926110000000  0.5127030000000  0.5265040000000 1.0
C      1  0.4256100000000  0.4984740000000  0.4845340000000 1.0
C      1  0.4755600000000  0.5702770000000  0.4845340000000 1.0
C      1  0.5592840000000  0.5449600000000  0.4845320000000 1.0
C      1  0.5610790000000  0.4575100000000  0.4845300000000 1.0
C      1  0.4784640000000  0.4287800000000  0.4845320000000 1.0
C      1  0.4256110000000  0.4984730000000  0.5153130000000 1.0
C      1  0.4755610000000  0.5702760000000  0.5153130000000 1.0
C      1  0.5592850000000  0.5449600000000  0.5153110000000 1.0
C      1  0.5610800000000  0.4575100000000  0.5153090000000 1.0
C      1  0.4784650000000  0.4287800000000  0.5153100000000 1.0
C      1  0.4736470000000  0.4315810000000  0.4397650000000 1.0
C      1  0.4267840000000  0.5039190000000  0.4397670000000 1.0
C      1  0.4811000000000  0.5708430000000  0.4397670000000 1.0
C      1  0.5615330000000  0.5398660000000  0.4397650000000 1.0
C      1  0.5569270000000  0.4537970000000  0.4397630000000 1.0
C      1  0.4736500000000  0.4315790000000  0.5600780000000 1.0
C      1  0.4267870000000  0.5039170000000  0.5600800000000 1.0
C      1  0.4811040000000  0.5708410000000  0.5600800000000 1.0
C      1  0.5615360000000  0.5398630000000  0.5600770000000 1.0
C      1  0.5569300000000  0.4537940000000  0.5600760000000 1.0
C      1  0.4553480000000  0.5576440000000  0.5566060000000 1.0
C      1  0.5410270000000  0.5602800000000  0.5566040000000 1.0
C      1  0.5700100000000  0.4796100000000  0.5566020000000 1.0
C      1  0.5022440000000  0.4271160000000  0.5566020000000 1.0
C      1  0.4313790000000  0.4753440000000  0.5566050000000 1.0
C      1  0.4553450000000  0.5576460000000  0.4432420000000 1.0
C      1  0.5410240000000  0.5602830000000  0.4432400000000 1.0
C      1  0.5700070000000  0.4796120000000  0.4432380000000 1.0
C      1  0.5022410000000  0.4271180000000  0.4432380000000 1.0
C      1  0.4313760000000  0.4753460000000  0.4432410000000 1.0
C      1  0.5895550000000  0.4680640000000  0.5143160000000 1.0
C      1  0.4973010000000  0.4049590000000  0.5143170000000 1.0
C      1  0.4087770000000  0.4731970000000  0.5143210000000 1.0
C      1  0.4463200000000  0.5784760000000  0.5143220000000 1.0
C      1  0.5580470000000  0.5753030000000  0.5143190000000 1.0
C      1  0.5895550000000  0.4680640000000  0.4855220000000 1.0
C      1  0.4973010000000  0.4049600000000  0.4855230000000 1.0
C      1  0.4087770000000  0.4731980000000  0.4855270000000 1.0
C      1  0.4463200000000  0.5784760000000  0.4855280000000 1.0
C      1  0.5580470000000  0.5753030000000  0.4855250000000 1.0
C      1  0.5132290000000  0.5227400000000  0.4663660000000 1.0
C      1  0.5257140000000  0.4944450000000  0.4663650000000 1.0
C      1  0.5026610000000  0.4738280000000  0.4663650000000 1.0
C      1  0.4759300000000  0.4893810000000  0.4663660000000 1.0
C      1  0.4824610000000  0.5196100000000  0.4663670000000 1.0
C      1  0.5132310000000  0.5227380000000  0.5334780000000 1.0
C      1  0.5257150000000  0.4944430000000  0.5334770000000 1.0
C      1  0.5026630000000  0.4738260000000  0.5334770000000 1.0
C      1  0.4759320000000  0.4893800000000  0.5334780000000 1.0
C      1  0.4824630000000  0.5196090000000  0.5334790000000 1.0
C      1  0.4910850000000  0.5825830000000  0.4638400000000 1.0
C      1  0.5757850000000  0.5339980000000  0.4638370000000 1.0
C      1  0.5557520000000  0.4384300000000  0.4638360000000 1.0
C      1  0.4586700000000  0.4279500000000  0.4638380000000 1.0
C      1  0.4187040000000  0.5170420000000  0.4638410000000 1.0
C      1  0.4910870000000  0.5825820000000  0.5360070000000 1.0
C      1  0.5757870000000  0.5339970000000  0.5360040000000 1.0
C      1  0.5557530000000  0.4384280000000  0.5360030000000 1.0
C      1  0.4586720000000  0.4279490000000  0.5360050000000 1.0
C      1  0.4187060000000  0.5170410000000  0.5360080000000 1.0
C      1  0.5425510000000  0.5210710000000  0.4274860000000 1.0
C      1  0.5331860000000  0.4660420000000  0.4274850000000 1.0
C      1  0.4779570000000  0.4579440000000  0.4274860000000 1.0
C      1  0.4531880000000  0.5079670000000  0.4274880000000 1.0
C      1  0.4931090000000  0.5469820000000  0.4274870000000 1.0
C      1  0.5425550000000  0.5210690000000  0.5723570000000 1.0
C      1  0.5331900000000  0.4660400000000  0.5723560000000 1.0
C      1  0.4779610000000  0.4579410000000  0.5723570000000 1.0
C      1  0.4531910000000  0.5079650000000  0.5723590000000 1.0
C      1  0.4931130000000  0.5469800000000  0.5723580000000 1.0
C      1  0.4555640000000  0.4833910000000  0.5138160000000 1.0
C      1  0.4704730000000  0.5371290000000  0.5138160000000 1.0
C      1  0.5261880000000  0.5395560000000  0.5138150000000 1.0
C      1  0.5457130000000  0.4873180000000  0.5138130000000 1.0
C      1  0.5020650000000  0.4526060000000  0.5138140000000 1.0
C      1  0.4555630000000  0.4833910000000  0.4860300000000 1.0
C      1  0.4704720000000  0.5371290000000  0.4860300000000 1.0
C      1  0.5261870000000  0.5395560000000  0.4860290000000 1.0
C      1  0.5457120000000  0.4873180000000  0.4860280000000 1.0
C      1  0.5020640000000  0.4526060000000  0.4860280000000 1.0
C      1  0.4610450000000  0.4798100000000  0.5631330000000 1.0
C      1  0.4687620000000  0.5308100000000  0.5631340000000 1.0
C      1  0.5196520000000  0.5392300000000  0.5631330000000 1.0
C      1  0.5433850000000  0.4934340000000  0.5631320000000 1.0
C      1  0.5071640000000  0.4567100000000  0.5631320000000 1.0
C      1  0.4610410000000  0.4798120000000  0.4367120000000 1.0
C      1  0.4687590000000  0.5308130000000  0.4367120000000 1.0
C      1  0.5196490000000  0.5392330000000  0.4367110000000 1.0
C      1  0.5433820000000  0.4934360000000  0.4367100000000 1.0
C      1  0.5071610000000  0.4567120000000  0.4367100000000 1.0
C      1  0.4257860000000  0.4295580000000  0.4999220000000 1.0
C      1  0.5440610000000  0.4076500000000  0.4999190000000 1.0
C      1  0.5186360000000  0.6006110000000  0.4999230000000 1.0
C      1  0.6014450000000  0.5133660000000  0.4999200000000 1.0
C      1  0.4100730000000  0.5488140000000  0.4999250000000 1.0
END
