TITL C-183190-4753-1 -0.0602850313268452 125000 -220.105265513035 0 0 34 (C1) n - 1
REM
REM in /rds/project/t2_vol4/rds-t2-cs072/BORA/CARBON/from-Arr/AIRSS/Generating-Clusters/GAP-ML-2020/Higher-Symm/SD-CG/HFTN-CG
REM
REM
REM
REM
REM
REM ./C.cell (b20cbc046b6831c77cfcea5457e17084)
REM AIRSS Version 0.9.1 bugfix July 2018 build 013d7b7c2542+ Fri, 06 Jul 2018 19:26:36 +0100
REM compiler GCC version 9.3.0
REM options -cpp -mtune=generic -march=x86-64 -g -O0
REM seed -430439422 1659281948 -894011808 510712815 -1306828203 -1647262588 1308363950 -90130728 -1693000811 1357234602 -1316019063 -2130434926 -982284480 1324914134 -1009220985 -1877021011 42727971 1493002412 -205806277 -1798773124 752823211 -79260199 -339696411 -411717069 -1406262491 -1551631772 -1278397334 765715776 -2141634760 -817263305 2123198169 -2022759674 -626706066
REM
CELL 1.54180   50.00000   50.00000   50.00000   90.00000   90.00000   90.00000
LATT -1
SFAC C  
C      1  0.4907770000000  0.4694960000000  0.4702380000000 1.0
C      1  0.5083720000000  0.5261460000000  0.4722560000000 1.0
C      1  0.5555790000000  0.4868700000000  0.5048590000000 1.0
C      1  0.4463310000000  0.5134880000000  0.5098210000000 1.0
C      1  0.5119300000000  0.4896970000000  0.5092950000000 1.0
C      1  0.4897020000000  0.5263590000000  0.5187550000000 1.0
C      1  0.4640500000000  0.5080260000000  0.5553650000000 1.0
C      1  0.5364730000000  0.4872300000000  0.5513620000000 1.0
C      1  0.4668480000000  0.5634920000000  0.5011510000000 1.0
C      1  0.5261380000000  0.4441360000000  0.5096670000000 1.0
C      1  0.4692740000000  0.4927120000000  0.4696440000000 1.0
C      1  0.5310340000000  0.5050960000000  0.4648810000000 1.0
C      1  0.4659090000000  0.5369060000000  0.5069920000000 1.0
C      1  0.5333450000000  0.4686920000000  0.5017970000000 1.0
C      1  0.4634250000000  0.4398750000000  0.4929050000000 1.0
C      1  0.5361990000000  0.5572520000000  0.4904590000000 1.0
C      1  0.5183310000000  0.5525530000000  0.4680310000000 1.0
C      1  0.4810220000000  0.4428350000000  0.4684870000000 1.0
C      1  0.5118570000000  0.5197270000000  0.5022220000000 1.0
C      1  0.4895680000000  0.4753680000000  0.4989000000000 1.0
C      1  0.4872140000000  0.5792040000000  0.4968410000000 1.0
C      1  0.5119580000000  0.4227970000000  0.5052370000000 1.0
C      1  0.4629550000000  0.4657510000000  0.5050070000000 1.0
C      1  0.5393920000000  0.5316390000000  0.5018460000000 1.0
C      1  0.4887350000000  0.5093370000000  0.4583140000000 1.0
C      1  0.5104450000000  0.4880670000000  0.4562170000000 1.0
C      1  0.4887710000000  0.5092690000000  0.5414710000000 1.0
C      1  0.5116530000000  0.4920540000000  0.5388000000000 1.0
C      1  0.4883610000000  0.4262250000000  0.4921060000000 1.0
C      1  0.5115740000000  0.5714620000000  0.4889110000000 1.0
C      1  0.5506120000000  0.5089260000000  0.4863290000000 1.0
C      1  0.4527710000000  0.4908190000000  0.4929240000000 1.0
C      1  0.4455840000000  0.5070790000000  0.5370470000000 1.0
C      1  0.5538080000000  0.4914150000000  0.5318610000000 1.0
END
