TITL C-183206-6899-7 -17.5470851699896 125000 -538.759436319423 0 0 76 (C1) n - 1
REM
REM in /rds/project/t2_vol4/rds-t2-cs072/BORA/CARBON/from-Arr/AIRSS/Generating-Clusters/GAP-ML-2020/Higher-Symm/SD-CG/HFTN-CG
REM
REM
REM
REM
REM
REM ./C.cell (b20cbc046b6831c77cfcea5457e17084)
REM AIRSS Version 0.9.1 bugfix July 2018 build 013d7b7c2542+ Fri, 06 Jul 2018 19:26:36 +0100
REM compiler GCC version 9.3.0
REM options -cpp -mtune=generic -march=x86-64 -g -O0
REM seed -723964338 1486881111 1819161824 594027914 650579624 363331238 -1768578951 -778803579 2092406893 -1559257304 1225063265 833387370 -257450100 793131545 720205693 501376978 121647260 -1551899360 -1863167526 881211285 1450041596 -2091381814 1024867078 -297074473 84306682 426615280 -1743067611 846853034 1940946954 183967078 -1867551354 1235746587 1541741910
REM
CELL 1.54180   50.00000   50.00000   50.00000   90.00000   90.00000   90.00000
LATT -1
SFAC C  
C      1  0.5062290000000  0.5364030000000  0.5911480000000 1.0
C      1  0.4510570000000  0.4913650000000  0.5688630000000 1.0
C      1  0.5147360000000  0.4741170000000  0.5710400000000 1.0
C      1  0.4815760000000  0.5408950000000  0.4291250000000 1.0
C      1  0.5299570000000  0.4959730000000  0.4256540000000 1.0
C      1  0.4726110000000  0.4660130000000  0.4349620000000 1.0
C      1  0.5468860000000  0.5326500000000  0.4577190000000 1.0
C      1  0.4490860000000  0.5185470000000  0.4680640000000 1.0
C      1  0.5320700000000  0.4356450000000  0.4634750000000 1.0
C      1  0.4603290000000  0.5347360000000  0.5351670000000 1.0
C      1  0.5521180000000  0.5241360000000  0.5369690000000 1.0
C      1  0.4916370000000  0.4430250000000  0.5373110000000 1.0
C      1  0.4897900000000  0.4821510000000  0.5799240000000 1.0
C      1  0.5268230000000  0.5235450000000  0.5773910000000 1.0
C      1  0.4765340000000  0.5071660000000  0.5686000000000 1.0
C      1  0.4989970000000  0.4563340000000  0.4388410000000 1.0
C      1  0.4801870000000  0.5133820000000  0.4198430000000 1.0
C      1  0.5096560000000  0.5132750000000  0.4158510000000 1.0
C      1  0.4672460000000  0.4665660000000  0.5734950000000 1.0
C      1  0.5324470000000  0.4964240000000  0.5691170000000 1.0
C      1  0.4826260000000  0.5351970000000  0.5770850000000 1.0
C      1  0.5243400000000  0.4683170000000  0.4311550000000 1.0
C      1  0.4640230000000  0.4933610000000  0.4295860000000 1.0
C      1  0.5109760000000  0.5400170000000  0.4245950000000 1.0
C      1  0.5802900000000  0.4777460000000  0.4953810000000 1.0
C      1  0.4766030000000  0.5786200000000  0.4947810000000 1.0
C      1  0.4343690000000  0.4444750000000  0.4914300000000 1.0
C      1  0.4169150000000  0.4807890000000  0.5057760000000 1.0
C      1  0.5179980000000  0.5809450000000  0.5049930000000 1.0
C      1  0.5468300000000  0.4374520000000  0.4878260000000 1.0
C      1  0.4388190000000  0.5287850000000  0.5164560000000 1.0
C      1  0.5002660000000  0.4355830000000  0.5100430000000 1.0
C      1  0.5522440000000  0.5391190000000  0.5109420000000 1.0
C      1  0.5594730000000  0.5281770000000  0.4847070000000 1.0
C      1  0.4861850000000  0.4353040000000  0.4841480000000 1.0
C      1  0.4429040000000  0.5383260000000  0.4886440000000 1.0
C      1  0.4267460000000  0.4529320000000  0.5167200000000 1.0
C      1  0.5808500000000  0.4709880000000  0.5210050000000 1.0
C      1  0.4916170000000  0.5809690000000  0.5193750000000 1.0
C      1  0.5700490000000  0.4547940000000  0.4814400000000 1.0
C      1  0.4199180000000  0.4688940000000  0.4803940000000 1.0
C      1  0.5038630000000  0.5818740000000  0.4806120000000 1.0
C      1  0.4325090000000  0.4742930000000  0.4566660000000 1.0
C      1  0.5670530000000  0.4645430000000  0.4551420000000 1.0
C      1  0.5051490000000  0.5642740000000  0.4600520000000 1.0
C      1  0.5577350000000  0.4717740000000  0.5353300000000 1.0
C      1  0.4411070000000  0.4588640000000  0.5391310000000 1.0
C      1  0.4954920000000  0.5686430000000  0.5443200000000 1.0
C      1  0.5441700000000  0.4530070000000  0.4439720000000 1.0
C      1  0.5256200000000  0.5492090000000  0.4471300000000 1.0
C      1  0.4421800000000  0.4997140000000  0.4485430000000 1.0
C      1  0.4663670000000  0.4499650000000  0.5501450000000 1.0
C      1  0.4746720000000  0.5518180000000  0.5545460000000 1.0
C      1  0.5502690000000  0.4968010000000  0.5470680000000 1.0
C      1  0.5744040000000  0.5028060000000  0.4807340000000 1.0
C      1  0.4612660000000  0.5595690000000  0.4807740000000 1.0
C      1  0.4583220000000  0.4403480000000  0.4765180000000 1.0
C      1  0.4272430000000  0.5018670000000  0.5226010000000 1.0
C      1  0.5351830000000  0.5624570000000  0.5177220000000 1.0
C      1  0.5296030000000  0.4381510000000  0.5104450000000 1.0
C      1  0.4355720000000  0.4864880000000  0.5460100000000 1.0
C      1  0.5372770000000  0.4517750000000  0.5340500000000 1.0
C      1  0.5239480000000  0.5602890000000  0.5441060000000 1.0
C      1  0.5693140000000  0.4927160000000  0.4548070000000 1.0
C      1  0.4531810000000  0.4547590000000  0.4523320000000 1.0
C      1  0.4794350000000  0.5505440000000  0.4568600000000 1.0
C      1  0.4803490000000  0.5128470000000  0.5377390000000 1.0
C      1  0.5151060000000  0.4539430000000  0.5508230000000 1.0
C      1  0.5377230000000  0.5393480000000  0.5564010000000 1.0
C      1  0.5508240000000  0.5086330000000  0.4414580000000 1.0
C      1  0.5040360000000  0.4384420000000  0.4616350000000 1.0
C      1  0.4791590000000  0.5220440000000  0.4695420000000 1.0
C      1  0.5304820000000  0.4825470000000  0.4859030000000 1.0
C      1  0.4948640000000  0.5030900000000  0.5162320000000 1.0
C      1  0.4943330000000  0.5155560000000  0.4911000000000 1.0
C      1  0.5065940000000  0.4899490000000  0.4931650000000 1.0
END
