TITL C-180246-9646-2 110.859652449001 125000 -646.50758288617 0 0 93 (C1) n - 1
REM
REM in /rds/project/t2_vol4/rds-t2-cs072/BORA/CARBON/from-Arr/AIRSS/Generating-Clusters/GAP-ML-2020/Higher-Symm/SD-CG/HFTN-CG
REM
REM
REM
REM
REM
REM ./C.cell (b20cbc046b6831c77cfcea5457e17084)
REM AIRSS Version 0.9.1 bugfix July 2018 build 013d7b7c2542+ Fri, 06 Jul 2018 19:26:36 +0100
REM compiler GCC version 9.3.0
REM options -cpp -mtune=generic -march=x86-64 -g -O0
REM seed 585970885 -1446843625 -296323991 -461716836 1079971849 -990556977 -307278984 -2044063885 -1606801843 -66413714 -2040264535 -27144338 -44527068 1657246970 -1005686689 -1475600633 -1406750098 172179790 1249827237 1369773607 1804953477 -1410524560 -955024028 -2015910039 -1089847985 -2045520255 1754582620 -327305705 692041083 -127063716 -2073627091 227814269 1057376081
REM
CELL 1.54180   50.00000   50.00000   50.00000   90.00000   90.00000   90.00000
LATT -1
SFAC C  
C      1  0.4480820000000  0.4702840000000  0.4315860000000 1.0
C      1  0.4485930000000  0.4466660000000  0.4472070000000 1.0
C      1  0.4544400000000  0.4225140000000  0.4836250000000 1.0
C      1  0.4541100000000  0.4340030000000  0.5373910000000 1.0
C      1  0.4608300000000  0.4563390000000  0.5570490000000 1.0
C      1  0.4644480000000  0.5095800000000  0.5724370000000 1.0
C      1  0.4506760000000  0.5338950000000  0.5638420000000 1.0
C      1  0.4503210000000  0.5689920000000  0.5230100000000 1.0
C      1  0.4552670000000  0.5740990000000  0.4940230000000 1.0
C      1  0.4555940000000  0.5487010000000  0.4433020000000 1.0
C      1  0.4564180000000  0.5202710000000  0.4331850000000 1.0
C      1  0.4939060000000  0.5460580000000  0.5724490000000 1.0
C      1  0.4904890000000  0.5899380000000  0.5330260000000 1.0
C      1  0.4893400000000  0.5990870000000  0.5052260000000 1.0
C      1  0.4873180000000  0.5716220000000  0.4226680000000 1.0
C      1  0.4883120000000  0.5204580000000  0.4049920000000 1.0
C      1  0.4941830000000  0.4697560000000  0.4164830000000 1.0
C      1  0.4943360000000  0.4214540000000  0.4576600000000 1.0
C      1  0.4982370000000  0.4099130000000  0.4843910000000 1.0
C      1  0.4978970000000  0.4296240000000  0.5342030000000 1.0
C      1  0.4892730000000  0.4737970000000  0.5909480000000 1.0
C      1  0.5006110000000  0.5200150000000  0.5839250000000 1.0
C      1  0.5395000000000  0.5685560000000  0.5345720000000 1.0
C      1  0.5281630000000  0.5603880000000  0.4815980000000 1.0
C      1  0.5278630000000  0.5548320000000  0.4541080000000 1.0
C      1  0.5318840000000  0.5123850000000  0.4322070000000 1.0
C      1  0.5375680000000  0.4843290000000  0.4353170000000 1.0
C      1  0.5400590000000  0.4319110000000  0.4574210000000 1.0
C      1  0.5432390000000  0.4201650000000  0.4835000000000 1.0
C      1  0.5419540000000  0.4393520000000  0.5371510000000 1.0
C      1  0.5358430000000  0.4610650000000  0.5559140000000 1.0
C      1  0.5468650000000  0.5071810000000  0.5596220000000 1.0
C      1  0.5363140000000  0.5499530000000  0.5565610000000 1.0
C      1  0.4853830000000  0.4730620000000  0.5476120000000 1.0
C      1  0.4733030000000  0.5004980000000  0.5456660000000 1.0
C      1  0.4915410000000  0.5208510000000  0.5317170000000 1.0
C      1  0.4729360000000  0.5328340000000  0.5075200000000 1.0
C      1  0.4801280000000  0.5555100000000  0.4889920000000 1.0
C      1  0.4807480000000  0.5455570000000  0.4593080000000 1.0
C      1  0.4835490000000  0.5153990000000  0.4507040000000 1.0
C      1  0.4855520000000  0.4950900000000  0.4714200000000 1.0
C      1  0.4997360000000  0.4729870000000  0.4797770000000 1.0
C      1  0.5080280000000  0.4735160000000  0.5059180000000 1.0
C      1  0.4937550000000  0.4587640000000  0.5245690000000 1.0
C      1  0.5450690000000  0.5325830000000  0.4480100000000 1.0
C      1  0.5572590000000  0.4789540000000  0.4558340000000 1.0
C      1  0.5588680000000  0.4526820000000  0.4649340000000 1.0
C      1  0.5615390000000  0.4406870000000  0.4916470000000 1.0
C      1  0.5615240000000  0.4490630000000  0.5185640000000 1.0
C      1  0.5659050000000  0.4766640000000  0.5241100000000 1.0
C      1  0.5544360000000  0.4816370000000  0.5499800000000 1.0
C      1  0.5560300000000  0.5317810000000  0.5481880000000 1.0
C      1  0.5556820000000  0.5488140000000  0.5217730000000 1.0
C      1  0.5457630000000  0.5399050000000  0.4947250000000 1.0
C      1  0.5593790000000  0.5261270000000  0.4710230000000 1.0
C      1  0.4813350000000  0.5017070000000  0.5938010000000 1.0
C      1  0.4676700000000  0.5560300000000  0.5650200000000 1.0
C      1  0.4660470000000  0.5766220000000  0.5445380000000 1.0
C      1  0.4654470000000  0.6010310000000  0.4929890000000 1.0
C      1  0.4615960000000  0.5705450000000  0.4242610000000 1.0
C      1  0.4645580000000  0.5075390000000  0.4086090000000 1.0
C      1  0.4688130000000  0.4795810000000  0.4147160000000 1.0
C      1  0.4655200000000  0.4265100000000  0.4573980000000 1.0
C      1  0.4739270000000  0.4105780000000  0.4997370000000 1.0
C      1  0.4737210000000  0.4171900000000  0.5272680000000 1.0
C      1  0.4687270000000  0.4566470000000  0.5835910000000 1.0
C      1  0.4368470000000  0.4442330000000  0.4924090000000 1.0
C      1  0.4363160000000  0.4491460000000  0.5206630000000 1.0
C      1  0.4380350000000  0.4718350000000  0.5380940000000 1.0
C      1  0.4444430000000  0.4983380000000  0.5352050000000 1.0
C      1  0.4357650000000  0.5251750000000  0.5394310000000 1.0
C      1  0.4427260000000  0.5408660000000  0.5164900000000 1.0
C      1  0.4342100000000  0.5500310000000  0.4889080000000 1.0
C      1  0.4336480000000  0.5384940000000  0.4642960000000 1.0
C      1  0.4338730000000  0.5125730000000  0.4515090000000 1.0
C      1  0.4316090000000  0.4849900000000  0.4532930000000 1.0
C      1  0.4330110000000  0.4604240000000  0.4692950000000 1.0
C      1  0.5074970000000  0.5445930000000  0.5469620000000 1.0
C      1  0.5105890000000  0.5691870000000  0.5279450000000 1.0
C      1  0.5050750000000  0.5705750000000  0.4972060000000 1.0
C      1  0.5027580000000  0.5530490000000  0.4393710000000 1.0
C      1  0.5044150000000  0.5232250000000  0.4274950000000 1.0
C      1  0.5166430000000  0.4622880000000  0.4289090000000 1.0
C      1  0.5164010000000  0.4355160000000  0.4438180000000 1.0
C      1  0.5227550000000  0.4115600000000  0.4994710000000 1.0
C      1  0.5229200000000  0.4207330000000  0.5269570000000 1.0
C      1  0.5105490000000  0.4751450000000  0.5674450000000 1.0
C      1  0.5207880000000  0.5029160000000  0.5714140000000 1.0
C      1  0.5362870000000  0.5137700000000  0.5080170000000 1.0
C      1  0.4830040000000  0.5086480000000  0.4955630000000 1.0
C      1  0.5643620000000  0.4987900000000  0.4760600000000 1.0
C      1  0.5600500000000  0.4957270000000  0.5042470000000 1.0
C      1  0.5082640000000  0.5040200000000  0.5131620000000 1.0
END
