TITL C-180458-1424-1 0.104131616514656 125000 -342.740483410945 0 0 50 (D5h) n - 1
REM
REM in /rds/project/t2_vol4/rds-t2-cs072/BORA/CARBON/from-Arr/AIRSS/Generating-Clusters/GAP-ML-2020/Higher-Symm/SD-CG/HFTN-CG
REM
REM
REM
REM
REM
REM ./C.cell (b20cbc046b6831c77cfcea5457e17084)
REM AIRSS Version 0.9.1 bugfix July 2018 build 013d7b7c2542+ Fri, 06 Jul 2018 19:26:36 +0100
REM compiler GCC version 9.3.0
REM options -cpp -mtune=generic -march=x86-64 -g -O0
REM seed -1180394873 -1589634353 -945305116 192436920 320629338 872885067 -1979046082 1454395809 397998499 1981897362 -2140404164 1497982779 -298806812 557033653 1913073885 -1361704163 -2046981874 603545608 337034580 -1476941522 1104917697 -1786889553 46224582 -1620508439 -226721727 -164328043 -565213094 1930862690 -1607852620 396672271 -1665187942 1493230236 -687069160
REM
CELL 1.54180   50.00000   50.00000   50.00000   90.00000   90.00000   90.00000
LATT -1
SFAC C  
C      1  0.4531910000000  0.4842880000000  0.4783760000000 1.0
C      1  0.4531890000000  0.5157070000000  0.4783760000000 1.0
C      1  0.4531870000000  0.5254160000000  0.5082580000000 1.0
C      1  0.4531880000000  0.4999970000000  0.5267250000000 1.0
C      1  0.4531900000000  0.4745780000000  0.5082570000000 1.0
C      1  0.5468110000000  0.5157130000000  0.4783800000000 1.0
C      1  0.5468130000000  0.4842940000000  0.4783790000000 1.0
C      1  0.5468120000000  0.4745840000000  0.5082600000000 1.0
C      1  0.5468100000000  0.5000030000000  0.5267280000000 1.0
C      1  0.5468090000000  0.5254210000000  0.5082610000000 1.0
C      1  0.5146240000000  0.4481730000000  0.4680690000000 1.0
C      1  0.5146210000000  0.5143540000000  0.4408420000000 1.0
C      1  0.5146160000000  0.5606990000000  0.4953700000000 1.0
C      1  0.5146160000000  0.5231610000000  0.5562970000000 1.0
C      1  0.5146210000000  0.4536170000000  0.5394240000000 1.0
C      1  0.4853780000000  0.5518270000000  0.4680690000000 1.0
C      1  0.4853840000000  0.4856470000000  0.4408410000000 1.0
C      1  0.4853840000000  0.4393010000000  0.4953680000000 1.0
C      1  0.4853800000000  0.4768370000000  0.5562950000000 1.0
C      1  0.4853760000000  0.5463820000000  0.5394240000000 1.0
C      1  0.4226160000000  0.5146350000000  0.4798480000000 1.0
C      1  0.4226150000000  0.5236820000000  0.5076940000000 1.0
C      1  0.4226160000000  0.4999950000000  0.5249030000000 1.0
C      1  0.4226180000000  0.4763080000000  0.5076930000000 1.0
C      1  0.4226180000000  0.4853560000000  0.4798480000000 1.0
C      1  0.5773850000000  0.4853660000000  0.4798540000000 1.0
C      1  0.5773850000000  0.4763180000000  0.5076990000000 1.0
C      1  0.5773830000000  0.5000040000000  0.5249090000000 1.0
C      1  0.5773820000000  0.5236910000000  0.5076990000000 1.0
C      1  0.5773830000000  0.5146440000000  0.4798540000000 1.0
C      1  0.4853820000000  0.5143520000000  0.4408410000000 1.0
C      1  0.4853770000000  0.5606970000000  0.4953690000000 1.0
C      1  0.4853770000000  0.5231590000000  0.5562960000000 1.0
C      1  0.4853820000000  0.4536150000000  0.5394230000000 1.0
C      1  0.4853850000000  0.4481720000000  0.4680680000000 1.0
C      1  0.5146230000000  0.4856490000000  0.4408420000000 1.0
C      1  0.5146230000000  0.4393030000000  0.4953690000000 1.0
C      1  0.5146190000000  0.4768390000000  0.5562960000000 1.0
C      1  0.5146150000000  0.5463840000000  0.5394250000000 1.0
C      1  0.5146180000000  0.5518290000000  0.4680700000000 1.0
C      1  0.5290510000000  0.5294620000000  0.4594530000000 1.0
C      1  0.5290480000000  0.5476690000000  0.5154900000000 1.0
C      1  0.5290500000000  0.5000010000000  0.5501210000000 1.0
C      1  0.5290540000000  0.4523340000000  0.5154880000000 1.0
C      1  0.5290550000000  0.4705420000000  0.4594530000000 1.0
C      1  0.4709520000000  0.4705390000000  0.4594500000000 1.0
C      1  0.4709510000000  0.4523310000000  0.5154860000000 1.0
C      1  0.4709470000000  0.4999980000000  0.5501190000000 1.0
C      1  0.4709450000000  0.5476650000000  0.5154870000000 1.0
C      1  0.4709480000000  0.5294590000000  0.4594510000000 1.0
END
