TITL C-180429-1527-6 0.0611260859740909 125000 -775.123161297385 0 0 112 (Ci) n - 1
REM
REM in /rds/project/t2_vol4/rds-t2-cs072/BORA/CARBON/from-Arr/AIRSS/Generating-Clusters/GAP-ML-2020/Higher-Symm/SD-CG/HFTN-CG
REM
REM
REM
REM
REM
REM ./C.cell (b20cbc046b6831c77cfcea5457e17084)
REM AIRSS Version 0.9.1 bugfix July 2018 build 013d7b7c2542+ Fri, 06 Jul 2018 19:26:36 +0100
REM compiler GCC version 9.3.0
REM options -cpp -mtune=generic -march=x86-64 -g -O0
REM seed 265150282 -1242543206 1893039944 -1149775138 712129718 761816621 339223676 1667611606 874934267 -1631802012 -732390166 -1725002951 1856293139 -1082554646 -2071527588 -753868103 393073914 67160527 343547718 -1789217714 -2128072433 1957774115 -1878814491 1968709397 -816535137 695718878 1879393074 2006314156 1276638340 750786906 -2126627710 -1023377180 1447912359
REM
CELL 1.54180   50.00000   50.00000   50.00000   90.00000   90.00000   90.00000
LATT -1
SFAC C  
C      1  0.4930910000000  0.5696220000000  0.5592250000000 1.0
C      1  0.5069090000000  0.4303780000000  0.4407750000000 1.0
C      1  0.4540100000000  0.4255020000000  0.5340550000000 1.0
C      1  0.5459900000000  0.5744980000000  0.4659450000000 1.0
C      1  0.4809940000000  0.4589970000000  0.5694230000000 1.0
C      1  0.5190060000000  0.5410030000000  0.4305770000000 1.0
C      1  0.5094390000000  0.4166290000000  0.5133220000000 1.0
C      1  0.4905610000000  0.5833710000000  0.4866780000000 1.0
C      1  0.4810480000000  0.5022000000000  0.4094350000000 1.0
C      1  0.5189520000000  0.4978000000000  0.5905650000000 1.0
C      1  0.5642380000000  0.5146380000000  0.5595610000000 1.0
C      1  0.4357620000000  0.4853620000000  0.4404390000000 1.0
C      1  0.5784610000000  0.4760320000000  0.5446510000000 1.0
C      1  0.4215390000000  0.5239680000000  0.4553490000000 1.0
C      1  0.5061630000000  0.5830040000000  0.5110240000000 1.0
C      1  0.4938370000000  0.4169960000000  0.4889760000000 1.0
C      1  0.4294300000000  0.5497380000000  0.4948960000000 1.0
C      1  0.5705700000000  0.4502620000000  0.5051040000000 1.0
C      1  0.5498480000000  0.5350920000000  0.5742830000000 1.0
C      1  0.4501520000000  0.4649080000000  0.4257170000000 1.0
C      1  0.4606940000000  0.4762690000000  0.4821580000000 1.0
C      1  0.5393060000000  0.5237310000000  0.5178420000000 1.0
C      1  0.4909280000000  0.5042300000000  0.4611680000000 1.0
C      1  0.5090720000000  0.4957700000000  0.5388320000000 1.0
C      1  0.5022290000000  0.4660530000000  0.4092510000000 1.0
C      1  0.4977710000000  0.5339470000000  0.5907490000000 1.0
C      1  0.4657550000000  0.5486610000000  0.4616540000000 1.0
C      1  0.5342450000000  0.4513390000000  0.5383460000000 1.0
C      1  0.4407520000000  0.4417570000000  0.5513090000000 1.0
C      1  0.5592480000000  0.5582430000000  0.4486910000000 1.0
C      1  0.5088210000000  0.4632360000000  0.4811450000000 1.0
C      1  0.4911790000000  0.5367640000000  0.5188550000000 1.0
C      1  0.5561080000000  0.5537420000000  0.5526090000000 1.0
C      1  0.4438920000000  0.4462580000000  0.4473910000000 1.0
C      1  0.5493600000000  0.5656750000000  0.4929440000000 1.0
C      1  0.4506400000000  0.4343250000000  0.5070560000000 1.0
C      1  0.5267090000000  0.5265190000000  0.5892260000000 1.0
C      1  0.4732910000000  0.4734810000000  0.4107740000000 1.0
C      1  0.5397490000000  0.5752740000000  0.5435470000000 1.0
C      1  0.4602510000000  0.4247260000000  0.4564530000000 1.0
C      1  0.4793650000000  0.5489450000000  0.5743580000000 1.0
C      1  0.5206350000000  0.4510550000000  0.4256420000000 1.0
C      1  0.4225470000000  0.4589850000000  0.5364490000000 1.0
C      1  0.5774530000000  0.5410150000000  0.4635510000000 1.0
C      1  0.4996240000000  0.5582610000000  0.4395720000000 1.0
C      1  0.5003760000000  0.4417390000000  0.5604280000000 1.0
C      1  0.4379880000000  0.5333730000000  0.5419950000000 1.0
C      1  0.5620120000000  0.4666270000000  0.4580050000000 1.0
C      1  0.5282260000000  0.4921910000000  0.4854610000000 1.0
C      1  0.4717740000000  0.5078090000000  0.5145390000000 1.0
C      1  0.4967410000000  0.4925930000000  0.5122810000000 1.0
C      1  0.5032590000000  0.5074070000000  0.4877190000000 1.0
C      1  0.4901080000000  0.5065340000000  0.5923820000000 1.0
C      1  0.5098920000000  0.4934660000000  0.4076180000000 1.0
C      1  0.5620240000000  0.4455500000000  0.4779040000000 1.0
C      1  0.4379760000000  0.5544500000000  0.5220960000000 1.0
C      1  0.5691150000000  0.5143350000000  0.4545270000000 1.0
C      1  0.4308850000000  0.4856650000000  0.5454730000000 1.0
C      1  0.5134280000000  0.5238670000000  0.5336480000000 1.0
C      1  0.4865720000000  0.4761330000000  0.4663520000000 1.0
C      1  0.4592400000000  0.5745940000000  0.5204530000000 1.0
C      1  0.5407600000000  0.4254060000000  0.4795470000000 1.0
C      1  0.4658340000000  0.4206910000000  0.4848890000000 1.0
C      1  0.5341660000000  0.5793090000000  0.5151110000000 1.0
C      1  0.5649620000000  0.5306520000000  0.5344260000000 1.0
C      1  0.4350380000000  0.4693480000000  0.4655740000000 1.0
C      1  0.5522610000000  0.4354020000000  0.5218960000000 1.0
C      1  0.4477390000000  0.5645980000000  0.4781040000000 1.0
C      1  0.4937230000000  0.5591010000000  0.4697170000000 1.0
C      1  0.5062770000000  0.4408990000000  0.5302830000000 1.0
C      1  0.5135120000000  0.4311080000000  0.4696250000000 1.0
C      1  0.4864880000000  0.5688920000000  0.5303750000000 1.0
C      1  0.5345490000000  0.4763280000000  0.5796670000000 1.0
C      1  0.4654510000000  0.5236720000000  0.4203330000000 1.0
C      1  0.5191060000000  0.5760670000000  0.5617850000000 1.0
C      1  0.4808940000000  0.4239330000000  0.4382150000000 1.0
C      1  0.4627600000000  0.5832990000000  0.4939470000000 1.0
C      1  0.5372400000000  0.4167010000000  0.5060530000000 1.0
C      1  0.5753720000000  0.4902420000000  0.4689390000000 1.0
C      1  0.4246280000000  0.5097580000000  0.5310610000000 1.0
C      1  0.5822840000000  0.4737640000000  0.5173540000000 1.0
C      1  0.4177160000000  0.5262360000000  0.4826460000000 1.0
C      1  0.5263210000000  0.4521270000000  0.5675610000000 1.0
C      1  0.4736790000000  0.5478730000000  0.4324390000000 1.0
C      1  0.5175750000000  0.5147720000000  0.4459660000000 1.0
C      1  0.4824250000000  0.4852280000000  0.5540340000000 1.0
C      1  0.4550750000000  0.5048580000000  0.4902120000000 1.0
C      1  0.5449250000000  0.4951420000000  0.5097880000000 1.0
C      1  0.5378710000000  0.5169200000000  0.4688790000000 1.0
C      1  0.4621290000000  0.4830800000000  0.5311210000000 1.0
C      1  0.4636860000000  0.5188510000000  0.4643300000000 1.0
C      1  0.5363140000000  0.4811490000000  0.5356700000000 1.0
C      1  0.5341080000000  0.5377300000000  0.4915780000000 1.0
C      1  0.4658920000000  0.4622700000000  0.5084220000000 1.0
C      1  0.4251260000000  0.5029700000000  0.5003290000000 1.0
C      1  0.5748740000000  0.4970300000000  0.4996710000000 1.0
C      1  0.5762880000000  0.5470450000000  0.4906780000000 1.0
C      1  0.4237120000000  0.4529550000000  0.5093220000000 1.0
C      1  0.5043480000000  0.5373910000000  0.4913260000000 1.0
C      1  0.4956520000000  0.4626090000000  0.5086740000000 1.0
C      1  0.4582150000000  0.5309670000000  0.5639350000000 1.0
C      1  0.5417850000000  0.4690330000000  0.4360650000000 1.0
C      1  0.5568090000000  0.5166640000000  0.4278370000000 1.0
C      1  0.4431910000000  0.4833360000000  0.5721630000000 1.0
C      1  0.4196390000000  0.4741870000000  0.4914260000000 1.0
C      1  0.5803610000000  0.5258130000000  0.5085740000000 1.0
C      1  0.5342920000000  0.4964190000000  0.4265440000000 1.0
C      1  0.4657080000000  0.5035810000000  0.5734560000000 1.0
C      1  0.4437100000000  0.5127170000000  0.4407990000000 1.0
C      1  0.5562900000000  0.4872830000000  0.5592010000000 1.0
C      1  0.5468370000000  0.5434980000000  0.4283430000000 1.0
C      1  0.4531630000000  0.4565020000000  0.5716570000000 1.0
END
