TITL C-180232-6812-8 -65.7037205458928 125000 -285.398256258762 0 0 42 (C1) n - 1
REM
REM in /rds/project/t2_vol4/rds-t2-cs072/BORA/CARBON/from-Arr/AIRSS/Generating-Clusters/GAP-ML-2020/Higher-Symm/SD-CG/HFTN-CG
REM
REM
REM
REM
REM
REM ./C.cell (b20cbc046b6831c77cfcea5457e17084)
REM AIRSS Version 0.9.1 bugfix July 2018 build 013d7b7c2542+ Fri, 06 Jul 2018 19:26:36 +0100
REM compiler GCC version 9.3.0
REM options -cpp -mtune=generic -march=x86-64 -g -O0
REM seed 1795462541 -1558681861 2015376243 1903528121 -1166096285 -1320497799 974243052 496264071 396749793 1687176135 -1016764493 -34240996 2098055818 2102338234 360771271 747204879 -702022932 -235601617 -361772911 -1397965976 2004473250 -1881983928 -1894355971 -2026523238 2091012220 -32381830 -1615594530 -1422378469 -219409044 -738572836 -48891231 -1072954798 446786988
REM
CELL 1.54180   50.00000   50.00000   50.00000   90.00000   90.00000   90.00000
LATT -1
SFAC C  
C      1  0.5756990000000  0.5088250000000  0.4956480000000 1.0
C      1  0.5689390000000  0.4806830000000  0.4952270000000 1.0
C      1  0.5272100000000  0.4392780000000  0.4983380000000 1.0
C      1  0.4986550000000  0.4336150000000  0.4995260000000 1.0
C      1  0.4466900000000  0.4394060000000  0.5007740000000 1.0
C      1  0.4233220000000  0.4899140000000  0.5045250000000 1.0
C      1  0.4312290000000  0.5175310000000  0.5059300000000 1.0
C      1  0.4625270000000  0.5611460000000  0.5017410000000 1.0
C      1  0.5159570000000  0.5656300000000  0.4963500000000 1.0
C      1  0.5440360000000  0.5591540000000  0.4965150000000 1.0
C      1  0.4368400000000  0.5182890000000  0.4773540000000 1.0
C      1  0.4662110000000  0.5452140000000  0.5255250000000 1.0
C      1  0.5022200000000  0.5534290000000  0.4746170000000 1.0
C      1  0.5426370000000  0.5517210000000  0.5244200000000 1.0
C      1  0.5635840000000  0.5204220000000  0.4734920000000 1.0
C      1  0.5642700000000  0.4809670000000  0.5238970000000 1.0
C      1  0.5316820000000  0.4548920000000  0.4747590000000 1.0
C      1  0.4975410000000  0.4440010000000  0.5263220000000 1.0
C      1  0.4585650000000  0.4485540000000  0.4767700000000 1.0
C      1  0.4347000000000  0.4770020000000  0.5264590000000 1.0
C      1  0.5694540000000  0.5104170000000  0.5238950000000 1.0
C      1  0.5510920000000  0.4751150000000  0.4737190000000 1.0
C      1  0.5269630000000  0.4488870000000  0.5254980000000 1.0
C      1  0.4864280000000  0.4425200000000  0.4753240000000 1.0
C      1  0.4489520000000  0.4527740000000  0.5240060000000 1.0
C      1  0.4305910000000  0.4886500000000  0.4763050000000 1.0
C      1  0.4487550000000  0.5226160000000  0.5278660000000 1.0
C      1  0.4738700000000  0.5506320000000  0.4774390000000 1.0
C      1  0.5134130000000  0.5598130000000  0.5247360000000 1.0
C      1  0.5484510000000  0.5438370000000  0.4737250000000 1.0
C      1  0.4559410000000  0.5324720000000  0.4654680000000 1.0
C      1  0.4914780000000  0.5507930000000  0.5369470000000 1.0
C      1  0.5223430000000  0.5380580000000  0.4605230000000 1.0
C      1  0.5547040000000  0.5301100000000  0.5352430000000 1.0
C      1  0.5473400000000  0.4997300000000  0.4598510000000 1.0
C      1  0.5449210000000  0.4665760000000  0.5358250000000 1.0
C      1  0.5070410000000  0.4555390000000  0.4609020000000 1.0
C      1  0.4752250000000  0.4566030000000  0.5379960000000 1.0
C      1  0.4455630000000  0.4699000000000  0.4643980000000 1.0
C      1  0.4519840000000  0.4967600000000  0.5410480000000 1.0
C      1  0.4737470000000  0.4824790000000  0.5494830000000 1.0
C      1  0.5237240000000  0.5113840000000  0.4516150000000 1.0
END
