TITL C-188674-2139-4 1.71096189237352 125000 -1090.15812958667 0 0 156 (C3) n - 1
REM
REM in /rds/project/t2_vol4/rds-t2-cs072/BORA/CARBON/from-Arr/AIRSS/Generating-Clusters/GAP-ML-2020/Higher-Symm/SD-CG/HFTN-CG
REM
REM
REM
REM
REM
REM ./C.cell (b20cbc046b6831c77cfcea5457e17084)
REM AIRSS Version 0.9.1 bugfix July 2018 build 013d7b7c2542+ Fri, 06 Jul 2018 19:26:36 +0100
REM compiler GCC version 9.3.0
REM options -cpp -mtune=generic -march=x86-64 -g -O0
REM seed -844489786 -1868568648 1801030221 -1997015369 1905184045 811946926 -1194806628 863014271 25840852 758824933 1529805090 1240506036 -60271937 -93409623 -1490209277 -1480757253 -233019205 -375922371 698899499 1432032385 1334432188 -149105502 7873332 2099639148 -1713924876 -625894312 -324523716 928810501 724804148 1858321503 -1380435979 -1564971784 1568570365
REM
CELL 1.54180   50.00000   50.00000   50.00000   90.00000   90.00000   90.00000
LATT -1
SFAC C  
C      1  0.4738990000000  0.5152300000000  0.5182990000000 1.0
C      1  0.4998600000000  0.4697810000000  0.5183000000000 1.0
C      1  0.5262400000000  0.5149880000000  0.5183010000000 1.0
C      1  0.4738990000000  0.4847690000000  0.5182990000000 1.0
C      1  0.4998590000000  0.5302190000000  0.5183000000000 1.0
C      1  0.5262400000000  0.4850120000000  0.5183010000000 1.0
C      1  0.5489570000000  0.5298990000000  0.4747040000000 1.0
C      1  0.4496290000000  0.5274480000000  0.4747000000000 1.0
C      1  0.5014160000000  0.4426530000000  0.4747010000000 1.0
C      1  0.5489570000000  0.4701020000000  0.4747030000000 1.0
C      1  0.4496300000000  0.4725520000000  0.4746990000000 1.0
C      1  0.5014160000000  0.5573470000000  0.4747020000000 1.0
C      1  0.5869870000000  0.5301540000000  0.5483280000000 1.0
C      1  0.4303900000000  0.5602570000000  0.5483220000000 1.0
C      1  0.4826180000000  0.4095880000000  0.5483230000000 1.0
C      1  0.5869870000000  0.4698470000000  0.5483270000000 1.0
C      1  0.4303910000000  0.4397420000000  0.5483210000000 1.0
C      1  0.4826170000000  0.5904110000000  0.5483240000000 1.0
C      1  0.4777520000000  0.5984060000000  0.4803710000000 1.0
C      1  0.4259030000000  0.4315300000000  0.4803680000000 1.0
C      1  0.5963470000000  0.4700650000000  0.4803750000000 1.0
C      1  0.4777540000000  0.4015950000000  0.4803690000000 1.0
C      1  0.4259030000000  0.5684700000000  0.4803690000000 1.0
C      1  0.5963460000000  0.5299360000000  0.4803750000000 1.0
C      1  0.5252170000000  0.4859600000000  0.6111620000000 1.0
C      1  0.4995430000000  0.5288610000000  0.6111610000000 1.0
C      1  0.4752270000000  0.4851770000000  0.6111600000000 1.0
C      1  0.5252170000000  0.5140390000000  0.6111620000000 1.0
C      1  0.4995440000000  0.4711380000000  0.6111610000000 1.0
C      1  0.4752270000000  0.5148220000000  0.6111600000000 1.0
C      1  0.4193700000000  0.5290530000000  0.4353520000000 1.0
C      1  0.5151580000000  0.4156450000000  0.4353550000000 1.0
C      1  0.5654790000000  0.5553040000000  0.4353570000000 1.0
C      1  0.4193710000000  0.4709470000000  0.4353510000000 1.0
C      1  0.5151570000000  0.5843570000000  0.4353560000000 1.0
C      1  0.5654800000000  0.4446980000000  0.4353570000000 1.0
C      1  0.4063970000000  0.5128250000000  0.4169600000000 1.0
C      1  0.5357000000000  0.4125240000000  0.4169650000000 1.0
C      1  0.5579120000000  0.5746530000000  0.4169660000000 1.0
C      1  0.4063980000000  0.4871760000000  0.4169600000000 1.0
C      1  0.5356990000000  0.5874780000000  0.4169660000000 1.0
C      1  0.5579130000000  0.4253480000000  0.4169660000000 1.0
C      1  0.5457290000000  0.6062510000000  0.4923110000000 1.0
C      1  0.3851200000000  0.4864770000000  0.4923040000000 1.0
C      1  0.5691520000000  0.4072720000000  0.4923110000000 1.0
C      1  0.5457300000000  0.3937500000000  0.4923100000000 1.0
C      1  0.3851200000000  0.5135220000000  0.4923040000000 1.0
C      1  0.5691510000000  0.5927290000000  0.4923120000000 1.0
C      1  0.5002450000000  0.5299310000000  0.4622250000000 1.0
C      1  0.4739590000000  0.4852460000000  0.4622240000000 1.0
C      1  0.5258010000000  0.4848230000000  0.4622250000000 1.0
C      1  0.5002460000000  0.4700690000000  0.4622250000000 1.0
C      1  0.4739580000000  0.5147540000000  0.4622230000000 1.0
C      1  0.5258000000000  0.5151770000000  0.4622260000000 1.0
C      1  0.5036230000000  0.6059730000000  0.4868860000000 1.0
C      1  0.4064140000000  0.4501510000000  0.4868820000000 1.0
C      1  0.5899640000000  0.4438770000000  0.4868890000000 1.0
C      1  0.5036240000000  0.3940270000000  0.4868850000000 1.0
C      1  0.4064140000000  0.5498480000000  0.4868820000000 1.0
C      1  0.5899640000000  0.5561250000000  0.4868890000000 1.0
C      1  0.5013070000000  0.4430980000000  0.5677060000000 1.0
C      1  0.5486210000000  0.5295850000000  0.5677080000000 1.0
C      1  0.4500640000000  0.5273160000000  0.5677040000000 1.0
C      1  0.5013070000000  0.5569010000000  0.5677060000000 1.0
C      1  0.5486210000000  0.4704150000000  0.5677080000000 1.0
C      1  0.4500640000000  0.4726820000000  0.5677040000000 1.0
C      1  0.5117550000000  0.4508790000000  0.5939400000000 1.0
C      1  0.5366570000000  0.5347420000000  0.5939410000000 1.0
C      1  0.4515780000000  0.5143770000000  0.5939380000000 1.0
C      1  0.5117540000000  0.5491200000000  0.5939400000000 1.0
C      1  0.5366570000000  0.4652570000000  0.5939410000000 1.0
C      1  0.4515780000000  0.4856220000000  0.5939380000000 1.0
C      1  0.4603800000000  0.4598310000000  0.4193260000000 1.0
C      1  0.5546020000000  0.4857700000000  0.4193300000000 1.0
C      1  0.4850270000000  0.5543990000000  0.4193280000000 1.0
C      1  0.4603790000000  0.5401690000000  0.4193280000000 1.0
C      1  0.5546020000000  0.5142310000000  0.4193300000000 1.0
C      1  0.4850280000000  0.4456010000000  0.4193270000000 1.0
C      1  0.5000260000000  0.4701150000000  0.5514430000000 1.0
C      1  0.5258650000000  0.5149660000000  0.5514440000000 1.0
C      1  0.4741030000000  0.5149180000000  0.5514420000000 1.0
C      1  0.5000260000000  0.5298840000000  0.5514440000000 1.0
C      1  0.5258650000000  0.4850330000000  0.5514440000000 1.0
C      1  0.4741030000000  0.4850820000000  0.5514420000000 1.0
C      1  0.5095850000000  0.4205190000000  0.5480310000000 1.0
C      1  0.5640370000000  0.5480420000000  0.5480340000000 1.0
C      1  0.4263730000000  0.5314380000000  0.5480280000000 1.0
C      1  0.5095840000000  0.5794810000000  0.5480320000000 1.0
C      1  0.5640380000000  0.4519580000000  0.5480330000000 1.0
C      1  0.4263730000000  0.4685610000000  0.5480280000000 1.0
C      1  0.5759450000000  0.4295730000000  0.5090870000000 1.0
C      1  0.5230180000000  0.6009840000000  0.5090860000000 1.0
C      1  0.4010350000000  0.4694420000000  0.5090800000000 1.0
C      1  0.5759450000000  0.5704280000000  0.5090880000000 1.0
C      1  0.5230190000000  0.3990160000000  0.5090840000000 1.0
C      1  0.4010350000000  0.5305560000000  0.5090810000000 1.0
C      1  0.4615220000000  0.4039060000000  0.5301890000000 1.0
C      1  0.6024570000000  0.5147240000000  0.5301950000000 1.0
C      1  0.4360180000000  0.5813690000000  0.5301900000000 1.0
C      1  0.4615200000000  0.5960940000000  0.5301910000000 1.0
C      1  0.6024580000000  0.4852760000000  0.5301950000000 1.0
C      1  0.4360190000000  0.4186300000000  0.5301880000000 1.0
C      1  0.5744660000000  0.4269820000000  0.4708400000000 1.0
C      1  0.5260040000000  0.6009980000000  0.4708390000000 1.0
C      1  0.3995330000000  0.4720210000000  0.4708340000000 1.0
C      1  0.5744650000000  0.5730190000000  0.4708410000000 1.0
C      1  0.5260060000000  0.3990030000000  0.4708380000000 1.0
C      1  0.3995330000000  0.5279790000000  0.4708340000000 1.0
C      1  0.5259510000000  0.4847140000000  0.4279640000000 1.0
C      1  0.5002670000000  0.5301150000000  0.4279650000000 1.0
C      1  0.4737900000000  0.4851720000000  0.4279620000000 1.0
C      1  0.5259500000000  0.5152870000000  0.4279640000000 1.0
C      1  0.5002670000000  0.4698860000000  0.4279620000000 1.0
C      1  0.4737900000000  0.5148290000000  0.4279650000000 1.0
C      1  0.4509560000000  0.4424980000000  0.5680200000000 1.0
C      1  0.5743160000000  0.4862790000000  0.5680250000000 1.0
C      1  0.4747210000000  0.5712220000000  0.5680220000000 1.0
C      1  0.4509550000000  0.5575010000000  0.5680210000000 1.0
C      1  0.5743160000000  0.5137210000000  0.5680250000000 1.0
C      1  0.4747210000000  0.4287770000000  0.5680210000000 1.0
C      1  0.5522660000000  0.4425840000000  0.5225260000000 1.0
C      1  0.5235900000000  0.5739720000000  0.5225250000000 1.0
C      1  0.4241420000000  0.4834440000000  0.5225210000000 1.0
C      1  0.5522650000000  0.5574170000000  0.5225260000000 1.0
C      1  0.5235910000000  0.4260280000000  0.5225240000000 1.0
C      1  0.4241420000000  0.5165550000000  0.5225210000000 1.0
C      1  0.4479490000000  0.5580080000000  0.4627100000000 1.0
C      1  0.4757910000000  0.4259180000000  0.4627100000000 1.0
C      1  0.5762640000000  0.5160740000000  0.4627140000000 1.0
C      1  0.4479500000000  0.4419920000000  0.4627090000000 1.0
C      1  0.4757900000000  0.5740820000000  0.4627110000000 1.0
C      1  0.5762640000000  0.4839270000000  0.4627140000000 1.0
C      1  0.4241290000000  0.4849310000000  0.4612440000000 1.0
C      1  0.5509880000000  0.4418280000000  0.4612490000000 1.0
C      1  0.5248870000000  0.5732420000000  0.4612490000000 1.0
C      1  0.4241290000000  0.5150690000000  0.4612440000000 1.0
C      1  0.5509870000000  0.5581730000000  0.4612500000000 1.0
C      1  0.5248880000000  0.4267590000000  0.4612480000000 1.0
C      1  0.4876290000000  0.4221060000000  0.4344220000000 1.0
C      1  0.5736480000000  0.5282320000000  0.4344260000000 1.0
C      1  0.4387300000000  0.5496640000000  0.4344210000000 1.0
C      1  0.4876280000000  0.5778950000000  0.4344230000000 1.0
C      1  0.5736480000000  0.4717700000000  0.4344250000000 1.0
C      1  0.4387310000000  0.4503370000000  0.4344200000000 1.0
C      1  0.4345670000000  0.4154810000000  0.5012500000000 1.0
C      1  0.6059120000000  0.4855930000000  0.5012570000000 1.0
C      1  0.4595210000000  0.5989270000000  0.5012520000000 1.0
C      1  0.4345660000000  0.5845190000000  0.5012510000000 1.0
C      1  0.6059120000000  0.5144080000000  0.5012570000000 1.0
C      1  0.4595220000000  0.4010730000000  0.5012500000000 1.0
C      1  0.5462860000000  0.5308860000000  0.5047020000000 1.0
C      1  0.4501090000000  0.5246420000000  0.5046980000000 1.0
C      1  0.5036040000000  0.4444720000000  0.5047000000000 1.0
C      1  0.5462860000000  0.4691150000000  0.5047020000000 1.0
C      1  0.4501090000000  0.4753570000000  0.5046980000000 1.0
C      1  0.5036040000000  0.5555280000000  0.5047010000000 1.0
END
