TITL C-188682-7692-8 0.107114113402147 125000 -631.538497653457 0 0 91 (C1) n - 1
REM
REM in /rds/project/t2_vol4/rds-t2-cs072/BORA/CARBON/from-Arr/AIRSS/Generating-Clusters/GAP-ML-2020/Higher-Symm/SD-CG/HFTN-CG
REM
REM
REM
REM
REM
REM ./C.cell (b20cbc046b6831c77cfcea5457e17084)
REM AIRSS Version 0.9.1 bugfix July 2018 build 013d7b7c2542+ Fri, 06 Jul 2018 19:26:36 +0100
REM compiler GCC version 9.3.0
REM options -cpp -mtune=generic -march=x86-64 -g -O0
REM seed 667202508 -1460671045 1267013786 553143501 -595322284 -1298676236 -2001614956 1842769127 1370345686 -2123748663 688893002 2095151370 1798080548 908134999 1979731281 2054843459 -105887636 1017318257 491765925 653357947 1800466644 -1832756313 1662338243 -1592022319 -768731239 1342739722 -1224391348 1554870731 892149631 883098678 -620687717 1403313593 -1806352370
REM
CELL 1.54180   50.00000   50.00000   50.00000   90.00000   90.00000   90.00000
LATT -1
SFAC C  
C      1  0.5178520000000  0.5223030000000  0.4339550000000 1.0
C      1  0.4963650000000  0.5243900000000  0.4154610000000 1.0
C      1  0.4779930000000  0.4892910000000  0.4332780000000 1.0
C      1  0.5155470000000  0.4772380000000  0.4055600000000 1.0
C      1  0.5199380000000  0.5191730000000  0.5852160000000 1.0
C      1  0.4983080000000  0.5245160000000  0.5655850000000 1.0
C      1  0.4797770000000  0.4790970000000  0.5814550000000 1.0
C      1  0.5065680000000  0.4707440000000  0.5872100000000 1.0
C      1  0.5593510000000  0.4616130000000  0.4853720000000 1.0
C      1  0.5340090000000  0.5566550000000  0.4931120000000 1.0
C      1  0.4451750000000  0.5353400000000  0.4834640000000 1.0
C      1  0.4643200000000  0.4404380000000  0.4949400000000 1.0
C      1  0.5583840000000  0.4598770000000  0.5140080000000 1.0
C      1  0.5384730000000  0.5664230000000  0.5199830000000 1.0
C      1  0.4387880000000  0.5390670000000  0.5114730000000 1.0
C      1  0.4598950000000  0.4306070000000  0.5218170000000 1.0
C      1  0.5669000000000  0.4917570000000  0.4395250000000 1.0
C      1  0.5126450000000  0.5694730000000  0.4407890000000 1.0
C      1  0.4343600000000  0.5097790000000  0.4375040000000 1.0
C      1  0.4873640000000  0.4324860000000  0.4393750000000 1.0
C      1  0.5487830000000  0.4891520000000  0.5541150000000 1.0
C      1  0.5191540000000  0.5703500000000  0.5434780000000 1.0
C      1  0.4521850000000  0.5093780000000  0.5526880000000 1.0
C      1  0.4793390000000  0.4293910000000  0.5455480000000 1.0
C      1  0.5070750000000  0.4315680000000  0.5516420000000 1.0
C      1  0.5613030000000  0.5151290000000  0.5605030000000 1.0
C      1  0.4907910000000  0.5703130000000  0.5481630000000 1.0
C      1  0.4383820000000  0.4830470000000  0.5586880000000 1.0
C      1  0.5145700000000  0.4375810000000  0.4375420000000 1.0
C      1  0.5659000000000  0.5189510000000  0.4432750000000 1.0
C      1  0.4859010000000  0.5648050000000  0.4381300000000 1.0
C      1  0.4340770000000  0.4828360000000  0.4449900000000 1.0
C      1  0.4575470000000  0.4695410000000  0.4340090000000 1.0
C      1  0.5287730000000  0.4599450000000  0.4222640000000 1.0
C      1  0.5433490000000  0.5338260000000  0.4316100000000 1.0
C      1  0.4752440000000  0.5405360000000  0.4245300000000 1.0
C      1  0.4563130000000  0.4657680000000  0.5741410000000 1.0
C      1  0.5196940000000  0.4512210000000  0.5703520000000 1.0
C      1  0.5431990000000  0.5327410000000  0.5748960000000 1.0
C      1  0.4807510000000  0.5478340000000  0.5639120000000 1.0
C      1  0.5246110000000  0.4152300000000  0.4814320000000 1.0
C      1  0.5869140000000  0.5298270000000  0.4903780000000 1.0
C      1  0.4726930000000  0.5880040000000  0.4800820000000 1.0
C      1  0.4118150000000  0.4711600000000  0.4903980000000 1.0
C      1  0.5236830000000  0.4133080000000  0.5065230000000 1.0
C      1  0.5865930000000  0.5272830000000  0.5154900000000 1.0
C      1  0.4719870000000  0.5899120000000  0.5052410000000 1.0
C      1  0.4108910000000  0.4709820000000  0.5157870000000 1.0
C      1  0.5093640000000  0.5184290000000  0.4644270000000 1.0
C      1  0.4818060000000  0.5024620000000  0.4613790000000 1.0
C      1  0.4972310000000  0.4777150000000  0.4753830000000 1.0
C      1  0.5208990000000  0.4933990000000  0.4758240000000 1.0
C      1  0.5145330000000  0.5228990000000  0.5350800000000 1.0
C      1  0.4809130000000  0.5007920000000  0.5618220000000 1.0
C      1  0.4979360000000  0.4831600000000  0.5392280000000 1.0
C      1  0.5248490000000  0.4954440000000  0.5356890000000 1.0
C      1  0.5452690000000  0.4889050000000  0.4877190000000 1.0
C      1  0.5111970000000  0.5377660000000  0.4879210000000 1.0
C      1  0.4630320000000  0.5124170000000  0.4813140000000 1.0
C      1  0.4852660000000  0.4620960000000  0.4955770000000 1.0
C      1  0.5452910000000  0.4864740000000  0.5163620000000 1.0
C      1  0.4990650000000  0.5270330000000  0.5111660000000 1.0
C      1  0.4494710000000  0.5151270000000  0.5238950000000 1.0
C      1  0.4832650000000  0.4814120000000  0.5160020000000 1.0
C      1  0.5726280000000  0.5360900000000  0.4671310000000 1.0
C      1  0.4662890000000  0.5725110000000  0.4580190000000 1.0
C      1  0.4269380000000  0.4654910000000  0.4679330000000 1.0
C      1  0.5328670000000  0.4293040000000  0.4587300000000 1.0
C      1  0.5729920000000  0.5318340000000  0.5395610000000 1.0
C      1  0.4693140000000  0.5768180000000  0.5295270000000 1.0
C      1  0.4251920000000  0.4662020000000  0.5388990000000 1.0
C      1  0.5271160000000  0.4257380000000  0.5313400000000 1.0
C      1  0.5388090000000  0.5572090000000  0.5607720000000 1.0
C      1  0.4546450000000  0.5397490000000  0.5556530000000 1.0
C      1  0.4579330000000  0.4403220000000  0.5621620000000 1.0
C      1  0.5449570000000  0.4601570000000  0.5591840000000 1.0
C      1  0.5373250000000  0.5592150000000  0.4447600000000 1.0
C      1  0.4485760000000  0.5331410000000  0.4366270000000 1.0
C      1  0.4631370000000  0.4432110000000  0.4456040000000 1.0
C      1  0.5541350000000  0.4672600000000  0.4380760000000 1.0
C      1  0.5514410000000  0.5568290000000  0.4699670000000 1.0
C      1  0.4467850000000  0.5510060000000  0.4597830000000 1.0
C      1  0.4481110000000  0.4437120000000  0.4708650000000 1.0
C      1  0.5549540000000  0.4486210000000  0.4608740000000 1.0
C      1  0.5580380000000  0.5564060000000  0.5385640000000 1.0
C      1  0.4478060000000  0.5561370000000  0.5326420000000 1.0
C      1  0.4394110000000  0.4407100000000  0.5396090000000 1.0
C      1  0.5498620000000  0.4440990000000  0.5358890000000 1.0
C      1  0.5209730000000  0.4933830000000  0.5935120000000 1.0
C      1  0.4959010000000  0.4958900000000  0.4116260000000 1.0
C      1  0.4742480000000  0.5086100000000  0.5080650000000 1.0
END
