TITL C-188661-7654-1 0.00375872255571588 125000 -118.814519711682 0 0 20 (D2) n - 1
REM
REM in /rds/project/t2_vol4/rds-t2-cs072/BORA/CARBON/from-Arr/AIRSS/Generating-Clusters/GAP-ML-2020/Higher-Symm/SD-CG/HFTN-CG
REM
REM
REM
REM
REM
REM ./C.cell (b20cbc046b6831c77cfcea5457e17084)
REM AIRSS Version 0.9.1 bugfix July 2018 build 013d7b7c2542+ Fri, 06 Jul 2018 19:26:36 +0100
REM compiler GCC version 9.3.0
REM options -cpp -mtune=generic -march=x86-64 -g -O0
REM seed 731663018 -1587340331 -1043060713 962818274 -272930247 449350984 -442586495 -2135601085 -420573129 -1140402682 1162809763 -191302359 -536262795 102626695 214103304 1476525567 -302268253 -1322127780 -1384869265 2035706449 387748931 -1631246102 -918324939 -834613174 -1304414342 -364321369 1399238454 -1315741916 -473847685 1582021458 842497890 2002317668 174847509
REM
CELL 1.54180   50.00000   50.00000   50.00000   90.00000   90.00000   90.00000
LATT -1
SFAC C  
C      1  0.5212150000000  0.4588120000000  0.5030570000000 1.0
C      1  0.5385810000000  0.5245300000000  0.5093680000000 1.0
C      1  0.4787870000000  0.5412040000000  0.5029530000000 1.0
C      1  0.4614220000000  0.4755030000000  0.5094430000000 1.0
C      1  0.4754710000000  0.4614130000000  0.4842950000000 1.0
C      1  0.4588110000000  0.5212200000000  0.4906180000000 1.0
C      1  0.5245260000000  0.5385540000000  0.4841860000000 1.0
C      1  0.5411880000000  0.4787630000000  0.4906640000000 1.0
C      1  0.4671160000000  0.4691460000000  0.4593820000000 1.0
C      1  0.5409430000000  0.4823270000000  0.4639260000000 1.0
C      1  0.5328750000000  0.5307550000000  0.4592920000000 1.0
C      1  0.4590490000000  0.5175860000000  0.4638890000000 1.0
C      1  0.5176190000000  0.4590910000000  0.5297910000000 1.0
C      1  0.4691880000000  0.4671810000000  0.5343560000000 1.0
C      1  0.4823890000000  0.5409970000000  0.5296870000000 1.0
C      1  0.5308210000000  0.5329180000000  0.5342610000000 1.0
C      1  0.5000230000000  0.4499930000000  0.4874680000000 1.0
C      1  0.5499950000000  0.4999710000000  0.5062390000000 1.0
C      1  0.4999750000000  0.5499820000000  0.4873350000000 1.0
C      1  0.4500070000000  0.5000540000000  0.5062510000000 1.0
END
