TITL C-180248-9170-4 0.0336229873767947 125000 -474.238400387762 0 0 69 (C2) n - 1
REM
REM in /rds/project/t2_vol4/rds-t2-cs072/BORA/CARBON/from-Arr/AIRSS/Generating-Clusters/GAP-ML-2020/Higher-Symm/SD-CG/HFTN-CG
REM
REM
REM
REM
REM
REM ./C.cell (b20cbc046b6831c77cfcea5457e17084)
REM AIRSS Version 0.9.1 bugfix July 2018 build 013d7b7c2542+ Fri, 06 Jul 2018 19:26:36 +0100
REM compiler GCC version 9.3.0
REM options -cpp -mtune=generic -march=x86-64 -g -O0
REM seed -1338007678 2044096509 -1229980444 -974726141 1661328484 -1802071380 -1822581849 922968690 -1293349927 -1167002659 -1684341738 472944433 -276324134 -668832487 2041635835 -449436518 -1267048078 1527902232 -376258686 -1139490753 969705066 -1426177061 1349371251 -63685804 727227148 -1743925365 289194828 1755140896 -1964134577 -1494824807 1503376269 -1189248400 1269880844
REM
CELL 1.54180   50.00000   50.00000   50.00000   90.00000   90.00000   90.00000
LATT -1
SFAC C  
C      1  0.4697820000000  0.4824680000000  0.4797490000000 1.0
C      1  0.5311760000000  0.5159120000000  0.4804900000000 1.0
C      1  0.5012530000000  0.4309340000000  0.4753510000000 1.0
C      1  0.4999400000000  0.5672710000000  0.4732720000000 1.0
C      1  0.5223890000000  0.5357920000000  0.5671110000000 1.0
C      1  0.4750400000000  0.4652080000000  0.5672130000000 1.0
C      1  0.5204710000000  0.4549860000000  0.5471330000000 1.0
C      1  0.4778150000000  0.5453770000000  0.5449080000000 1.0
C      1  0.4872500000000  0.5176570000000  0.4570810000000 1.0
C      1  0.5146190000000  0.4800460000000  0.4582020000000 1.0
C      1  0.4491600000000  0.5024730000000  0.5460410000000 1.0
C      1  0.5490830000000  0.4979230000000  0.5481350000000 1.0
C      1  0.4857920000000  0.5193660000000  0.5065120000000 1.0
C      1  0.5140720000000  0.4798260000000  0.5076800000000 1.0
C      1  0.4578670000000  0.4544420000000  0.4869500000000 1.0
C      1  0.5428060000000  0.5441490000000  0.4873210000000 1.0
C      1  0.4943020000000  0.4859080000000  0.4330830000000 1.0
C      1  0.5085640000000  0.5110550000000  0.4329940000000 1.0
C      1  0.5092790000000  0.5574690000000  0.4485480000000 1.0
C      1  0.4929300000000  0.4399830000000  0.4499850000000 1.0
C      1  0.4219760000000  0.4838990000000  0.4686580000000 1.0
C      1  0.5793910000000  0.5141770000000  0.4713930000000 1.0
C      1  0.4763500000000  0.5601420000000  0.4878190000000 1.0
C      1  0.5242390000000  0.4385120000000  0.4906200000000 1.0
C      1  0.4705920000000  0.4925060000000  0.4498480000000 1.0
C      1  0.5315720000000  0.5049790000000  0.4508960000000 1.0
C      1  0.5711580000000  0.5326840000000  0.4884430000000 1.0
C      1  0.4295000000000  0.4659180000000  0.4865770000000 1.0
C      1  0.5078890000000  0.4602050000000  0.4368060000000 1.0
C      1  0.4948530000000  0.5368500000000  0.4353890000000 1.0
C      1  0.5160360000000  0.4889820000000  0.5811230000000 1.0
C      1  0.4808490000000  0.5124220000000  0.5800570000000 1.0
C      1  0.5526300000000  0.4860950000000  0.4439020000000 1.0
C      1  0.4498460000000  0.5111580000000  0.4414410000000 1.0
C      1  0.4388340000000  0.5012750000000  0.5191550000000 1.0
C      1  0.5604910000000  0.4983180000000  0.5216660000000 1.0
C      1  0.4653150000000  0.5229960000000  0.5582060000000 1.0
C      1  0.5324350000000  0.4777650000000  0.5602480000000 1.0
C      1  0.4930960000000  0.4480260000000  0.5529190000000 1.0
C      1  0.5049370000000  0.5525250000000  0.5515870000000 1.0
C      1  0.5093520000000  0.5172790000000  0.5824170000000 1.0
C      1  0.4874580000000  0.4841810000000  0.5824710000000 1.0
C      1  0.5015680000000  0.5141720000000  0.4820150000000 1.0
C      1  0.4993050000000  0.4842710000000  0.4824190000000 1.0
C      1  0.4520230000000  0.4748090000000  0.5534090000000 1.0
C      1  0.5459410000000  0.5257940000000  0.5545460000000 1.0
C      1  0.5712690000000  0.4893120000000  0.4650810000000 1.0
C      1  0.4303620000000  0.5085680000000  0.4619350000000 1.0
C      1  0.4563400000000  0.5479010000000  0.4714850000000 1.0
C      1  0.5449020000000  0.4502680000000  0.4747490000000 1.0
C      1  0.4429380000000  0.4598080000000  0.5310160000000 1.0
C      1  0.5559350000000  0.5401200000000  0.5320970000000 1.0
C      1  0.5589720000000  0.4728470000000  0.4854400000000 1.0
C      1  0.4418340000000  0.5256450000000  0.4822710000000 1.0
C      1  0.5119620000000  0.5590880000000  0.5247350000000 1.0
C      1  0.4871610000000  0.4406540000000  0.5260150000000 1.0
C      1  0.5410600000000  0.4915670000000  0.4992960000000 1.0
C      1  0.4591590000000  0.5073620000000  0.4973980000000 1.0
C      1  0.5147420000000  0.4503100000000  0.5166770000000 1.0
C      1  0.4847760000000  0.5491390000000  0.5145820000000 1.0
C      1  0.5721470000000  0.5234710000000  0.5160810000000 1.0
C      1  0.4273980000000  0.4759580000000  0.5138620000000 1.0
C      1  0.4617320000000  0.4459840000000  0.5150860000000 1.0
C      1  0.5378100000000  0.5534480000000  0.5150110000000 1.0
C      1  0.4644460000000  0.5364730000000  0.4454210000000 1.0
C      1  0.5378650000000  0.4609030000000  0.4480470000000 1.0
C      1  0.5275430000000  0.5605870000000  0.4685030000000 1.0
C      1  0.4738700000000  0.4374540000000  0.4692680000000 1.0
C      1  0.4995880000000  0.4998520000000  0.5240880000000 1.0
END
