TITL C-180441-1461-7 16.0877389097469 125000 -815.537161935561 0 0 119 (C1) n - 1
REM
REM in /rds/project/t2_vol4/rds-t2-cs072/BORA/CARBON/from-Arr/AIRSS/Generating-Clusters/GAP-ML-2020/Higher-Symm/SD-CG/HFTN-CG
REM
REM
REM
REM
REM
REM ./C.cell (b20cbc046b6831c77cfcea5457e17084)
REM AIRSS Version 0.9.1 bugfix July 2018 build 013d7b7c2542+ Fri, 06 Jul 2018 19:26:36 +0100
REM compiler GCC version 9.3.0
REM options -cpp -mtune=generic -march=x86-64 -g -O0
REM seed 1089461263 -332715473 1268457916 -221904978 -1093565631 225047488 536865623 246692459 -59020801 1562094651 936895819 382376143 -1434434434 -1059316419 -157244252 -319808500 923712792 2035012806 1007261309 1321988001 -235356206 60275977 1964470023 -1377468733 -445350631 -17583176 1487497371 -1168410517 1712728314 1402283178 1731674570 -759380683 77548459
REM
CELL 1.54180   50.00000   50.00000   50.00000   90.00000   90.00000   90.00000
LATT -1
SFAC C  
C      1  0.4265430000000  0.4835850000000  0.5757950000000 1.0
C      1  0.5500570000000  0.4440130000000  0.5751970000000 1.0
C      1  0.5242640000000  0.5715220000000  0.5770030000000 1.0
C      1  0.5727930000000  0.4850130000000  0.4246250000000 1.0
C      1  0.4499800000000  0.4439510000000  0.4247560000000 1.0
C      1  0.4771580000000  0.5718860000000  0.4257440000000 1.0
C      1  0.4837510000000  0.5536120000000  0.4969620000000 1.0
C      1  0.4624230000000  0.4574160000000  0.4953370000000 1.0
C      1  0.5465030000000  0.4939550000000  0.4950250000000 1.0
C      1  0.5136230000000  0.5559480000000  0.5060100000000 1.0
C      1  0.5336600000000  0.4589080000000  0.5066930000000 1.0
C      1  0.4487650000000  0.4890760000000  0.5065780000000 1.0
C      1  0.4958820000000  0.5905880000000  0.4628740000000 1.0
C      1  0.4294760000000  0.4483330000000  0.4648060000000 1.0
C      1  0.5806070000000  0.4636460000000  0.4653190000000 1.0
C      1  0.5094400000000  0.5882850000000  0.5374510000000 1.0
C      1  0.5736800000000  0.4514610000000  0.5376260000000 1.0
C      1  0.4198360000000  0.4583610000000  0.5386280000000 1.0
C      1  0.4520860000000  0.5384580000000  0.5529210000000 1.0
C      1  0.4905130000000  0.4360720000000  0.5524230000000 1.0
C      1  0.5575940000000  0.5228910000000  0.5518330000000 1.0
C      1  0.5506120000000  0.5381690000000  0.4500470000000 1.0
C      1  0.5095680000000  0.4370480000000  0.4492080000000 1.0
C      1  0.4443680000000  0.5221330000000  0.4501380000000 1.0
C      1  0.4442260000000  0.5437810000000  0.4702310000000 1.0
C      1  0.4905480000000  0.4245610000000  0.4686680000000 1.0
C      1  0.5758270000000  0.5326460000000  0.4643390000000 1.0
C      1  0.5579950000000  0.5445160000000  0.5314740000000 1.0
C      1  0.5094900000000  0.4239540000000  0.5328110000000 1.0
C      1  0.4340710000000  0.5270970000000  0.5327280000000 1.0
C      1  0.5480300000000  0.4136910000000  0.5071930000000 1.0
C      1  0.5466970000000  0.5839820000000  0.5069970000000 1.0
C      1  0.4019470000000  0.5015300000000  0.5070790000000 1.0
C      1  0.4506190000000  0.4168410000000  0.4941800000000 1.0
C      1  0.4485810000000  0.5854520000000  0.4947590000000 1.0
C      1  0.5957620000000  0.4970010000000  0.4938900000000 1.0
C      1  0.4666200000000  0.4137550000000  0.5180930000000 1.0
C      1  0.5895820000000  0.5125430000000  0.5178370000000 1.0
C      1  0.4423620000000  0.5709390000000  0.5194750000000 1.0
C      1  0.5322480000000  0.4134320000000  0.4830620000000 1.0
C      1  0.4107330000000  0.5144390000000  0.4825880000000 1.0
C      1  0.5565220000000  0.5703690000000  0.4837270000000 1.0
C      1  0.4251000000000  0.5035020000000  0.4586140000000 1.0
C      1  0.5351630000000  0.4314020000000  0.4592480000000 1.0
C      1  0.5416030000000  0.5634130000000  0.4597310000000 1.0
C      1  0.5759380000000  0.5035510000000  0.5425970000000 1.0
C      1  0.4644500000000  0.4295200000000  0.5430120000000 1.0
C      1  0.4595710000000  0.5638980000000  0.5431940000000 1.0
C      1  0.4478310000000  0.4539310000000  0.5464920000000 1.0
C      1  0.5625970000000  0.4777110000000  0.5456340000000 1.0
C      1  0.4887400000000  0.5679510000000  0.5470510000000 1.0
C      1  0.5514080000000  0.4569140000000  0.4577850000000 1.0
C      1  0.4374710000000  0.4765970000000  0.4565050000000 1.0
C      1  0.5130510000000  0.5678850000000  0.4547530000000 1.0
C      1  0.4901320000000  0.4515940000000  0.4880440000000 1.0
C      1  0.5332930000000  0.5177130000000  0.4918420000000 1.0
C      1  0.4671820000000  0.5300740000000  0.4892440000000 1.0
C      1  0.5067830000000  0.4507750000000  0.5131800000000 1.0
C      1  0.4596930000000  0.5150660000000  0.5139420000000 1.0
C      1  0.5309290000000  0.5335310000000  0.5153680000000 1.0
C      1  0.5337190000000  0.4725300000000  0.4793090000000 1.0
C      1  0.5054120000000  0.5493200000000  0.4766980000000 1.0
C      1  0.4582230000000  0.4826160000000  0.4790950000000 1.0
C      1  0.4627720000000  0.4683350000000  0.5236610000000 1.0
C      1  0.4919270000000  0.5478870000000  0.5254010000000 1.0
C      1  0.5394840000000  0.4843300000000  0.5225360000000 1.0
C      1  0.4258530000000  0.5490820000000  0.5147760000000 1.0
C      1  0.4937770000000  0.4073940000000  0.5140480000000 1.0
C      1  0.5805440000000  0.5388920000000  0.5130200000000 1.0
C      1  0.5766160000000  0.5502420000000  0.4870080000000 1.0
C      1  0.5052990000000  0.4074710000000  0.4872240000000 1.0
C      1  0.4209640000000  0.5396210000000  0.4877410000000 1.0
C      1  0.5028810000000  0.4682160000000  0.4436760000000 1.0
C      1  0.5247440000000  0.5186100000000  0.4447140000000 1.0
C      1  0.4732730000000  0.5113200000000  0.4441500000000 1.0
C      1  0.4960190000000  0.4681530000000  0.5587610000000 1.0
C      1  0.4763760000000  0.5185150000000  0.5589960000000 1.0
C      1  0.5278390000000  0.5129330000000  0.5588150000000 1.0
C      1  0.4990700000000  0.5267010000000  0.4287200000000 1.0
C      1  0.4781150000000  0.4851570000000  0.4289040000000 1.0
C      1  0.5230490000000  0.4883350000000  0.4307790000000 1.0
C      1  0.5017030000000  0.5269260000000  0.5741480000000 1.0
C      1  0.5215850000000  0.4856290000000  0.5722970000000 1.0
C      1  0.4766370000000  0.4879400000000  0.5723190000000 1.0
C      1  0.4758850000000  0.5830370000000  0.4967740000000 1.0
C      1  0.4345390000000  0.4410980000000  0.4930130000000 1.0
C      1  0.5914770000000  0.4683700000000  0.4916650000000 1.0
C      1  0.5174320000000  0.5866380000000  0.5085550000000 1.0
C      1  0.5589920000000  0.4390600000000  0.5047230000000 1.0
C      1  0.4193320000000  0.4801890000000  0.5053690000000 1.0
C      1  0.5017170000000  0.5562980000000  0.5728890000000 1.0
C      1  0.4513280000000  0.4728090000000  0.5712910000000 1.0
C      1  0.5467450000000  0.4709780000000  0.5709630000000 1.0
C      1  0.4989800000000  0.5559440000000  0.4293120000000 1.0
C      1  0.5485550000000  0.4738170000000  0.4315830000000 1.0
C      1  0.4527600000000  0.4709030000000  0.4300700000000 1.0
C      1  0.5565460000000  0.4318590000000  0.5507990000000 1.0
C      1  0.5324970000000  0.5818620000000  0.5524100000000 1.0
C      1  0.4131050000000  0.4837850000000  0.5513280000000 1.0
C      1  0.4452330000000  0.4310060000000  0.4489800000000 1.0
C      1  0.4703520000000  0.5834300000000  0.4503190000000 1.0
C      1  0.5860700000000  0.4865790000000  0.4491040000000 1.0
C      1  0.5188230000000  0.5096100000000  0.5305680000000 1.0
C      1  0.4864640000000  0.5186440000000  0.5307710000000 1.0
C      1  0.4911420000000  0.4696440000000  0.5303900000000 1.0
C      1  0.4832720000000  0.5043660000000  0.4725070000000 1.0
C      1  0.5124800000000  0.5212430000000  0.4721780000000 1.0
C      1  0.5029940000000  0.4745720000000  0.4725460000000 1.0
C      1  0.4623160000000  0.4163000000000  0.4671970000000 1.0
C      1  0.5907730000000  0.5085710000000  0.4672820000000 1.0
C      1  0.4498980000000  0.5737710000000  0.4682940000000 1.0
C      1  0.5381960000000  0.4166970000000  0.5341110000000 1.0
C      1  0.4114870000000  0.5067650000000  0.5338190000000 1.0
C      1  0.5527980000000  0.5736270000000  0.5335440000000 1.0
C      1  0.4163510000000  0.4533070000000  0.5117950000000 1.0
C      1  0.5836800000000  0.4499850000000  0.5114760000000 1.0
C      1  0.4983900000000  0.5976230000000  0.4893670000000 1.0
C      1  0.4999880000000  0.4999220000000  0.5877940000000 1.0
C      1  0.5001710000000  0.5001650000000  0.4146830000000 1.0
END
