TITL C-186990-1034-4 0.04213658762239 125000 -549.90601950675 0 0 80 (C1) n - 1
REM
REM in /rds/project/t2_vol4/rds-t2-cs072/BORA/CARBON/from-Arr/AIRSS/Generating-Clusters/GAP-ML-2020/Higher-Symm/SD-CG/HFTN-CG
REM
REM
REM
REM
REM
REM ./C.cell (b20cbc046b6831c77cfcea5457e17084)
REM AIRSS Version 0.9.1 bugfix July 2018 build 013d7b7c2542+ Fri, 06 Jul 2018 19:26:36 +0100
REM compiler GCC version 9.3.0
REM options -cpp -mtune=generic -march=x86-64 -g -O0
REM seed 272233749 -2027440503 1704390292 -1307300877 1016089450 448209495 -633793887 -2044974841 -606842967 658986056 -1415833024 -1293755271 -2082821401 -1367227087 1940711279 -1444241574 -831814970 1484206783 1576758912 -1165871560 734970029 -1497545054 -1876881107 75509965 1318040636 -928578161 -576879500 -849745239 -957119706 -908505626 243001131 664060296 1147551829
REM
CELL 1.54180   50.00000   50.00000   50.00000   90.00000   90.00000   90.00000
LATT -1
SFAC C  
C      1  0.4311930000000  0.4940420000000  0.5470540000000 1.0
C      1  0.4715990000000  0.5659220000000  0.5414730000000 1.0
C      1  0.5506600000000  0.5437220000000  0.5441870000000 1.0
C      1  0.5575670000000  0.4678730000000  0.5429270000000 1.0
C      1  0.4856490000000  0.4322210000000  0.5420520000000 1.0
C      1  0.5619590000000  0.4914400000000  0.5288790000000 1.0
C      1  0.5289580000000  0.5635020000000  0.5461210000000 1.0
C      1  0.4474210000000  0.5479670000000  0.5413860000000 1.0
C      1  0.4401160000000  0.4661070000000  0.5478300000000 1.0
C      1  0.5150850000000  0.4312340000000  0.5416980000000 1.0
C      1  0.5285580000000  0.4315400000000  0.4770000000000 1.0
C      1  0.4251720000000  0.4621920000000  0.4814610000000 1.0
C      1  0.4383780000000  0.5397830000000  0.4792170000000 1.0
C      1  0.5291070000000  0.5574070000000  0.4882440000000 1.0
C      1  0.5848370000000  0.4904380000000  0.4769940000000 1.0
C      1  0.4788220000000  0.4405110000000  0.4823460000000 1.0
C      1  0.5690320000000  0.4643830000000  0.4828790000000 1.0
C      1  0.5580090000000  0.5507780000000  0.4803380000000 1.0
C      1  0.4792220000000  0.5687480000000  0.4797060000000 1.0
C      1  0.4145840000000  0.4897030000000  0.4806840000000 1.0
C      1  0.5361370000000  0.4729380000000  0.5619760000000 1.0
C      1  0.4862860000000  0.4562340000000  0.5598550000000 1.0
C      1  0.4561030000000  0.5020190000000  0.5612290000000 1.0
C      1  0.4852130000000  0.5468770000000  0.5597150000000 1.0
C      1  0.5334440000000  0.5248330000000  0.5625150000000 1.0
C      1  0.4647540000000  0.4736580000000  0.5619470000000 1.0
C      1  0.5151810000000  0.4546160000000  0.5595810000000 1.0
C      1  0.5314260000000  0.4991800000000  0.5689740000000 1.0
C      1  0.5127960000000  0.5460630000000  0.5626310000000 1.0
C      1  0.4627370000000  0.5286270000000  0.5588940000000 1.0
C      1  0.5245530000000  0.5596780000000  0.4576510000000 1.0
C      1  0.5725650000000  0.4918920000000  0.4509670000000 1.0
C      1  0.5149510000000  0.4306620000000  0.4531450000000 1.0
C      1  0.4399190000000  0.4658440000000  0.4566970000000 1.0
C      1  0.4453280000000  0.5486670000000  0.4537520000000 1.0
C      1  0.4695890000000  0.5649960000000  0.4538950000000 1.0
C      1  0.4284270000000  0.4944000000000  0.4553370000000 1.0
C      1  0.4865700000000  0.4345660000000  0.4559380000000 1.0
C      1  0.5632800000000  0.4633190000000  0.4524820000000 1.0
C      1  0.5504530000000  0.5451850000000  0.4537580000000 1.0
C      1  0.5378240000000  0.4246140000000  0.5262830000000 1.0
C      1  0.4396940000000  0.4447330000000  0.5303100000000 1.0
C      1  0.4253980000000  0.5392190000000  0.5268220000000 1.0
C      1  0.5163290000000  0.5820190000000  0.5297630000000 1.0
C      1  0.5815770000000  0.5094250000000  0.5240580000000 1.0
C      1  0.4631640000000  0.4277130000000  0.5272280000000 1.0
C      1  0.5604480000000  0.4431940000000  0.5294440000000 1.0
C      1  0.5708470000000  0.5366800000000  0.5261070000000 1.0
C      1  0.4869390000000  0.5838080000000  0.5265070000000 1.0
C      1  0.4170320000000  0.5109120000000  0.5296300000000 1.0
C      1  0.5467980000000  0.4989920000000  0.4382200000000 1.0
C      1  0.5153180000000  0.4560700000000  0.4360010000000 1.0
C      1  0.4633910000000  0.4747600000000  0.4404420000000 1.0
C      1  0.4592370000000  0.5281600000000  0.4363210000000 1.0
C      1  0.5106410000000  0.5397050000000  0.4409930000000 1.0
C      1  0.4518140000000  0.5015750000000  0.4391100000000 1.0
C      1  0.4862840000000  0.4590830000000  0.4384520000000 1.0
C      1  0.5383500000000  0.4710040000000  0.4378180000000 1.0
C      1  0.5354880000000  0.5244020000000  0.4394090000000 1.0
C      1  0.4838030000000  0.5434840000000  0.4368240000000 1.0
C      1  0.4096160000000  0.5090450000000  0.5008160000000 1.0
C      1  0.4911860000000  0.5870450000000  0.4965630000000 1.0
C      1  0.5758030000000  0.5381540000000  0.4971850000000 1.0
C      1  0.5686770000000  0.4404760000000  0.5011370000000 1.0
C      1  0.4590720000000  0.4297770000000  0.4979440000000 1.0
C      1  0.5866550000000  0.5113960000000  0.4948970000000 1.0
C      1  0.5196160000000  0.5823480000000  0.5009510000000 1.0
C      1  0.4178830000000  0.5372850000000  0.4971180000000 1.0
C      1  0.4342870000000  0.4448990000000  0.5013230000000 1.0
C      1  0.5458140000000  0.4223670000000  0.4966060000000 1.0
C      1  0.5420590000000  0.4760210000000  0.4894840000000 1.0
C      1  0.4958050000000  0.4629050000000  0.4926270000000 1.0
C      1  0.4662140000000  0.5001380000000  0.4991860000000 1.0
C      1  0.4836390000000  0.5419710000000  0.4914350000000 1.0
C      1  0.5136810000000  0.5081770000000  0.5048850000000 1.0
C      1  0.4905250000000  0.4887730000000  0.5005560000000 1.0
C      1  0.5221200000000  0.4578740000000  0.4882430000000 1.0
C      1  0.5399290000000  0.4977610000000  0.5062510000000 1.0
C      1  0.5088930000000  0.5350500000000  0.4984640000000 1.0
C      1  0.4625100000000  0.5252240000000  0.4911680000000 1.0
END
