TITL C-188673-7734-4 -61.2975152685103 125000 -458.923087618804 0 0 68 (C3) n - 1
REM
REM in /rds/project/t2_vol4/rds-t2-cs072/BORA/CARBON/from-Arr/AIRSS/Generating-Clusters/GAP-ML-2020/Higher-Symm/SD-CG/HFTN-CG
REM
REM
REM
REM
REM
REM ./C.cell (b20cbc046b6831c77cfcea5457e17084)
REM AIRSS Version 0.9.1 bugfix July 2018 build 013d7b7c2542+ Fri, 06 Jul 2018 19:26:36 +0100
REM compiler GCC version 9.3.0
REM options -cpp -mtune=generic -march=x86-64 -g -O0
REM seed 506702248 870081447 682860403 -997590448 -1262806966 1310086198 -1722798164 -2060458897 19026890 -202565512 152752026 566742456 -1648733969 964612311 1059077567 -2003310861 -1716601621 -575594162 1638205561 -569872787 -1214358804 -785289 -686992434 1621376412 -1000323457 -881122311 596953325 1022546373 -1229325344 -614454927 -1126679134 -1782618757 312576062
REM
CELL 1.54180   50.00000   50.00000   50.00000   90.00000   90.00000   90.00000
LATT -1
SFAC C  
C      1  0.5484840000000  0.4869860000000  0.4485320000000 1.0
C      1  0.4305150000000  0.4869750000000  0.4832620000000 1.0
C      1  0.5195770000000  0.4869950000000  0.5680610000000 1.0
C      1  0.4725530000000  0.4410430000000  0.5270620000000 1.0
C      1  0.5364940000000  0.4410490000000  0.5097670000000 1.0
C      1  0.4895460000000  0.4410390000000  0.4630400000000 1.0
C      1  0.5364300000000  0.5347000000000  0.4794920000000 1.0
C      1  0.4633500000000  0.5346910000000  0.4782090000000 1.0
C      1  0.4987790000000  0.5347020000000  0.5421390000000 1.0
C      1  0.5104250000000  0.4631820000000  0.4244430000000 1.0
C      1  0.4286860000000  0.4631830000000  0.5282730000000 1.0
C      1  0.5594750000000  0.4632020000000  0.5471460000000 1.0
C      1  0.5558230000000  0.5252390000000  0.5047900000000 1.0
C      1  0.4755630000000  0.5252230000000  0.4487680000000 1.0
C      1  0.4671760000000  0.5252320000000  0.5462860000000 1.0
C      1  0.4563120000000  0.5705460000000  0.5345680000000 1.0
C      1  0.5511030000000  0.5705570000000  0.5200450000000 1.0
C      1  0.4911300000000  0.5705410000000  0.4452150000000 1.0
C      1  0.4749440000000  0.4852190000000  0.4905890000000 1.0
C      1  0.5037080000000  0.4852270000000  0.5259220000000 1.0
C      1  0.5199260000000  0.4852240000000  0.4833450000000 1.0
C      1  0.4947430000000  0.4832780000000  0.4343170000000 1.0
C      1  0.4450750000000  0.4832830000000  0.5369120000000 1.0
C      1  0.5587590000000  0.4832960000000  0.5286280000000 1.0
C      1  0.4678850000000  0.4776670000000  0.4417030000000 1.0
C      1  0.4649020000000  0.4776780000000  0.5564800000000 1.0
C      1  0.5657930000000  0.4776850000000  0.5016750000000 1.0
C      1  0.4560590000000  0.5028330000000  0.4450290000000 1.0
C      1  0.4736930000000  0.5028480000000  0.5650520000000 1.0
C      1  0.5688190000000  0.5028520000000  0.4897690000000 1.0
C      1  0.4516310000000  0.5090540000000  0.5227220000000 1.0
C      1  0.5431900000000  0.5090660000000  0.5300390000000 1.0
C      1  0.5037470000000  0.5090520000000  0.4470880000000 1.0
C      1  0.5673510000000  0.5514490000000  0.5154020000000 1.0
C      1  0.4789860000000  0.5514290000000  0.4334700000000 1.0
C      1  0.4522140000000  0.5514380000000  0.5509620000000 1.0
C      1  0.5156900000000  0.4227490000000  0.5034730000000 1.0
C      1  0.4944990000000  0.4227450000000  0.4842100000000 1.0
C      1  0.4884120000000  0.4227470000000  0.5121930000000 1.0
C      1  0.5137910000000  0.4524410000000  0.4496280000000 1.0
C      1  0.4488140000000  0.4524400000000  0.5127690000000 1.0
C      1  0.5359850000000  0.4524530000000  0.5374690000000 1.0
C      1  0.4721720000000  0.5124620000000  0.4983390000000 1.0
C      1  0.5118030000000  0.5124700000000  0.5244400000000 1.0
C      1  0.5145920000000  0.5124650000000  0.4770680000000 1.0
C      1  0.4768660000000  0.5684580000000  0.5150750000000 1.0
C      1  0.5239450000000  0.5684640000000  0.5119920000000 1.0
C      1  0.4977350000000  0.5684570000000  0.4727620000000 1.0
C      1  0.4748820000000  0.5610130000000  0.4880200000000 1.0
C      1  0.5015070000000  0.5610210000000  0.5272400000000 1.0
C      1  0.5221600000000  0.5610190000000  0.4845720000000 1.0
C      1  0.4520870000000  0.4666250000000  0.4863480000000 1.0
C      1  0.5114650000000  0.4666390000000  0.5478420000000 1.0
C      1  0.5350320000000  0.4666330000000  0.4656720000000 1.0
C      1  0.5506660000000  0.5271390000000  0.4544530000000 1.0
C      1  0.4345480000000  0.5271270000000  0.4784010000000 1.0
C      1  0.5133470000000  0.5271460000000  0.5669880000000 1.0
C      1  0.5332050000000  0.5102220000000  0.4384410000000 1.0
C      1  0.4294130000000  0.5102160000000  0.5015340000000 1.0
C      1  0.5359490000000  0.5102350000000  0.5598730000000 1.0
C      1  0.4986600000000  0.5047710000000  0.5770330000000 1.0
C      1  0.5667110000000  0.5047670000000  0.4621560000000 1.0
C      1  0.4331990000000  0.5047510000000  0.4606610000000 1.0
C      1  0.4654470000000  0.4564100000000  0.4608890000000 1.0
C      1  0.4827380000000  0.4564220000000  0.5490040000000 1.0
C      1  0.5504020000000  0.4564240000000  0.4899720000000 1.0
C      1  0.4995210000000  0.5212340000000  0.4999480000000 1.0
C      1  0.4995270000000  0.4744180000000  0.4999530000000 1.0
END
