TITL C-180227-6042-8 46.7117307581336 125000 -431.720726481426 0 0 64 (C2) n - 1
REM
REM in /rds/project/t2_vol4/rds-t2-cs072/BORA/CARBON/from-Arr/AIRSS/Generating-Clusters/GAP-ML-2020/Higher-Symm/SD-CG/HFTN-CG
REM
REM
REM
REM
REM
REM ./C.cell (b20cbc046b6831c77cfcea5457e17084)
REM AIRSS Version 0.9.1 bugfix July 2018 build 013d7b7c2542+ Fri, 06 Jul 2018 19:26:36 +0100
REM compiler GCC version 9.3.0
REM options -cpp -mtune=generic -march=x86-64 -g -O0
REM seed 1114120599 111709504 291363133 1583022856 -82954218 256804311 -83925485 -1574945319 -26694928 -1886896723 1294758187 720575211 -31759588 726276043 1532380516 546438235 610722184 -889437691 261267473 1465076212 740099684 1164792204 -803235065 1525232007 -1348658461 1957172564 1517605908 -777825092 -745445259 170571417 581271863 -1434480432 2127902556
REM
CELL 1.54180   50.00000   50.00000   50.00000   90.00000   90.00000   90.00000
LATT -1
SFAC C  
C      1  0.5168590000000  0.4860600000000  0.4384800000000 1.0
C      1  0.4871130000000  0.5142880000000  0.4376060000000 1.0
C      1  0.4890560000000  0.4855490000000  0.4376210000000 1.0
C      1  0.5149130000000  0.5147980000000  0.4385320000000 1.0
C      1  0.4391000000000  0.4876890000000  0.5555520000000 1.0
C      1  0.5572150000000  0.5119890000000  0.5594060000000 1.0
C      1  0.5568120000000  0.4846130000000  0.5590880000000 1.0
C      1  0.4395180000000  0.5150650000000  0.5554140000000 1.0
C      1  0.5325560000000  0.4698410000000  0.5540710000000 1.0
C      1  0.4640420000000  0.5298610000000  0.5520440000000 1.0
C      1  0.4630430000000  0.4718170000000  0.5522340000000 1.0
C      1  0.5335310000000  0.5278830000000  0.5546510000000 1.0
C      1  0.4783590000000  0.5287310000000  0.4597070000000 1.0
C      1  0.5241820000000  0.4714910000000  0.4610150000000 1.0
C      1  0.5297440000000  0.5299620000000  0.4581880000000 1.0
C      1  0.4730010000000  0.4702780000000  0.4562010000000 1.0
C      1  0.5337280000000  0.5151950000000  0.4856880000000 1.0
C      1  0.4672610000000  0.4848920000000  0.4834730000000 1.0
C      1  0.4677800000000  0.5152210000000  0.4836010000000 1.0
C      1  0.5332070000000  0.4848650000000  0.4856130000000 1.0
C      1  0.5136110000000  0.4846050000000  0.5364470000000 1.0
C      1  0.4840800000000  0.5151930000000  0.5355860000000 1.0
C      1  0.4833320000000  0.4853490000000  0.5352580000000 1.0
C      1  0.5143730000000  0.5144500000000  0.5363350000000 1.0
C      1  0.5587810000000  0.5541340000000  0.4919950000000 1.0
C      1  0.4418620000000  0.4459220000000  0.4879430000000 1.0
C      1  0.4438740000000  0.5553720000000  0.4864470000000 1.0
C      1  0.5568880000000  0.4446950000000  0.4897580000000 1.0
C      1  0.4259120000000  0.5157780000000  0.5092880000000 1.0
C      1  0.5733440000000  0.4841570000000  0.5139250000000 1.0
C      1  0.5738800000000  0.5131310000000  0.5147840000000 1.0
C      1  0.4253270000000  0.4867990000000  0.5099480000000 1.0
C      1  0.4508760000000  0.4519830000000  0.5346230000000 1.0
C      1  0.5467970000000  0.5478130000000  0.5379670000000 1.0
C      1  0.5451280000000  0.4499500000000  0.5366510000000 1.0
C      1  0.4526090000000  0.5498510000000  0.5339660000000 1.0
C      1  0.4714640000000  0.5543220000000  0.5129640000000 1.0
C      1  0.5276570000000  0.4456010000000  0.5144600000000 1.0
C      1  0.5298070000000  0.5535150000000  0.5156360000000 1.0
C      1  0.4692620000000  0.4464030000000  0.5133940000000 1.0
C      1  0.4382750000000  0.4800600000000  0.4192720000000 1.0
C      1  0.5667650000000  0.5203820000000  0.4235040000000 1.0
C      1  0.5553220000000  0.5309050000000  0.4430470000000 1.0
C      1  0.4484440000000  0.4694250000000  0.4394490000000 1.0
C      1  0.4836470000000  0.4720210000000  0.5071490000000 1.0
C      1  0.5158560000000  0.5279350000000  0.5083390000000 1.0
C      1  0.5147320000000  0.4719230000000  0.5086190000000 1.0
C      1  0.4847410000000  0.5280310000000  0.5078150000000 1.0
C      1  0.5131730000000  0.4457080000000  0.4678070000000 1.0
C      1  0.4889060000000  0.5544750000000  0.4673340000000 1.0
C      1  0.4850080000000  0.4444140000000  0.4667540000000 1.0
C      1  0.5170800000000  0.5557690000000  0.4680940000000 1.0
C      1  0.4690990000000  0.5646840000000  0.4863010000000 1.0
C      1  0.5317260000000  0.4353880000000  0.4879450000000 1.0
C      1  0.5343580000000  0.5648410000000  0.4894180000000 1.0
C      1  0.4664020000000  0.4352250000000  0.4868760000000 1.0
C      1  0.4384520000000  0.4736580000000  0.4890580000000 1.0
C      1  0.5621180000000  0.5263920000000  0.4931700000000 1.0
C      1  0.5609660000000  0.4719690000000  0.4918040000000 1.0
C      1  0.4396790000000  0.5280880000000  0.4880740000000 1.0
C      1  0.5700490000000  0.5285660000000  0.5390240000000 1.0
C      1  0.4276010000000  0.4712290000000  0.5342970000000 1.0
C      1  0.4288890000000  0.5315260000000  0.5334900000000 1.0
C      1  0.5688260000000  0.4682740000000  0.5377980000000 1.0
END
