TITL C-187012-1078-3 131.078685004585 125000 -907.804795160101 0 0 130 (C1) n - 1
REM
REM in /rds/project/t2_vol4/rds-t2-cs072/BORA/CARBON/from-Arr/AIRSS/Generating-Clusters/GAP-ML-2020/Higher-Symm/SD-CG/HFTN-CG
REM
REM
REM
REM
REM
REM ./C.cell (b20cbc046b6831c77cfcea5457e17084)
REM AIRSS Version 0.9.1 bugfix July 2018 build 013d7b7c2542+ Fri, 06 Jul 2018 19:26:36 +0100
REM compiler GCC version 9.3.0
REM options -cpp -mtune=generic -march=x86-64 -g -O0
REM seed -996420693 -2054944773 1873496304 633704915 1017493741 -1835751453 1782075558 1980014464 -2140725577 1201305952 464866978 587123734 1663020732 -194128544 581120317 681156684 1247158467 1443864711 -914624964 -1476908724 129281521 1405299421 -1516334261 -995112333 -746599458 1368273126 2068153467 -1685313085 -1293309548 839032142 -543957516 -38065921 80206086
REM
CELL 1.54180   50.00000   50.00000   50.00000   90.00000   90.00000   90.00000
LATT -1
SFAC C  
C      1  0.5561370000000  0.5107320000000  0.4769700000000 1.0
C      1  0.4812460000000  0.4491520000000  0.4812840000000 1.0
C      1  0.4660200000000  0.5416990000000  0.4835450000000 1.0
C      1  0.5212780000000  0.4788290000000  0.4139420000000 1.0
C      1  0.4726720000000  0.4913020000000  0.4140900000000 1.0
C      1  0.5085400000000  0.5268030000000  0.4138200000000 1.0
C      1  0.5004520000000  0.5656250000000  0.4460210000000 1.0
C      1  0.5605220000000  0.4667270000000  0.4442450000000 1.0
C      1  0.4421540000000  0.4643690000000  0.4454500000000 1.0
C      1  0.5732430000000  0.4549040000000  0.4705120000000 1.0
C      1  0.4234850000000  0.4588500000000  0.4712440000000 1.0
C      1  0.5041050000000  0.5821250000000  0.4726240000000 1.0
C      1  0.4702540000000  0.5631980000000  0.5029230000000 1.0
C      1  0.5736060000000  0.4947660000000  0.4958060000000 1.0
C      1  0.4575600000000  0.4400550000000  0.4976410000000 1.0
C      1  0.4397790000000  0.5702900000000  0.5129360000000 1.0
C      1  0.5921240000000  0.5169550000000  0.5096360000000 1.0
C      1  0.4684670000000  0.4140910000000  0.5124040000000 1.0
C      1  0.4841380000000  0.4760530000000  0.5785790000000 1.0
C      1  0.4844560000000  0.5262220000000  0.5692690000000 1.0
C      1  0.5287000000000  0.5021520000000  0.5772420000000 1.0
C      1  0.5632870000000  0.5548600000000  0.4548010000000 1.0
C      1  0.5177820000000  0.4253440000000  0.4619750000000 1.0
C      1  0.4268140000000  0.5232040000000  0.4599740000000 1.0
C      1  0.4348590000000  0.5903200000000  0.4910500000000 1.0
C      1  0.6143350000000  0.5115760000000  0.4890600000000 1.0
C      1  0.4547620000000  0.3961210000000  0.4910510000000 1.0
C      1  0.5282190000000  0.5061160000000  0.4113930000000 1.0
C      1  0.4933510000000  0.4721520000000  0.4127220000000 1.0
C      1  0.4815170000000  0.5185800000000  0.4127430000000 1.0
C      1  0.5281710000000  0.4439210000000  0.4831950000000 1.0
C      1  0.4336910000000  0.5043140000000  0.4816920000000 1.0
C      1  0.5457860000000  0.5602650000000  0.4762960000000 1.0
C      1  0.5792820000000  0.5083740000000  0.4571260000000 1.0
C      1  0.4697930000000  0.4294260000000  0.4617790000000 1.0
C      1  0.4561040000000  0.5607230000000  0.4615770000000 1.0
C      1  0.5006340000000  0.4055140000000  0.4769630000000 1.0
C      1  0.4180330000000  0.5482020000000  0.4747510000000 1.0
C      1  0.5877630000000  0.5478850000000  0.4718070000000 1.0
C      1  0.4339350000000  0.5265850000000  0.5486790000000 1.0
C      1  0.5518550000000  0.5426260000000  0.5422050000000 1.0
C      1  0.5086630000000  0.4359170000000  0.5477670000000 1.0
C      1  0.5524930000000  0.5359660000000  0.4929710000000 1.0
C      1  0.5032340000000  0.4411820000000  0.5000380000000 1.0
C      1  0.4441210000000  0.5269620000000  0.4999260000000 1.0
C      1  0.5289420000000  0.4968640000000  0.4735330000000 1.0
C      1  0.4816590000000  0.4790230000000  0.4751360000000 1.0
C      1  0.4932470000000  0.5269570000000  0.4806900000000 1.0
C      1  0.4889520000000  0.5978860000000  0.5237210000000 1.0
C      1  0.5906930000000  0.4633240000000  0.5226010000000 1.0
C      1  0.4211630000000  0.4398550000000  0.5234460000000 1.0
C      1  0.4885260000000  0.4483750000000  0.4266380000000 1.0
C      1  0.4633460000000  0.5346730000000  0.4265770000000 1.0
C      1  0.5520130000000  0.5141740000000  0.4236550000000 1.0
C      1  0.5271200000000  0.4533740000000  0.5643650000000 1.0
C      1  0.4415910000000  0.5009820000000  0.5646120000000 1.0
C      1  0.5287490000000  0.5499940000000  0.5606530000000 1.0
C      1  0.4738740000000  0.4022470000000  0.4696440000000 1.0
C      1  0.4309980000000  0.5720170000000  0.4688000000000 1.0
C      1  0.6013130000000  0.5243000000000  0.4661780000000 1.0
C      1  0.4549640000000  0.5201260000000  0.5271450000000 1.0
C      1  0.5367140000000  0.5272000000000  0.5164680000000 1.0
C      1  0.4996410000000  0.4578620000000  0.5250260000000 1.0
C      1  0.4488520000000  0.4891840000000  0.4311490000000 1.0
C      1  0.5190710000000  0.5483680000000  0.4304230000000 1.0
C      1  0.5351800000000  0.4597470000000  0.4311160000000 1.0
C      1  0.4593540000000  0.4883370000000  0.4907480000000 1.0
C      1  0.5071490000000  0.5309010000000  0.5069640000000 1.0
C      1  0.5289440000000  0.4751540000000  0.4923870000000 1.0
C      1  0.5705800000000  0.5619810000000  0.5250030000000 1.0
C      1  0.5179160000000  0.4120760000000  0.5291950000000 1.0
C      1  0.4091950000000  0.5296190000000  0.5281380000000 1.0
C      1  0.5802600000000  0.5436060000000  0.5018400000000 1.0
C      1  0.4979760000000  0.4125230000000  0.5062100000000 1.0
C      1  0.4224670000000  0.5465600000000  0.5050820000000 1.0
C      1  0.5358940000000  0.5900660000000  0.5131380000000 1.0
C      1  0.5590480000000  0.4269140000000  0.5115490000000 1.0
C      1  0.4032030000000  0.4849840000000  0.5117110000000 1.0
C      1  0.4136190000000  0.4823950000000  0.4844780000000 1.0
C      1  0.5291820000000  0.5811230000000  0.4854850000000 1.0
C      1  0.5568340000000  0.4366180000000  0.4845530000000 1.0
C      1  0.4308620000000  0.4757020000000  0.5564340000000 1.0
C      1  0.5133390000000  0.5736760000000  0.5564290000000 1.0
C      1  0.5542370000000  0.4561470000000  0.5555810000000 1.0
C      1  0.4422980000000  0.5171430000000  0.4374050000000 1.0
C      1  0.5472890000000  0.5413660000000  0.4350170000000 1.0
C      1  0.5145800000000  0.4401850000000  0.4383180000000 1.0
C      1  0.4963700000000  0.5065110000000  0.5210380000000 1.0
C      1  0.5141920000000  0.4837050000000  0.5192970000000 1.0
C      1  0.4699270000000  0.4959880000000  0.5175820000000 1.0
C      1  0.4813670000000  0.5912410000000  0.4941360000000 1.0
C      1  0.5928530000000  0.4708890000000  0.4910390000000 1.0
C      1  0.4275550000000  0.4338860000000  0.4921450000000 1.0
C      1  0.5903200000000  0.5105230000000  0.5380960000000 1.0
C      1  0.4623940000000  0.4181720000000  0.5408330000000 1.0
C      1  0.4459160000000  0.5756030000000  0.5410190000000 1.0
C      1  0.5433940000000  0.4068000000000  0.5227330000000 1.0
C      1  0.3929340000000  0.5088750000000  0.5227260000000 1.0
C      1  0.5629510000000  0.5873810000000  0.5223930000000 1.0
C      1  0.5687390000000  0.4938160000000  0.4355070000000 1.0
C      1  0.4629200000000  0.4442610000000  0.4388280000000 1.0
C      1  0.4729960000000  0.5580080000000  0.4395510000000 1.0
C      1  0.5641560000000  0.4516780000000  0.5266380000000 1.0
C      1  0.4222430000000  0.4686250000000  0.5272990000000 1.0
C      1  0.5148950000000  0.5905190000000  0.5321030000000 1.0
C      1  0.4702440000000  0.5522960000000  0.5725710000000 1.0
C      1  0.5570480000000  0.5021060000000  0.5710220000000 1.0
C      1  0.4697680000000  0.4512170000000  0.5739710000000 1.0
C      1  0.5386570000000  0.4980980000000  0.5266090000000 1.0
C      1  0.4727890000000  0.4691290000000  0.5301720000000 1.0
C      1  0.4812370000000  0.5291620000000  0.5378520000000 1.0
C      1  0.4381110000000  0.4313820000000  0.5449050000000 1.0
C      1  0.4711980000000  0.5887280000000  0.5442090000000 1.0
C      1  0.5901120000000  0.4830540000000  0.5431850000000 1.0
C      1  0.4425460000000  0.4516610000000  0.5651510000000 1.0
C      1  0.4857210000000  0.5748610000000  0.5642940000000 1.0
C      1  0.5700540000000  0.4780420000000  0.5632880000000 1.0
C      1  0.5152100000000  0.5272390000000  0.5731430000000 1.0
C      1  0.5136320000000  0.4765850000000  0.5762950000000 1.0
C      1  0.4687910000000  0.5008200000000  0.5748950000000 1.0
C      1  0.6178880000000  0.4841410000000  0.4862650000000 1.0
C      1  0.4287620000000  0.4055290000000  0.4871400000000 1.0
C      1  0.4570130000000  0.6063320000000  0.4883540000000 1.0
C      1  0.4510790000000  0.4647730000000  0.5119140000000 1.0
C      1  0.4903150000000  0.5507170000000  0.5209810000000 1.0
C      1  0.5535190000000  0.4792040000000  0.5107030000000 1.0
C      1  0.4819350000000  0.4301260000000  0.5584890000000 1.0
C      1  0.4445980000000  0.5530270000000  0.5589280000000 1.0
C      1  0.5693670000000  0.5221880000000  0.5540790000000 1.0
C      1  0.5006840000000  0.5019330000000  0.4678920000000 1.0
END
