TITL C-180455-1580-6 1.86445453179928 125000 -888.548908878612 0 0 129 (C1) n - 1
REM
REM in /rds/project/t2_vol4/rds-t2-cs072/BORA/CARBON/from-Arr/AIRSS/Generating-Clusters/GAP-ML-2020/Higher-Symm/SD-CG/HFTN-CG
REM
REM
REM
REM
REM
REM ./C.cell (b20cbc046b6831c77cfcea5457e17084)
REM AIRSS Version 0.9.1 bugfix July 2018 build 013d7b7c2542+ Fri, 06 Jul 2018 19:26:36 +0100
REM compiler GCC version 9.3.0
REM options -cpp -mtune=generic -march=x86-64 -g -O0
REM seed 2030059455 -581707353 -201496458 2075289830 -495091414 -1724284924 -1404034590 -1858288180 504616019 734445845 732597348 -510563942 1647062442 2074736255 -433564776 -1887834684 -278983163 401154262 -354454890 -1278718293 787312999 2039727427 1875869090 1707478342 313941723 -36499271 -1448215348 -983002387 -2131686758 908384612 1911588488 1716394988 -329860185
REM
CELL 1.54180   50.00000   50.00000   50.00000   90.00000   90.00000   90.00000
LATT -1
SFAC C  
C      1  0.4905290000000  0.5260250000000  0.4075950000000 1.0
C      1  0.5102440000000  0.4731100000000  0.4070490000000 1.0
C      1  0.4904150000000  0.5264100000000  0.5936410000000 1.0
C      1  0.5100840000000  0.4737420000000  0.5923340000000 1.0
C      1  0.4645010000000  0.4104460000000  0.4842790000000 1.0
C      1  0.5357890000000  0.5887020000000  0.4857920000000 1.0
C      1  0.4649300000000  0.4109530000000  0.5145280000000 1.0
C      1  0.5363080000000  0.5893080000000  0.5160980000000 1.0
C      1  0.5529720000000  0.4875750000000  0.5771890000000 1.0
C      1  0.4485040000000  0.5124370000000  0.5757030000000 1.0
C      1  0.5523540000000  0.4871560000000  0.4244810000000 1.0
C      1  0.4480550000000  0.5122460000000  0.4237200000000 1.0
C      1  0.5364840000000  0.4626130000000  0.4699230000000 1.0
C      1  0.4632580000000  0.5366770000000  0.4692120000000 1.0
C      1  0.5374790000000  0.4630410000000  0.5309070000000 1.0
C      1  0.4644810000000  0.5369350000000  0.5308350000000 1.0
C      1  0.4764380000000  0.4888220000000  0.4735910000000 1.0
C      1  0.5190740000000  0.5073250000000  0.4775600000000 1.0
C      1  0.4823680000000  0.4923670000000  0.5206180000000 1.0
C      1  0.5269260000000  0.5121950000000  0.5291660000000 1.0
C      1  0.5537930000000  0.5702200000000  0.4705890000000 1.0
C      1  0.4456590000000  0.4285830000000  0.4688340000000 1.0
C      1  0.5550150000000  0.5711730000000  0.5315150000000 1.0
C      1  0.4468080000000  0.4293960000000  0.5296170000000 1.0
C      1  0.5120620000000  0.3948540000000  0.5137320000000 1.0
C      1  0.4890610000000  0.6049390000000  0.5139760000000 1.0
C      1  0.5117730000000  0.3946360000000  0.4864910000000 1.0
C      1  0.4887650000000  0.6048280000000  0.4867350000000 1.0
C      1  0.5074110000000  0.4144890000000  0.5501530000000 1.0
C      1  0.4931830000000  0.5861630000000  0.5509110000000 1.0
C      1  0.5077970000000  0.4135130000000  0.4495770000000 1.0
C      1  0.4933200000000  0.5852970000000  0.4502080000000 1.0
C      1  0.5523270000000  0.4592870000000  0.5745910000000 1.0
C      1  0.4486920000000  0.5407970000000  0.5741590000000 1.0
C      1  0.5521510000000  0.4587990000000  0.4262570000000 1.0
C      1  0.4483970000000  0.5406550000000  0.4257540000000 1.0
C      1  0.5490600000000  0.5577620000000  0.5555800000000 1.0
C      1  0.4546120000000  0.4435790000000  0.5524710000000 1.0
C      1  0.5467460000000  0.5564160000000  0.4472120000000 1.0
C      1  0.4521320000000  0.4424200000000  0.4451750000000 1.0
C      1  0.5203950000000  0.5329780000000  0.4883200000000 1.0
C      1  0.4759150000000  0.4628380000000  0.4860970000000 1.0
C      1  0.5240600000000  0.5355340000000  0.5146940000000 1.0
C      1  0.4776600000000  0.4647140000000  0.5134950000000 1.0
C      1  0.4888810000000  0.4021820000000  0.4703790000000 1.0
C      1  0.5118420000000  0.5970710000000  0.4711270000000 1.0
C      1  0.4889120000000  0.4026040000000  0.5292200000000 1.0
C      1  0.5119830000000  0.5975590000000  0.5300900000000 1.0
C      1  0.4377340000000  0.4917730000000  0.4408710000000 1.0
C      1  0.5612550000000  0.5075490000000  0.4426730000000 1.0
C      1  0.4398430000000  0.4921480000000  0.5573690000000 1.0
C      1  0.5631830000000  0.5078230000000  0.5596800000000 1.0
C      1  0.5817140000000  0.4540510000000  0.4729310000000 1.0
C      1  0.4185150000000  0.5458380000000  0.4725380000000 1.0
C      1  0.5824350000000  0.4538520000000  0.5279650000000 1.0
C      1  0.4190410000000  0.5455840000000  0.5276010000000 1.0
C      1  0.4239650000000  0.5707900000000  0.5143630000000 1.0
C      1  0.5770480000000  0.4289290000000  0.5146850000000 1.0
C      1  0.4237920000000  0.5707680000000  0.4858040000000 1.0
C      1  0.5768300000000  0.4289020000000  0.4861840000000 1.0
C      1  0.5487520000000  0.5338020000000  0.5670900000000 1.0
C      1  0.4555830000000  0.4674500000000  0.5644680000000 1.0
C      1  0.5457120000000  0.5323670000000  0.4354720000000 1.0
C      1  0.4530190000000  0.4665030000000  0.4335320000000 1.0
C      1  0.4309800000000  0.4976480000000  0.5281730000000 1.0
C      1  0.5721310000000  0.5018980000000  0.5293850000000 1.0
C      1  0.4281470000000  0.4975640000000  0.4706590000000 1.0
C      1  0.5695750000000  0.5019280000000  0.4723020000000 1.0
C      1  0.4141360000000  0.5211280000000  0.4854950000000 1.0
C      1  0.5859240000000  0.4786550000000  0.4858930000000 1.0
C      1  0.4148380000000  0.5210530000000  0.5144920000000 1.0
C      1  0.5867030000000  0.4785870000000  0.5148470000000 1.0
C      1  0.5092200000000  0.4616110000000  0.4529300000000 1.0
C      1  0.4903910000000  0.5369460000000  0.4531400000000 1.0
C      1  0.5107570000000  0.4629300000000  0.5466000000000 1.0
C      1  0.4916360000000  0.5382810000000  0.5477500000000 1.0
C      1  0.5246540000000  0.4405200000000  0.5143100000000 1.0
C      1  0.4769390000000  0.5594290000000  0.5145490000000 1.0
C      1  0.5239210000000  0.4400630000000  0.4860170000000 1.0
C      1  0.4761170000000  0.5590360000000  0.4861350000000 1.0
C      1  0.4756040000000  0.5489040000000  0.4162140000000 1.0
C      1  0.5251270000000  0.4503590000000  0.4160290000000 1.0
C      1  0.4757150000000  0.5492040000000  0.5843380000000 1.0
C      1  0.5251600000000  0.4509020000000  0.5840020000000 1.0
C      1  0.5089380000000  0.5140710000000  0.5528410000000 1.0
C      1  0.4953160000000  0.4887550000000  0.5490280000000 1.0
C      1  0.5066380000000  0.5117250000000  0.4487500000000 1.0
C      1  0.4922660000000  0.4858970000000  0.4473830000000 1.0
C      1  0.4819220000000  0.4801560000000  0.5786820000000 1.0
C      1  0.5192500000000  0.5204310000000  0.5815490000000 1.0
C      1  0.4810800000000  0.4792560000000  0.4196940000000 1.0
C      1  0.5189850000000  0.5195210000000  0.4212140000000 1.0
C      1  0.4411170000000  0.5509130000000  0.5477550000000 1.0
C      1  0.5601630000000  0.4488020000000  0.5481870000000 1.0
C      1  0.4408450000000  0.5509480000000  0.4523360000000 1.0
C      1  0.5596940000000  0.4486730000000  0.4527300000000 1.0
C      1  0.4974280000000  0.4482840000000  0.5247180000000 1.0
C      1  0.5042970000000  0.5524520000000  0.5252650000000 1.0
C      1  0.4966190000000  0.4471650000000  0.4752920000000 1.0
C      1  0.5030450000000  0.5508900000000  0.4759320000000 1.0
C      1  0.4567170000000  0.5102110000000  0.4827170000000 1.0
C      1  0.5420200000000  0.4891460000000  0.4849030000000 1.0
C      1  0.4585450000000  0.5105760000000  0.5157320000000 1.0
C      1  0.5431540000000  0.4897850000000  0.5175160000000 1.0
C      1  0.4218350000000  0.4732150000000  0.4851380000000 1.0
C      1  0.5774520000000  0.5261530000000  0.4864680000000 1.0
C      1  0.4229840000000  0.4734220000000  0.5139380000000 1.0
C      1  0.5787670000000  0.5263760000000  0.5153060000000 1.0
C      1  0.4727900000000  0.5048500000000  0.5895050000000 1.0
C      1  0.5283270000000  0.4951720000000  0.5911260000000 1.0
C      1  0.4724130000000  0.5046180000000  0.4096750000000 1.0
C      1  0.5280500000000  0.4946220000000  0.4104130000000 1.0
C      1  0.5581560000000  0.4206950000000  0.5358600000000 1.0
C      1  0.4428080000000  0.5790640000000  0.5353820000000 1.0
C      1  0.5580770000000  0.4205040000000  0.4650860000000 1.0
C      1  0.4426950000000  0.5790390000000  0.4646860000000 1.0
C      1  0.5303580000000  0.4136290000000  0.5295020000000 1.0
C      1  0.4706850000000  0.5864200000000  0.5297860000000 1.0
C      1  0.5302540000000  0.4130870000000  0.4706730000000 1.0
C      1  0.4704860000000  0.5860520000000  0.4709490000000 1.0
C      1  0.4276870000000  0.4443060000000  0.4850470000000 1.0
C      1  0.5719080000000  0.5549720000000  0.4865370000000 1.0
C      1  0.4284300000000  0.4445810000000  0.5138930000000 1.0
C      1  0.5729400000000  0.5553210000000  0.5154240000000 1.0
C      1  0.4920400000000  0.5628880000000  0.5662170000000 1.0
C      1  0.5089940000000  0.4378860000000  0.5652720000000 1.0
C      1  0.4917620000000  0.5620510000000  0.4349190000000 1.0
C      1  0.5090170000000  0.4368010000000  0.4344040000000 1.0
C      1  0.4955200000000  0.4989660000000  0.4922380000000 1.0
END
