TITL C-183190-4753-8 -41.4360647934906 125000 -816.453242459942 0 0 117 (C1) n - 1
REM
REM in /rds/project/t2_vol4/rds-t2-cs072/BORA/CARBON/from-Arr/AIRSS/Generating-Clusters/GAP-ML-2020/Higher-Symm/SD-CG/HFTN-CG
REM
REM
REM
REM
REM
REM ./C.cell (b20cbc046b6831c77cfcea5457e17084)
REM AIRSS Version 0.9.1 bugfix July 2018 build 013d7b7c2542+ Fri, 06 Jul 2018 19:26:36 +0100
REM compiler GCC version 9.3.0
REM options -cpp -mtune=generic -march=x86-64 -g -O0
REM seed -1804494984 -413189284 1259466072 1132864343 1445527233 253479486 1585567061 1737120274 -830679290 74292271 1020119691 -1094539567 1280490163 -1449251868 242701295 1950880789 1144948929 654677883 -373523096 -120586223 1057461963 -32678707 -1094844492 777433864 -2092719448 812284808 -543022844 1666666166 -33517595 -2062929988 167633882 1503511218 1326791791
REM
CELL 1.54180   50.00000   50.00000   50.00000   90.00000   90.00000   90.00000
LATT -1
SFAC C  
C      1  0.4488010000000  0.5605740000000  0.5369610000000 1.0
C      1  0.4511520000000  0.4377160000000  0.4618310000000 1.0
C      1  0.5531410000000  0.5699420000000  0.4530260000000 1.0
C      1  0.5529060000000  0.4269520000000  0.5502180000000 1.0
C      1  0.4472890000000  0.5409980000000  0.5588380000000 1.0
C      1  0.4500190000000  0.4585330000000  0.4397520000000 1.0
C      1  0.5539730000000  0.4477750000000  0.5702620000000 1.0
C      1  0.5522210000000  0.5503180000000  0.4315150000000 1.0
C      1  0.5271580000000  0.5813660000000  0.4435550000000 1.0
C      1  0.5259220000000  0.4186200000000  0.5607470000000 1.0
C      1  0.4758270000000  0.5689340000000  0.5328650000000 1.0
C      1  0.4774570000000  0.4270530000000  0.4663050000000 1.0
C      1  0.5265660000000  0.4410880000000  0.5797170000000 1.0
C      1  0.5259100000000  0.5608750000000  0.4223760000000 1.0
C      1  0.4733650000000  0.5367500000000  0.5697060000000 1.0
C      1  0.4753330000000  0.4636540000000  0.4260510000000 1.0
C      1  0.4823300000000  0.3972240000000  0.5070630000000 1.0
C      1  0.4843360000000  0.6001920000000  0.4997990000000 1.0
C      1  0.5066410000000  0.3945730000000  0.5229310000000 1.0
C      1  0.5096170000000  0.6014530000000  0.4864140000000 1.0
C      1  0.4800420000000  0.5067510000000  0.4013650000000 1.0
C      1  0.4831450000000  0.4993650000000  0.5954700000000 1.0
C      1  0.5046030000000  0.5221060000000  0.3986570000000 1.0
C      1  0.5083690000000  0.4856330000000  0.5973920000000 1.0
C      1  0.4781980000000  0.5437610000000  0.4280300000000 1.0
C      1  0.4791350000000  0.4586980000000  0.5735350000000 1.0
C      1  0.5172720000000  0.5325980000000  0.5896000000000 1.0
C      1  0.5136030000000  0.4767840000000  0.3975490000000 1.0
C      1  0.4747750000000  0.4135200000000  0.5496740000000 1.0
C      1  0.4773630000000  0.5875910000000  0.4560700000000 1.0
C      1  0.5174400000000  0.5935150000000  0.5335010000000 1.0
C      1  0.5179910000000  0.4029770000000  0.4802820000000 1.0
C      1  0.4388790000000  0.5119390000000  0.4321830000000 1.0
C      1  0.4395830000000  0.4892550000000  0.5682840000000 1.0
C      1  0.5484990000000  0.4960690000000  0.5737740000000 1.0
C      1  0.5474780000000  0.5023980000000  0.4187590000000 1.0
C      1  0.4429290000000  0.4290220000000  0.5164980000000 1.0
C      1  0.4432560000000  0.5704000000000  0.4853010000000 1.0
C      1  0.5525000000000  0.5777810000000  0.5040250000000 1.0
C      1  0.5513330000000  0.4163420000000  0.5034060000000 1.0
C      1  0.5418040000000  0.4739920000000  0.4257270000000 1.0
C      1  0.5258070000000  0.5511200000000  0.5685580000000 1.0
C      1  0.4316430000000  0.4685120000000  0.5514080000000 1.0
C      1  0.4329790000000  0.5326110000000  0.4498540000000 1.0
C      1  0.5379920000000  0.4232320000000  0.4764860000000 1.0
C      1  0.5453640000000  0.5635230000000  0.5281500000000 1.0
C      1  0.4429460000000  0.5563440000000  0.4588780000000 1.0
C      1  0.4424120000000  0.4454710000000  0.5422100000000 1.0
C      1  0.5243820000000  0.4716530000000  0.4501410000000 1.0
C      1  0.5208120000000  0.5292340000000  0.5490480000000 1.0
C      1  0.4934670000000  0.4755160000000  0.5443930000000 1.0
C      1  0.4916250000000  0.5240210000000  0.4516230000000 1.0
C      1  0.5250030000000  0.4490830000000  0.4700900000000 1.0
C      1  0.5229320000000  0.5439250000000  0.5231910000000 1.0
C      1  0.4944380000000  0.5409570000000  0.4760670000000 1.0
C      1  0.4965360000000  0.4570500000000  0.5199980000000 1.0
C      1  0.5641230000000  0.4736010000000  0.5654180000000 1.0
C      1  0.5607250000000  0.5224650000000  0.4344490000000 1.0
C      1  0.4326070000000  0.4833570000000  0.4410840000000 1.0
C      1  0.4325730000000  0.5158630000000  0.5567200000000 1.0
C      1  0.5634820000000  0.5649700000000  0.4804820000000 1.0
C      1  0.5643300000000  0.4316550000000  0.5238810000000 1.0
C      1  0.4355980000000  0.4378050000000  0.4889600000000 1.0
C      1  0.4346700000000  0.5587960000000  0.5107880000000 1.0
C      1  0.5265130000000  0.5047290000000  0.3991120000000 1.0
C      1  0.5296320000000  0.5054100000000  0.5927600000000 1.0
C      1  0.4635990000000  0.4822030000000  0.5833040000000 1.0
C      1  0.4610100000000  0.5219700000000  0.4161360000000 1.0
C      1  0.5297520000000  0.3972920000000  0.5067020000000 1.0
C      1  0.5303870000000  0.5957800000000  0.5068450000000 1.0
C      1  0.4642710000000  0.5903950000000  0.4816670000000 1.0
C      1  0.4621000000000  0.4086370000000  0.5237850000000 1.0
C      1  0.5329810000000  0.5289260000000  0.5018910000000 1.0
C      1  0.5371240000000  0.4609220000000  0.4938270000000 1.0
C      1  0.4846950000000  0.5274640000000  0.4982050000000 1.0
C      1  0.4865500000000  0.4685900000000  0.4959840000000 1.0
C      1  0.5393340000000  0.5055030000000  0.5473030000000 1.0
C      1  0.5273060000000  0.4947410000000  0.4691470000000 1.0
C      1  0.4793570000000  0.4988570000000  0.5377640000000 1.0
C      1  0.4820410000000  0.4978180000000  0.4616100000000 1.0
C      1  0.5707590000000  0.5176200000000  0.4614640000000 1.0
C      1  0.5736840000000  0.4789050000000  0.5378520000000 1.0
C      1  0.4302680000000  0.5112540000000  0.5290440000000 1.0
C      1  0.4292560000000  0.4845740000000  0.4686400000000 1.0
C      1  0.5743740000000  0.4592610000000  0.5179060000000 1.0
C      1  0.5719620000000  0.5369910000000  0.4819810000000 1.0
C      1  0.4319370000000  0.5312090000000  0.5081480000000 1.0
C      1  0.4314130000000  0.4649660000000  0.4898920000000 1.0
C      1  0.5031760000000  0.4052920000000  0.5491030000000 1.0
C      1  0.5061850000000  0.5941210000000  0.4587170000000 1.0
C      1  0.4891830000000  0.4048790000000  0.4799470000000 1.0
C      1  0.4891290000000  0.5928680000000  0.5270840000000 1.0
C      1  0.5033080000000  0.5473300000000  0.4113700000000 1.0
C      1  0.5054060000000  0.4581410000000  0.5884260000000 1.0
C      1  0.4852370000000  0.4783350000000  0.4033330000000 1.0
C      1  0.4879210000000  0.5275190000000  0.5919500000000 1.0
C      1  0.5598560000000  0.5168360000000  0.5029410000000 1.0
C      1  0.5646400000000  0.4692820000000  0.4921140000000 1.0
C      1  0.4566330000000  0.5179940000000  0.4968610000000 1.0
C      1  0.4574730000000  0.4773530000000  0.4996050000000 1.0
C      1  0.5635320000000  0.5052610000000  0.5300470000000 1.0
C      1  0.5589310000000  0.4959240000000  0.4802950000000 1.0
C      1  0.4555050000000  0.4975440000000  0.5202800000000 1.0
C      1  0.4546930000000  0.4975520000000  0.4767050000000 1.0
C      1  0.4896320000000  0.5250450000000  0.5464480000000 1.0
C      1  0.4931610000000  0.4714080000000  0.4482230000000 1.0
C      1  0.5213310000000  0.5203690000000  0.4553560000000 1.0
C      1  0.5227450000000  0.4800080000000  0.5400100000000 1.0
C      1  0.4911780000000  0.5436180000000  0.5227630000000 1.0
C      1  0.4938410000000  0.4513930000000  0.4708710000000 1.0
C      1  0.5246510000000  0.4604290000000  0.5196490000000 1.0
C      1  0.5229380000000  0.5387030000000  0.4774500000000 1.0
C      1  0.5326360000000  0.4587870000000  0.4032080000000 1.0
C      1  0.4647650000000  0.5661350000000  0.4424630000000 1.0
C      1  0.4637600000000  0.4369170000000  0.5606920000000 1.0
C      1  0.5319150000000  0.5746090000000  0.5516120000000 1.0
C      1  0.4995000000000  0.4954660000000  0.4862390000000 1.0
END
