TITL C-180431-1393-9 -19.7451144707068 125000 -510.950585872281 0 0 78 (C1) n - 1
REM
REM in /rds/project/t2_vol4/rds-t2-cs072/BORA/CARBON/from-Arr/AIRSS/Generating-Clusters/GAP-ML-2020/Higher-Symm/SD-CG/HFTN-CG
REM
REM
REM
REM
REM
REM ./C.cell (b20cbc046b6831c77cfcea5457e17084)
REM AIRSS Version 0.9.1 bugfix July 2018 build 013d7b7c2542+ Fri, 06 Jul 2018 19:26:36 +0100
REM compiler GCC version 9.3.0
REM options -cpp -mtune=generic -march=x86-64 -g -O0
REM seed -1658342678 1789747521 1065701637 -392391598 -1353314342 -520676434 886889824 114723227 -1453729978 -930326404 653836297 -2070923799 366877796 1084140462 -1505132519 -259651705 -1153711670 1226973950 -1285873734 -999996767 -2008065456 385749748 -274668645 849505037 -1364088527 -1325080636 1183534044 407771216 447664321 -946166530 1425493322 1405624484 -952722832
REM
CELL 1.54180   50.00000   50.00000   50.00000   90.00000   90.00000   90.00000
LATT -1
SFAC C  
C      1  0.5511410000000  0.4748920000000  0.5237480000000 1.0
C      1  0.5496070000000  0.4655210000000  0.4937640000000 1.0
C      1  0.5497260000000  0.4819760000000  0.4676580000000 1.0
C      1  0.5505220000000  0.5132510000000  0.4652720000000 1.0
C      1  0.5508020000000  0.5347460000000  0.4883920000000 1.0
C      1  0.5506000000000  0.5302360000000  0.5194110000000 1.0
C      1  0.5503480000000  0.5037120000000  0.5351230000000 1.0
C      1  0.4677550000000  0.5670600000000  0.5473510000000 1.0
C      1  0.4646180000000  0.5014260000000  0.5760420000000 1.0
C      1  0.4831210000000  0.4256750000000  0.5682100000000 1.0
C      1  0.4668270000000  0.4318040000000  0.4980490000000 1.0
C      1  0.4665500000000  0.4620230000000  0.4267410000000 1.0
C      1  0.4696050000000  0.5354170000000  0.4218750000000 1.0
C      1  0.4698230000000  0.5815580000000  0.4770690000000 1.0
C      1  0.4690120000000  0.4716810000000  0.4872310000000 1.0
C      1  0.4705760000000  0.4889270000000  0.4646000000000 1.0
C      1  0.4720530000000  0.5175010000000  0.4669520000000 1.0
C      1  0.4720520000000  0.5331860000000  0.4916260000000 1.0
C      1  0.4716180000000  0.5246400000000  0.5199860000000 1.0
C      1  0.4696050000000  0.4968100000000  0.5314460000000 1.0
C      1  0.4714570000000  0.4479720000000  0.5234470000000 1.0
C      1  0.5093770000000  0.4444660000000  0.4733630000000 1.0
C      1  0.5127320000000  0.4871720000000  0.4366900000000 1.0
C      1  0.5139120000000  0.5410820000000  0.4513070000000 1.0
C      1  0.5133490000000  0.5618320000000  0.5013710000000 1.0
C      1  0.5123690000000  0.5357470000000  0.5484610000000 1.0
C      1  0.5122050000000  0.4840070000000  0.5591740000000 1.0
C      1  0.5207710000000  0.4418200000000  0.5212660000000 1.0
C      1  0.5398130000000  0.4524940000000  0.5391090000000 1.0
C      1  0.5342070000000  0.4405240000000  0.4900690000000 1.0
C      1  0.5349440000000  0.4701240000000  0.4450880000000 1.0
C      1  0.5367780000000  0.5248540000000  0.4427260000000 1.0
C      1  0.5371700000000  0.5597780000000  0.4840170000000 1.0
C      1  0.5359860000000  0.5487870000000  0.5361580000000 1.0
C      1  0.5350680000000  0.5027750000000  0.5601730000000 1.0
C      1  0.4989400000000  0.4685620000000  0.4874030000000 1.0
C      1  0.5022700000000  0.4912620000000  0.4667910000000 1.0
C      1  0.5031760000000  0.5204610000000  0.4719660000000 1.0
C      1  0.5029690000000  0.5328680000000  0.4985040000000 1.0
C      1  0.5026720000000  0.5190970000000  0.5244110000000 1.0
C      1  0.4999560000000  0.4894480000000  0.5320210000000 1.0
C      1  0.5006010000000  0.4636950000000  0.5166730000000 1.0
C      1  0.4926030000000  0.4236650000000  0.4891250000000 1.0
C      1  0.4943190000000  0.4615600000000  0.4286960000000 1.0
C      1  0.4972240000000  0.5331370000000  0.4240790000000 1.0
C      1  0.4974230000000  0.5792030000000  0.4781430000000 1.0
C      1  0.4953280000000  0.5646750000000  0.5468950000000 1.0
C      1  0.4927540000000  0.5012320000000  0.5771030000000 1.0
C      1  0.5064290000000  0.4369340000000  0.5728910000000 1.0
C      1  0.5222220000000  0.4564140000000  0.5623740000000 1.0
C      1  0.5173580000000  0.4211290000000  0.5034450000000 1.0
C      1  0.5150760000000  0.4483740000000  0.4448980000000 1.0
C      1  0.5181310000000  0.5124360000000  0.4242500000000 1.0
C      1  0.5192400000000  0.5671640000000  0.4628240000000 1.0
C      1  0.5177150000000  0.5695680000000  0.5288840000000 1.0
C      1  0.5156270000000  0.5199040000000  0.5719670000000 1.0
C      1  0.4550140000000  0.5288590000000  0.4449580000000 1.0
C      1  0.4557290000000  0.5583100000000  0.4848750000000 1.0
C      1  0.4544230000000  0.5465930000000  0.5331450000000 1.0
C      1  0.4490010000000  0.5008260000000  0.5533830000000 1.0
C      1  0.4693330000000  0.4311190000000  0.5468020000000 1.0
C      1  0.4485780000000  0.4494920000000  0.4835410000000 1.0
C      1  0.4517070000000  0.4781320000000  0.4432440000000 1.0
C      1  0.4337700000000  0.5387140000000  0.4882080000000 1.0
C      1  0.4316310000000  0.5331210000000  0.5183860000000 1.0
C      1  0.4279600000000  0.5065770000000  0.5300400000000 1.0
C      1  0.4305260000000  0.4831740000000  0.5124510000000 1.0
C      1  0.4276380000000  0.4717810000000  0.4856550000000 1.0
C      1  0.4309150000000  0.4895410000000  0.4620880000000 1.0
C      1  0.4332270000000  0.5199730000000  0.4637210000000 1.0
C      1  0.5822540000000  0.5035760000000  0.5312250000000 1.0
C      1  0.5821260000000  0.4779130000000  0.5207850000000 1.0
C      1  0.5810340000000  0.4685270000000  0.4944810000000 1.0
C      1  0.5812410000000  0.4837100000000  0.4712970000000 1.0
C      1  0.5819450000000  0.5113910000000  0.4692250000000 1.0
C      1  0.5823550000000  0.5305470000000  0.4892760000000 1.0
C      1  0.5823470000000  0.5273080000000  0.5167820000000 1.0
C      1  0.4581090000000  0.4752490000000  0.5161830000000 1.0
END
