TITL C-180245-8973-3 -0.139456920287116 125000 -567.850842240104 0 0 83 (Cs) n - 1
REM
REM in /rds/project/t2_vol4/rds-t2-cs072/BORA/CARBON/from-Arr/AIRSS/Generating-Clusters/GAP-ML-2020/Higher-Symm/SD-CG/HFTN-CG
REM
REM
REM
REM
REM
REM ./C.cell (b20cbc046b6831c77cfcea5457e17084)
REM AIRSS Version 0.9.1 bugfix July 2018 build 013d7b7c2542+ Fri, 06 Jul 2018 19:26:36 +0100
REM compiler GCC version 9.3.0
REM options -cpp -mtune=generic -march=x86-64 -g -O0
REM seed -540158042 1965912057 -275121445 1399028092 -1284849034 1840159214 536080290 -318068404 153969822 -694522012 714463352 -195048586 700360137 -334955556 -2027240158 534856025 -1751513315 1467366515 -1920613545 -1858826610 626572350 1882147101 1884703348 314368055 -178833307 2039346537 1753634178 1296088820 1643435662 -882742918 -583093106 -1040808128 -1471341876
REM
CELL 1.54180   50.00000   50.00000   50.00000   90.00000   90.00000   90.00000
LATT -1
SFAC C  
C      1  0.5565310000000  0.5039380000000  0.4395530000000 1.0
C      1  0.4429710000000  0.5039390000000  0.4395450000000 1.0
C      1  0.5802000000000  0.4961140000000  0.4835500000000 1.0
C      1  0.4192960000000  0.4961160000000  0.4835380000000 1.0
C      1  0.4382180000000  0.5398830000000  0.5466910000000 1.0
C      1  0.5612700000000  0.5398820000000  0.5466990000000 1.0
C      1  0.5266140000000  0.4637860000000  0.5355760000000 1.0
C      1  0.4728740000000  0.4637870000000  0.5355720000000 1.0
C      1  0.4670970000000  0.5736550000000  0.4840380000000 1.0
C      1  0.5324010000000  0.5736540000000  0.4840430000000 1.0
C      1  0.4853540000000  0.5199380000000  0.5877530000000 1.0
C      1  0.5141280000000  0.5199370000000  0.5877550000000 1.0
C      1  0.5144840000000  0.5244080000000  0.4723000000000 1.0
C      1  0.4850140000000  0.5244080000000  0.4722980000000 1.0
C      1  0.4429850000000  0.5106690000000  0.5482790000000 1.0
C      1  0.5565020000000  0.5106670000000  0.5482870000000 1.0
C      1  0.4256590000000  0.4678050000000  0.4825280000000 1.0
C      1  0.5738360000000  0.4678030000000  0.4825390000000 1.0
C      1  0.5422170000000  0.4341510000000  0.4919920000000 1.0
C      1  0.4572760000000  0.4341520000000  0.4919860000000 1.0
C      1  0.4598270000000  0.5874040000000  0.5069430000000 1.0
C      1  0.5396680000000  0.5874030000000  0.5069490000000 1.0
C      1  0.5245980000000  0.4833960000000  0.5126100000000 1.0
C      1  0.4748940000000  0.4833960000000  0.5126060000000 1.0
C      1  0.5137610000000  0.4385980000000  0.5315550000000 1.0
C      1  0.4857270000000  0.4385980000000  0.5315530000000 1.0
C      1  0.5151260000000  0.5100190000000  0.5184650000000 1.0
C      1  0.4843650000000  0.5100200000000  0.5184620000000 1.0
C      1  0.4627250000000  0.5551930000000  0.5499710000000 1.0
C      1  0.5367630000000  0.5551920000000  0.5499770000000 1.0
C      1  0.5760740000000  0.5240860000000  0.5299260000000 1.0
C      1  0.4234160000000  0.5240880000000  0.5299150000000 1.0
C      1  0.4696690000000  0.5715510000000  0.5275000000000 1.0
C      1  0.5298230000000  0.5715510000000  0.5275040000000 1.0
C      1  0.4848940000000  0.5571330000000  0.5041900000000 1.0
C      1  0.5146010000000  0.5571330000000  0.5041920000000 1.0
C      1  0.5142320000000  0.4943360000000  0.4695640000000 1.0
C      1  0.4852660000000  0.4943360000000  0.4695620000000 1.0
C      1  0.4430840000000  0.4626250000000  0.5308340000000 1.0
C      1  0.5564050000000  0.4626240000000  0.5308420000000 1.0
C      1  0.5138910000000  0.4976800000000  0.4220110000000 1.0
C      1  0.4856140000000  0.4976810000000  0.4220090000000 1.0
C      1  0.5666090000000  0.5118160000000  0.4638820000000 1.0
C      1  0.4328900000000  0.5118170000000  0.4638720000000 1.0
C      1  0.4470810000000  0.4760890000000  0.4377940000000 1.0
C      1  0.5524210000000  0.4760880000000  0.4378020000000 1.0
C      1  0.4770690000000  0.4222330000000  0.5086100000000 1.0
C      1  0.5224220000000  0.4222330000000  0.5086130000000 1.0
C      1  0.4853470000000  0.4890150000000  0.5837020000000 1.0
C      1  0.5141350000000  0.4890150000000  0.5837040000000 1.0
C      1  0.5264040000000  0.4786310000000  0.4869200000000 1.0
C      1  0.4730910000000  0.4786310000000  0.4869160000000 1.0
C      1  0.5144290000000  0.4484170000000  0.4446380000000 1.0
C      1  0.4850710000000  0.4484180000000  0.4446350000000 1.0
C      1  0.4616940000000  0.4408400000000  0.4632930000000 1.0
C      1  0.5378030000000  0.4408390000000  0.4632990000000 1.0
C      1  0.5565920000000  0.5319430000000  0.4842230000000 1.0
C      1  0.4429040000000  0.5319440000000  0.4842150000000 1.0
C      1  0.5258290000000  0.5301030000000  0.4986390000000 1.0
C      1  0.4736660000000  0.5301030000000  0.4986350000000 1.0
C      1  0.4740830000000  0.5112830000000  0.5464430000000 1.0
C      1  0.5254050000000  0.5112830000000  0.5464470000000 1.0
C      1  0.4710850000000  0.5396420000000  0.4502700000000 1.0
C      1  0.5284170000000  0.5396410000000  0.4502740000000 1.0
C      1  0.4393490000000  0.4587770000000  0.4583500000000 1.0
C      1  0.5601500000000  0.4587760000000  0.4583590000000 1.0
C      1  0.5154860000000  0.5354030000000  0.5617230000000 1.0
C      1  0.4840000000000  0.5354030000000  0.5617210000000 1.0
C      1  0.5259540000000  0.4708300000000  0.4284750000000 1.0
C      1  0.4735490000000  0.4708310000000  0.4284710000000 1.0
C      1  0.4214230000000  0.5192260000000  0.5020780000000 1.0
C      1  0.5780710000000  0.5192240000000  0.5020890000000 1.0
C      1  0.5625880000000  0.4522560000000  0.5044230000000 1.0
C      1  0.4369040000000  0.4522580000000  0.5044140000000 1.0
C      1  0.5578440000000  0.4820390000000  0.5522090000000 1.0
C      1  0.4416420000000  0.4820400000000  0.5522010000000 1.0
C      1  0.4538840000000  0.5563910000000  0.4660020000000 1.0
C      1  0.5456160000000  0.5563900000000  0.4660080000000 1.0
C      1  0.5280660000000  0.4823050000000  0.5592030000000 1.0
C      1  0.4714180000000  0.4823050000000  0.5591990000000 1.0
C      1  0.5335030000000  0.5186100000000  0.4310990000000 1.0
C      1  0.4660010000000  0.5186110000000  0.4310950000000 1.0
C      1  0.4997460000000  0.4060670000000  0.5013950000000 1.0
END
