TITL C-188678-8343-3 -0.0224368365001803 125000 -368.018547639135 0 0 54 (C1) n - 1
REM
REM in /rds/project/t2_vol4/rds-t2-cs072/BORA/CARBON/from-Arr/AIRSS/Generating-Clusters/GAP-ML-2020/Higher-Symm/SD-CG/HFTN-CG
REM
REM
REM
REM
REM
REM ./C.cell (b20cbc046b6831c77cfcea5457e17084)
REM AIRSS Version 0.9.1 bugfix July 2018 build 013d7b7c2542+ Fri, 06 Jul 2018 19:26:36 +0100
REM compiler GCC version 9.3.0
REM options -cpp -mtune=generic -march=x86-64 -g -O0
REM seed 1968214879 -1716551776 1772853892 815821823 977497520 -901293456 -1063440430 -1769274386 181950332 1458794146 -2055296160 -1625119911 -1347392860 2008870308 -1071037923 -1031078706 627809866 353580784 -25457437 -1701371221 -347979985 -1216829541 -301329728 -1603949740 1849807337 -1485613930 1401582623 -623098009 525793437 -576864534 -1564577658 -459396594 -1652901772
REM
CELL 1.54180   50.00000   50.00000   50.00000   90.00000   90.00000   90.00000
LATT -1
SFAC C  
C      1  0.5120850000000  0.5052880000000  0.4376450000000 1.0
C      1  0.4990950000000  0.4497590000000  0.4951590000000 1.0
C      1  0.4848620000000  0.4993490000000  0.4396630000000 1.0
C      1  0.5269250000000  0.4817720000000  0.4439380000000 1.0
C      1  0.5023310000000  0.4814060000000  0.5619960000000 1.0
C      1  0.4886940000000  0.4794960000000  0.4823790000000 1.0
C      1  0.4845000000000  0.5031870000000  0.5637080000000 1.0
C      1  0.5456060000000  0.4829720000000  0.4661510000000 1.0
C      1  0.5485480000000  0.4757480000000  0.5439450000000 1.0
C      1  0.5189230000000  0.4468360000000  0.4731810000000 1.0
C      1  0.4444300000000  0.4978090000000  0.4601390000000 1.0
C      1  0.5093180000000  0.4599370000000  0.4495630000000 1.0
C      1  0.5116040000000  0.4601470000000  0.5213540000000 1.0
C      1  0.4820900000000  0.4729320000000  0.4526360000000 1.0
C      1  0.4893090000000  0.5346820000000  0.5315540000000 1.0
C      1  0.5184010000000  0.4922750000000  0.5124040000000 1.0
C      1  0.5461760000000  0.5408290000000  0.4447710000000 1.0
C      1  0.5481550000000  0.5318530000000  0.5431810000000 1.0
C      1  0.4369470000000  0.4804070000000  0.4809010000000 1.0
C      1  0.4800220000000  0.4276560000000  0.5043000000000 1.0
C      1  0.5386520000000  0.4528750000000  0.5285950000000 1.0
C      1  0.4925280000000  0.5566100000000  0.5113480000000 1.0
C      1  0.5642590000000  0.4819800000000  0.5200110000000 1.0
C      1  0.4531870000000  0.4710730000000  0.4599850000000 1.0
C      1  0.4644770000000  0.4316870000000  0.5241340000000 1.0
C      1  0.5491870000000  0.5307070000000  0.4699040000000 1.0
C      1  0.4496560000000  0.5147520000000  0.5053960000000 1.0
C      1  0.5553600000000  0.4580870000000  0.5058240000000 1.0
C      1  0.4648050000000  0.5159400000000  0.4502400000000 1.0
C      1  0.5600010000000  0.5053330000000  0.4770000000000 1.0
C      1  0.4938260000000  0.4622620000000  0.5439850000000 1.0
C      1  0.4500390000000  0.4798380000000  0.5346000000000 1.0
C      1  0.4665020000000  0.5658690000000  0.5048650000000 1.0
C      1  0.5119950000000  0.5527850000000  0.4902170000000 1.0
C      1  0.4952250000000  0.5082310000000  0.5158840000000 1.0
C      1  0.5009160000000  0.5265640000000  0.5575620000000 1.0
C      1  0.5289310000000  0.5192200000000  0.5576280000000 1.0
C      1  0.5390720000000  0.5436850000000  0.4939180000000 1.0
C      1  0.4457870000000  0.5516060000000  0.5217920000000 1.0
C      1  0.5522150000000  0.5300520000000  0.5162530000000 1.0
C      1  0.5297810000000  0.4902480000000  0.5589230000000 1.0
C      1  0.4569020000000  0.5552910000000  0.4797870000000 1.0
C      1  0.4768540000000  0.5025320000000  0.4963940000000 1.0
C      1  0.4379460000000  0.5396030000000  0.4953220000000 1.0
C      1  0.4598370000000  0.5033240000000  0.5487390000000 1.0
C      1  0.5454590000000  0.4574520000000  0.4800530000000 1.0
C      1  0.4587510000000  0.5281320000000  0.5327050000000 1.0
C      1  0.4383850000000  0.4885850000000  0.5087630000000 1.0
C      1  0.5642300000000  0.5059400000000  0.5048820000000 1.0
C      1  0.5013460000000  0.5449650000000  0.4647170000000 1.0
C      1  0.4732520000000  0.5410460000000  0.4620500000000 1.0
C      1  0.5161350000000  0.4918010000000  0.4839410000000 1.0
C      1  0.5203190000000  0.5308920000000  0.4476760000000 1.0
C      1  0.4661640000000  0.4566940000000  0.5383380000000 1.0
END
