TITL C-180427-1515-8 92.3192508888601 125000 -512.941799425136 0 0 77 (C1) n - 1
REM
REM in /rds/project/t2_vol4/rds-t2-cs072/BORA/CARBON/from-Arr/AIRSS/Generating-Clusters/GAP-ML-2020/Higher-Symm/SD-CG/HFTN-CG
REM
REM
REM
REM
REM
REM ./C.cell (b20cbc046b6831c77cfcea5457e17084)
REM AIRSS Version 0.9.1 bugfix July 2018 build 013d7b7c2542+ Fri, 06 Jul 2018 19:26:36 +0100
REM compiler GCC version 9.3.0
REM options -cpp -mtune=generic -march=x86-64 -g -O0
REM seed 924245075 -468978996 515724770 289206893 -1381568531 2053060507 -543934041 -1095836132 -1975126148 -2081981343 -1099769884 -1822760187 -1475272051 -2015065170 1781396376 827475916 815853511 -1983517258 1851427290 -1574132621 -769082493 325305457 1619716324 -576344106 -1903395926 -235194754 -460322447 -610937450 -948734233 339962034 -1092917254 512140725 1552797791
REM
CELL 1.54180   50.00000   50.00000   50.00000   90.00000   90.00000   90.00000
LATT -1
SFAC C  
C      1  0.5358720000000  0.5673910000000  0.5121880000000 1.0
C      1  0.5192120000000  0.5664350000000  0.4669550000000 1.0
C      1  0.4710520000000  0.5652260000000  0.4681920000000 1.0
C      1  0.4589130000000  0.5636470000000  0.5157250000000 1.0
C      1  0.4982860000000  0.5632250000000  0.5431820000000 1.0
C      1  0.5400480000000  0.4312840000000  0.5102290000000 1.0
C      1  0.5223050000000  0.4320510000000  0.4666800000000 1.0
C      1  0.4739010000000  0.4308710000000  0.4677830000000 1.0
C      1  0.4630020000000  0.4309730000000  0.5153630000000 1.0
C      1  0.5033170000000  0.4307470000000  0.5404810000000 1.0
C      1  0.4947240000000  0.5270810000000  0.4532120000000 1.0
C      1  0.4580180000000  0.5249920000000  0.4863420000000 1.0
C      1  0.4768550000000  0.5234850000000  0.5351430000000 1.0
C      1  0.5276180000000  0.5275030000000  0.5374720000000 1.0
C      1  0.5395670000000  0.5276350000000  0.4845890000000 1.0
C      1  0.4967270000000  0.4707150000000  0.4572750000000 1.0
C      1  0.4563100000000  0.4695020000000  0.4884360000000 1.0
C      1  0.4776760000000  0.4705520000000  0.5388410000000 1.0
C      1  0.5315650000000  0.4705790000000  0.5368720000000 1.0
C      1  0.5410150000000  0.4731070000000  0.4864700000000 1.0
C      1  0.4919260000000  0.5290510000000  0.4225000000000 1.0
C      1  0.4325940000000  0.5198760000000  0.4718740000000 1.0
C      1  0.4578710000000  0.5302410000000  0.5589760000000 1.0
C      1  0.5461870000000  0.5180330000000  0.5570450000000 1.0
C      1  0.5648910000000  0.5190250000000  0.4753360000000 1.0
C      1  0.4983320000000  0.4802690000000  0.4297070000000 1.0
C      1  0.4271600000000  0.4724340000000  0.4889200000000 1.0
C      1  0.4645780000000  0.4796320000000  0.5627520000000 1.0
C      1  0.5470910000000  0.4686720000000  0.5635780000000 1.0
C      1  0.5673810000000  0.4694940000000  0.4700550000000 1.0
C      1  0.4108180000000  0.5079060000000  0.4862410000000 1.0
C      1  0.4697950000000  0.5214930000000  0.5828110000000 1.0
C      1  0.5702870000000  0.5030300000000  0.5477170000000 1.0
C      1  0.5642860000000  0.5099400000000  0.4479390000000 1.0
C      1  0.4691210000000  0.5133720000000  0.4122880000000 1.0
C      1  0.4165260000000  0.4917360000000  0.5092970000000 1.0
C      1  0.4799040000000  0.4958930000000  0.5826780000000 1.0
C      1  0.5722540000000  0.4797740000000  0.5624830000000 1.0
C      1  0.5664670000000  0.4823280000000  0.4438900000000 1.0
C      1  0.4731840000000  0.4868250000000  0.4176420000000 1.0
C      1  0.5208630000000  0.4957860000000  0.4185010000000 1.0
C      1  0.4154490000000  0.4846560000000  0.4651270000000 1.0
C      1  0.4380670000000  0.4884210000000  0.5582930000000 1.0
C      1  0.5328480000000  0.4808120000000  0.5865420000000 1.0
C      1  0.5901000000000  0.4799380000000  0.4821260000000 1.0
C      1  0.5122630000000  0.5196170000000  0.4067380000000 1.0
C      1  0.4308720000000  0.5007960000000  0.4477480000000 1.0
C      1  0.4332910000000  0.5157870000000  0.5551330000000 1.0
C      1  0.5318120000000  0.5079420000000  0.5800670000000 1.0
C      1  0.5826310000000  0.5034260000000  0.4944770000000 1.0
C      1  0.4706840000000  0.4826770000000  0.5098620000000 1.0
C      1  0.5050620000000  0.4834610000000  0.5351530000000 1.0
C      1  0.5448840000000  0.4869980000000  0.5137320000000 1.0
C      1  0.5152540000000  0.4837400000000  0.4764450000000 1.0
C      1  0.4714620000000  0.4827230000000  0.4669560000000 1.0
C      1  0.4715280000000  0.5119000000000  0.5093440000000 1.0
C      1  0.5021460000000  0.5129370000000  0.5431520000000 1.0
C      1  0.5315270000000  0.5146700000000  0.5111550000000 1.0
C      1  0.5133380000000  0.5139480000000  0.4721130000000 1.0
C      1  0.4730770000000  0.5121570000000  0.4650630000000 1.0
C      1  0.5269470000000  0.4407460000000  0.5317620000000 1.0
C      1  0.5380930000000  0.4427820000000  0.4858800000000 1.0
C      1  0.4978650000000  0.4410640000000  0.4602380000000 1.0
C      1  0.4614040000000  0.4399870000000  0.4898930000000 1.0
C      1  0.4792630000000  0.4411340000000  0.5345270000000 1.0
C      1  0.5226820000000  0.5570970000000  0.5335640000000 1.0
C      1  0.5340670000000  0.5567460000000  0.4872550000000 1.0
C      1  0.4952370000000  0.5563100000000  0.4599690000000 1.0
C      1  0.4594000000000  0.5547870000000  0.4902630000000 1.0
C      1  0.4739080000000  0.5528720000000  0.5363240000000 1.0
C      1  0.5452110000000  0.4970620000000  0.4321380000000 1.0
C      1  0.5718410000000  0.4977620000000  0.5198900000000 1.0
C      1  0.5078450000000  0.4941880000000  0.5856760000000 1.0
C      1  0.4481440000000  0.4980770000000  0.4256370000000 1.0
C      1  0.4239540000000  0.4966200000000  0.5353780000000 1.0
C      1  0.5002650000000  0.4839520000000  0.5049260000000 1.0
C      1  0.5027640000000  0.5131400000000  0.5000970000000 1.0
END
