TITL C-187018-8609-4 1643.89118284147 125000 -233.894828286253 0 0 35 (C7v) n - 1
REM
REM in /rds/project/t2_vol4/rds-t2-cs072/BORA/CARBON/from-Arr/AIRSS/Generating-Clusters/GAP-ML-2020/Higher-Symm/SD-CG/HFTN-CG
REM
REM
REM
REM
REM
REM ./C.cell (b20cbc046b6831c77cfcea5457e17084)
REM AIRSS Version 0.9.1 bugfix July 2018 build 013d7b7c2542+ Fri, 06 Jul 2018 19:26:36 +0100
REM compiler GCC version 9.3.0
REM options -cpp -mtune=generic -march=x86-64 -g -O0
REM seed -539174289 -752552000 2018339276 -443233172 436527717 -585457068 2055876656 1727225925 -436493271 119578612 -1306054792 -15358722 938911976 -1459262425 964573043 279523728 -1057998708 -1263540102 335278560 -1254362807 -960175686 647054295 1895963914 -1336142034 645629691 -644128624 1752854249 1315069959 -200332677 1112007255 -1931315932 -1478093400 -862227239
REM
CELL 1.54180   50.00000   50.00000   50.00000   90.00000   90.00000   90.00000
LATT -1
SFAC C  
C      1  0.5163160000000  0.4504240000000  0.5276160000000 1.0
C      1  0.4884750000000  0.4505070000000  0.5300710000000 1.0
C      1  0.4691980000000  0.4505920000000  0.5098340000000 1.0
C      1  0.4730000000000  0.4506160000000  0.4821440000000 1.0
C      1  0.4970190000000  0.4505600000000  0.4678530000000 1.0
C      1  0.5231680000000  0.4504670000000  0.4777220000000 1.0
C      1  0.5317550000000  0.4504060000000  0.5043190000000 1.0
C      1  0.5317210000000  0.5419910000000  0.4898520000000 1.0
C      1  0.5278030000000  0.5419670000000  0.5183950000000 1.0
C      1  0.5030460000000  0.5420260000000  0.5331280000000 1.0
C      1  0.4760930000000  0.5421200000000  0.5229530000000 1.0
C      1  0.4672420000000  0.5421810000000  0.4955370000000 1.0
C      1  0.4831550000000  0.5421640000000  0.4715210000000 1.0
C      1  0.5118520000000  0.5420790000000  0.4689910000000 1.0
C      1  0.4701040000000  0.4813840000000  0.4802010000000 1.0
C      1  0.4967990000000  0.4813220000000  0.4643180000000 1.0
C      1  0.5258610000000  0.4812190000000  0.4752860000000 1.0
C      1  0.5354050000000  0.4811520000000  0.5048460000000 1.0
C      1  0.5182460000000  0.4811710000000  0.5307390000000 1.0
C      1  0.4873030000000  0.4812630000000  0.5334670000000 1.0
C      1  0.4658780000000  0.4813580000000  0.5109750000000 1.0
C      1  0.5192950000000  0.5212240000000  0.4490740000000 1.0
C      1  0.5518890000000  0.5210810000000  0.4832930000000 1.0
C      1  0.5454600000000  0.5210400000000  0.5301120000000 1.0
C      1  0.5048480000000  0.5211340000000  0.5542780000000 1.0
C      1  0.4606340000000  0.5212920000000  0.5375900000000 1.0
C      1  0.4461140000000  0.5213940000000  0.4926180000000 1.0
C      1  0.4722190000000  0.5213630000000  0.4532240000000 1.0
C      1  0.4807200000000  0.5049230000000  0.5511340000000 1.0
C      1  0.4480130000000  0.5050680000000  0.5167980000000 1.0
C      1  0.4544640000000  0.5051080000000  0.4698180000000 1.0
C      1  0.4952160000000  0.5050130000000  0.4455700000000 1.0
C      1  0.5395820000000  0.5048550000000  0.4623140000000 1.0
C      1  0.5541520000000  0.5047540000000  0.5074410000000 1.0
C      1  0.5279570000000  0.5047830000000  0.5469690000000 1.0
END
