TITL C-180432-1477-4 -0.115072975701214 125000 -710.641540466107 0 0 101 (Cs) n - 1
REM
REM in /rds/project/t2_vol4/rds-t2-cs072/BORA/CARBON/from-Arr/AIRSS/Generating-Clusters/GAP-ML-2020/Higher-Symm/SD-CG/HFTN-CG
REM
REM
REM
REM
REM
REM ./C.cell (b20cbc046b6831c77cfcea5457e17084)
REM AIRSS Version 0.9.1 bugfix July 2018 build 013d7b7c2542+ Fri, 06 Jul 2018 19:26:36 +0100
REM compiler GCC version 9.3.0
REM options -cpp -mtune=generic -march=x86-64 -g -O0
REM seed 908207548 -966882293 -535409156 -1195618448 -1110073061 -296911234 1794406564 1280093818 167891849 1593230045 1045003044 -1874661922 -772285877 1817354 1876728318 257951094 -424777015 1815535709 -604994193 1610474778 -122149933 -2021880096 -1570315160 1085945665 -235169951 -1830622093 -1394435470 2124546994 -1504743601 -1099084115 -1897748029 321564404 -716638974
REM
CELL 1.54180   50.00000   50.00000   50.00000   90.00000   90.00000   90.00000
LATT -1
SFAC C  
C      1  0.4202490000000  0.5422940000000  0.4854360000000 1.0
C      1  0.5790780000000  0.5437000000000  0.5150030000000 1.0
C      1  0.4202550000000  0.5418710000000  0.5151220000000 1.0
C      1  0.5790300000000  0.5441230000000  0.4853170000000 1.0
C      1  0.4861700000000  0.5073990000000  0.5225550000000 1.0
C      1  0.5140320000000  0.5061340000000  0.4757600000000 1.0
C      1  0.4860900000000  0.5058120000000  0.4757810000000 1.0
C      1  0.5139850000000  0.5077200000000  0.5225340000000 1.0
C      1  0.4387610000000  0.4510530000000  0.4684100000000 1.0
C      1  0.5624470000000  0.4516660000000  0.5310050000000 1.0
C      1  0.4390250000000  0.4502450000000  0.5310980000000 1.0
C      1  0.5625980000000  0.4524790000000  0.4683180000000 1.0
C      1  0.5543310000000  0.4617320000000  0.4420300000000 1.0
C      1  0.4474020000000  0.4581030000000  0.5575130000000 1.0
C      1  0.5539310000000  0.4593300000000  0.5574330000000 1.0
C      1  0.4467730000000  0.4604930000000  0.4421100000000 1.0
C      1  0.4831180000000  0.5550780000000  0.4673200000000 1.0
C      1  0.5158580000000  0.5547740000000  0.5326900000000 1.0
C      1  0.4832300000000  0.5543980000000  0.5327140000000 1.0
C      1  0.5158560000000  0.5554550000000  0.4672950000000 1.0
C      1  0.4301080000000  0.4997380000000  0.4859210000000 1.0
C      1  0.5696630000000  0.5007410000000  0.5138860000000 1.0
C      1  0.4306550000000  0.4991400000000  0.5139900000000 1.0
C      1  0.5701540000000  0.5013510000000  0.4858160000000 1.0
C      1  0.5598760000000  0.5248830000000  0.5267320000000 1.0
C      1  0.4397270000000  0.5242220000000  0.4730580000000 1.0
C      1  0.5599540000000  0.5256070000000  0.4729670000000 1.0
C      1  0.4399030000000  0.5235010000000  0.5268220000000 1.0
C      1  0.4686630000000  0.4962080000000  0.4195380000000 1.0
C      1  0.5311580000000  0.4943080000000  0.5793310000000 1.0
C      1  0.4693960000000  0.4935970000000  0.5793770000000 1.0
C      1  0.5315910000000  0.4969330000000  0.4194910000000 1.0
C      1  0.5564370000000  0.4748770000000  0.5149850000000 1.0
C      1  0.4441340000000  0.4741930000000  0.4843850000000 1.0
C      1  0.5567170000000  0.4754890000000  0.4843010000000 1.0
C      1  0.4444740000000  0.4735870000000  0.5150690000000 1.0
C      1  0.4714270000000  0.4515820000000  0.4306120000000 1.0
C      1  0.5299250000000  0.4492120000000  0.5697860000000 1.0
C      1  0.4716530000000  0.4485410000000  0.5698290000000 1.0
C      1  0.5298730000000  0.4522550000000  0.4305680000000 1.0
C      1  0.5157430000000  0.4270570000000  0.5597570000000 1.0
C      1  0.4862770000000  0.4305960000000  0.4413650000000 1.0
C      1  0.5155250000000  0.4309330000000  0.4413430000000 1.0
C      1  0.4863270000000  0.4267180000000  0.5597790000000 1.0
C      1  0.5130000000000  0.6031730000000  0.4860020000000 1.0
C      1  0.4849290000000  0.6026460000000  0.5156650000000 1.0
C      1  0.5130220000000  0.6029690000000  0.5156440000000 1.0
C      1  0.4849020000000  0.6028490000000  0.4860230000000 1.0
C      1  0.4854650000000  0.5415410000000  0.5612920000000 1.0
C      1  0.5139460000000  0.5437890000000  0.4383140000000 1.0
C      1  0.4852520000000  0.5434580000000  0.4383350000000 1.0
C      1  0.5139620000000  0.5418690000000  0.5612710000000 1.0
C      1  0.5237920000000  0.4805240000000  0.5144570000000 1.0
C      1  0.4750020000000  0.4809160000000  0.4843390000000 1.0
C      1  0.5257030000000  0.4815000000000  0.4843010000000 1.0
C      1  0.4769800000000  0.4799840000000  0.5144920000000 1.0
C      1  0.4862530000000  0.4101540000000  0.5354460000000 1.0
C      1  0.5158960000000  0.4138060000000  0.4649120000000 1.0
C      1  0.4863360000000  0.4134660000000  0.4649340000000 1.0
C      1  0.5161620000000  0.4104990000000  0.5354230000000 1.0
C      1  0.5770920000000  0.5721670000000  0.4845240000000 1.0
C      1  0.4216380000000  0.5699460000000  0.5165520000000 1.0
C      1  0.5770510000000  0.5717360000000  0.5164360000000 1.0
C      1  0.4215390000000  0.5703760000000  0.4846410000000 1.0
C      1  0.5279470000000  0.5823290000000  0.5280830000000 1.0
C      1  0.4704260000000  0.5821330000000  0.4731310000000 1.0
C      1  0.5279300000000  0.5827950000000  0.4730880000000 1.0
C      1  0.4705030000000  0.5816670000000  0.5281270000000 1.0
C      1  0.5552460000000  0.4875880000000  0.5639980000000 1.0
C      1  0.4443390000000  0.4886460000000  0.4347210000000 1.0
C      1  0.5561050000000  0.4899330000000  0.4346370000000 1.0
C      1  0.4454460000000  0.4863240000000  0.5640800000000 1.0
C      1  0.4434760000000  0.5137880000000  0.5545660000000 1.0
C      1  0.5569960000000  0.5172720000000  0.4447520000000 1.0
C      1  0.4428340000000  0.5159570000000  0.4448370000000 1.0
C      1  0.5565690000000  0.5150900000000  0.5544810000000 1.0
C      1  0.4670020000000  0.4107310000000  0.4849420000000 1.0
C      1  0.5355580000000  0.4102340000000  0.5148070000000 1.0
C      1  0.4668370000000  0.4094430000000  0.5148590000000 1.0
C      1  0.5353190000000  0.4115170000000  0.4848900000000 1.0
C      1  0.5289590000000  0.5322560000000  0.5150100000000 1.0
C      1  0.4706210000000  0.5314760000000  0.4842790000000 1.0
C      1  0.5289180000000  0.5321480000000  0.4842350000000 1.0
C      1  0.4706240000000  0.5315840000000  0.5150540000000 1.0
C      1  0.5531470000000  0.5865940000000  0.4854970000000 1.0
C      1  0.4452160000000  0.5848720000000  0.5158280000000 1.0
C      1  0.5531340000000  0.5861150000000  0.5157470000000 1.0
C      1  0.4451460000000  0.5853510000000  0.4855780000000 1.0
C      1  0.4441430000000  0.4285750000000  0.4848340000000 1.0
C      1  0.5579460000000  0.4291290000000  0.5147180000000 1.0
C      1  0.4440200000000  0.4278170000000  0.5148030000000 1.0
C      1  0.5577610000000  0.4298830000000  0.4847490000000 1.0
C      1  0.5330510000000  0.5248980000000  0.4293410000000 1.0
C      1  0.4671960000000  0.5217300000000  0.5700000000000 1.0
C      1  0.5326950000000  0.5224840000000  0.5699510000000 1.0
C      1  0.4665750000000  0.5241320000000  0.4293910000000 1.0
C      1  0.4861290000000  0.4734180000000  0.4189660000000 1.0
C      1  0.5147590000000  0.4708650000000  0.5811460000000 1.0
C      1  0.4863330000000  0.4705380000000  0.5811680000000 1.0
C      1  0.5146540000000  0.4737460000000  0.4189450000000 1.0
C      1  0.5005720000000  0.4645480000000  0.5204630000000 1.0
END
