TITL C-187004-1046-86 -11.4913508344432 125000 -867.421202676922 0 0 126 (C1) n - 1
REM
REM in /rds/project/t2_vol4/rds-t2-cs072/BORA/CARBON/from-Arr/AIRSS/Generating-Clusters/GAP-ML-2020/Higher-Symm/SD-CG/HFTN-CG
REM
REM
REM
REM
REM
REM ./C.cell (b20cbc046b6831c77cfcea5457e17084)
REM AIRSS Version 0.9.1 bugfix July 2018 build 013d7b7c2542+ Fri, 06 Jul 2018 19:26:36 +0100
REM compiler GCC version 9.3.0
REM options -cpp -mtune=generic -march=x86-64 -g -O0
REM seed 331121322 -50521827 -1343443379 -1305003837 211311645 717443150 1388582678 1360368569 396909405 1936484287 -402874574 -743673119 -1565760802 -1774247253 -1288887248 -128581511 -46067853 -1716289968 -507175608 1715792995 319561448 -1214395727 -346346273 825695914 136947733 1933069252 -1595470643 -1141187629 86400837 1319462145 604971154 1386020469 1790905331
REM
CELL 1.54180   50.00000   50.00000   50.00000   90.00000   90.00000   90.00000
LATT -1
SFAC C  
C      1  0.4578780000000  0.5927030000000  0.5080440000000 1.0
C      1  0.5259410000000  0.6051950000000  0.5003000000000 1.0
C      1  0.5873460000000  0.5716680000000  0.5070230000000 1.0
C      1  0.6050290000000  0.4891740000000  0.5044320000000 1.0
C      1  0.5698540000000  0.4215550000000  0.5116980000000 1.0
C      1  0.5005800000000  0.3928440000000  0.5040430000000 1.0
C      1  0.4357060000000  0.4126460000000  0.5011980000000 1.0
C      1  0.4041560000000  0.4763660000000  0.5065550000000 1.0
C      1  0.4115540000000  0.5442470000000  0.5035580000000 1.0
C      1  0.5435560000000  0.5082660000000  0.4098520000000 1.0
C      1  0.5392500000000  0.4807580000000  0.4098400000000 1.0
C      1  0.5180430000000  0.4604940000000  0.4066270000000 1.0
C      1  0.4903310000000  0.4595510000000  0.4028450000000 1.0
C      1  0.4673250000000  0.4777430000000  0.4016160000000 1.0
C      1  0.4610970000000  0.5056550000000  0.4018750000000 1.0
C      1  0.4753720000000  0.5304710000000  0.4022890000000 1.0
C      1  0.5023460000000  0.5419240000000  0.4037810000000 1.0
C      1  0.5289190000000  0.5337090000000  0.4074090000000 1.0
C      1  0.5767130000000  0.5268070000000  0.5195310000000 1.0
C      1  0.5598700000000  0.4622140000000  0.5308560000000 1.0
C      1  0.5194980000000  0.4238100000000  0.5348690000000 1.0
C      1  0.4626170000000  0.4279440000000  0.5426080000000 1.0
C      1  0.4382590000000  0.4652750000000  0.5420790000000 1.0
C      1  0.4333650000000  0.5159740000000  0.5436820000000 1.0
C      1  0.4509260000000  0.5531830000000  0.5380440000000 1.0
C      1  0.5042220000000  0.5796930000000  0.5432510000000 1.0
C      1  0.5442270000000  0.5712440000000  0.5346470000000 1.0
C      1  0.4517810000000  0.4591010000000  0.4190930000000 1.0
C      1  0.4462110000000  0.5075100000000  0.4260740000000 1.0
C      1  0.4650240000000  0.5526720000000  0.4197780000000 1.0
C      1  0.4913410000000  0.5630190000000  0.4217950000000 1.0
C      1  0.5479390000000  0.5459550000000  0.4267160000000 1.0
C      1  0.5620990000000  0.5209870000000  0.4285860000000 1.0
C      1  0.5525770000000  0.4630090000000  0.4288310000000 1.0
C      1  0.5320990000000  0.4430630000000  0.4259430000000 1.0
C      1  0.4744760000000  0.4419970000000  0.4210530000000 1.0
C      1  0.4968930000000  0.5706900000000  0.4492730000000 1.0
C      1  0.5443510000000  0.5554880000000  0.4542260000000 1.0
C      1  0.5673210000000  0.5145190000000  0.4568290000000 1.0
C      1  0.5596460000000  0.4663100000000  0.4570840000000 1.0
C      1  0.5260280000000  0.4338740000000  0.4533060000000 1.0
C      1  0.4774980000000  0.4326320000000  0.4485890000000 1.0
C      1  0.4417830000000  0.4628260000000  0.4472550000000 1.0
C      1  0.4256290000000  0.5097360000000  0.4446670000000 1.0
C      1  0.4542650000000  0.5517720000000  0.4475960000000 1.0
C      1  0.5194120000000  0.5376550000000  0.4958550000000 1.0
C      1  0.5328340000000  0.5106160000000  0.4990830000000 1.0
C      1  0.5256690000000  0.4824930000000  0.4996810000000 1.0
C      1  0.5052060000000  0.4591370000000  0.4950070000000 1.0
C      1  0.4775430000000  0.4595750000000  0.5009120000000 1.0
C      1  0.4640930000000  0.4806000000000  0.4891000000000 1.0
C      1  0.4645560000000  0.5052380000000  0.5020260000000 1.0
C      1  0.4735980000000  0.5281520000000  0.4897670000000 1.0
C      1  0.4927260000000  0.5429030000000  0.5039090000000 1.0
C      1  0.4744740000000  0.5289830000000  0.4602940000000 1.0
C      1  0.4991990000000  0.5415100000000  0.4536270000000 1.0
C      1  0.5239290000000  0.5350780000000  0.4652940000000 1.0
C      1  0.5383120000000  0.5090110000000  0.4677080000000 1.0
C      1  0.5335640000000  0.4801280000000  0.4687950000000 1.0
C      1  0.5124770000000  0.4596110000000  0.4653840000000 1.0
C      1  0.4871850000000  0.4603190000000  0.4529090000000 1.0
C      1  0.4665130000000  0.4789970000000  0.4596200000000 1.0
C      1  0.4666730000000  0.5046790000000  0.4473520000000 1.0
C      1  0.4451870000000  0.5051520000000  0.5959310000000 1.0
C      1  0.4729220000000  0.5492730000000  0.5949840000000 1.0
C      1  0.4991910000000  0.5574820000000  0.5917470000000 1.0
C      1  0.5462320000000  0.5380710000000  0.5842730000000 1.0
C      1  0.5597560000000  0.5138740000000  0.5789850000000 1.0
C      1  0.5506040000000  0.4656530000000  0.5788820000000 1.0
C      1  0.5111000000000  0.4363860000000  0.5890410000000 1.0
C      1  0.4832400000000  0.4402500000000  0.5913560000000 1.0
C      1  0.4483420000000  0.4771980000000  0.5957160000000 1.0
C      1  0.5331540000000  0.4687820000000  0.5240070000000 1.0
C      1  0.5110140000000  0.4501160000000  0.5255520000000 1.0
C      1  0.4802390000000  0.4555440000000  0.5300480000000 1.0
C      1  0.4653880000000  0.4788280000000  0.5406100000000 1.0
C      1  0.4633360000000  0.5072760000000  0.5319250000000 1.0
C      1  0.4760320000000  0.5346570000000  0.5383260000000 1.0
C      1  0.5008610000000  0.5484620000000  0.5325350000000 1.0
C      1  0.5311620000000  0.5454150000000  0.5248970000000 1.0
C      1  0.5474820000000  0.5220880000000  0.5214060000000 1.0
C      1  0.5796850000000  0.5449660000000  0.5426360000000 1.0
C      1  0.5748810000000  0.4831230000000  0.5424120000000 1.0
C      1  0.5415830000000  0.4264160000000  0.5527840000000 1.0
C      1  0.4847150000000  0.4100020000000  0.5510140000000 1.0
C      1  0.4469710000000  0.4446150000000  0.5609660000000 1.0
C      1  0.4195300000000  0.4925120000000  0.5532440000000 1.0
C      1  0.4417150000000  0.5369990000000  0.5631060000000 1.0
C      1  0.4786410000000  0.5862710000000  0.5541140000000 1.0
C      1  0.5281620000000  0.5735590000000  0.5603980000000 1.0
C      1  0.4270150000000  0.5390940000000  0.5253260000000 1.0
C      1  0.4581670000000  0.5818680000000  0.5333650000000 1.0
C      1  0.5241790000000  0.5909750000000  0.5232230000000 1.0
C      1  0.5741660000000  0.5706900000000  0.5316760000000 1.0
C      1  0.5899290000000  0.5002830000000  0.5249040000000 1.0
C      1  0.5625520000000  0.4335760000000  0.5349480000000 1.0
C      1  0.5023980000000  0.4016830000000  0.5298630000000 1.0
C      1  0.4444320000000  0.4141510000000  0.5249190000000 1.0
C      1  0.4122880000000  0.4734390000000  0.5322850000000 1.0
C      1  0.5252290000000  0.5804360000000  0.4569110000000 1.0
C      1  0.5698620000000  0.5432040000000  0.4684150000000 1.0
C      1  0.5809550000000  0.4873380000000  0.4620690000000 1.0
C      1  0.5545570000000  0.4368190000000  0.4656990000000 1.0
C      1  0.5017690000000  0.4152000000000  0.4578240000000 1.0
C      1  0.4480260000000  0.4348100000000  0.4575830000000 1.0
C      1  0.4188580000000  0.4828920000000  0.4565240000000 1.0
C      1  0.4265020000000  0.5377640000000  0.4550110000000 1.0
C      1  0.4678820000000  0.5764510000000  0.4599260000000 1.0
C      1  0.5255960000000  0.5572970000000  0.5828970000000 1.0
C      1  0.5679220000000  0.5368780000000  0.5659970000000 1.0
C      1  0.5636370000000  0.4872610000000  0.5693350000000 1.0
C      1  0.5370710000000  0.4427040000000  0.5771930000000 1.0
C      1  0.4935340000000  0.4181420000000  0.5764590000000 1.0
C      1  0.4593260000000  0.4532250000000  0.5851110000000 1.0
C      1  0.4275360000000  0.4893320000000  0.5807420000000 1.0
C      1  0.4520290000000  0.5314060000000  0.5882270000000 1.0
C      1  0.4786410000000  0.5719180000000  0.5785380000000 1.0
C      1  0.5671910000000  0.4229850000000  0.4859990000000 1.0
C      1  0.5017900000000  0.3974230000000  0.4787130000000 1.0
C      1  0.4357130000000  0.4193240000000  0.4757670000000 1.0
C      1  0.4060150000000  0.4788340000000  0.4806940000000 1.0
C      1  0.4130110000000  0.5440930000000  0.4776480000000 1.0
C      1  0.4603470000000  0.5915460000000  0.4819220000000 1.0
C      1  0.5279140000000  0.6002990000000  0.4749630000000 1.0
C      1  0.5819210000000  0.5484820000000  0.4933010000000 1.0
C      1  0.6020130000000  0.4842510000000  0.4795640000000 1.0
END
