TITL C-183212-7337-4 16.125151065114 125000 -559.205321653472 0 0 81 (C1) n - 1
REM
REM in /rds/project/t2_vol4/rds-t2-cs072/BORA/CARBON/from-Arr/AIRSS/Generating-Clusters/GAP-ML-2020/Higher-Symm/SD-CG/HFTN-CG
REM
REM
REM
REM
REM
REM ./C.cell (b20cbc046b6831c77cfcea5457e17084)
REM AIRSS Version 0.9.1 bugfix July 2018 build 013d7b7c2542+ Fri, 06 Jul 2018 19:26:36 +0100
REM compiler GCC version 9.3.0
REM options -cpp -mtune=generic -march=x86-64 -g -O0
REM seed -1788404070 788358365 -1983806450 245883404 -1147882612 1592777064 -21769891 90844974 1696038074 -633663777 -94770847 1011682213 -808679923 -1634995003 -506659530 1425140636 -1317613417 2139380166 173761304 1848228105 814548570 -1411094507 -759034511 -1404735725 739248837 912193230 239153699 1816163695 1174754584 352063590 -1986233251 -223293669 16061735
REM
CELL 1.54180   50.00000   50.00000   50.00000   90.00000   90.00000   90.00000
LATT -1
SFAC C  
C      1  0.5332880000000  0.4938080000000  0.4860800000000 1.0
C      1  0.5138860000000  0.4938170000000  0.5276490000000 1.0
C      1  0.4701590000000  0.4934110000000  0.5088090000000 1.0
C      1  0.4864720000000  0.4934570000000  0.4666550000000 1.0
C      1  0.4660140000000  0.5057060000000  0.4836130000000 1.0
C      1  0.4884130000000  0.5080760000000  0.5286530000000 1.0
C      1  0.5346210000000  0.5061600000000  0.5120720000000 1.0
C      1  0.5095400000000  0.5066520000000  0.4760610000000 1.0
C      1  0.4431460000000  0.5272340000000  0.5540310000000 1.0
C      1  0.4459250000000  0.5271300000000  0.4423260000000 1.0
C      1  0.5585120000000  0.5272660000000  0.4455390000000 1.0
C      1  0.5553560000000  0.5273570000000  0.5574170000000 1.0
C      1  0.5584860000000  0.4730300000000  0.5540570000000 1.0
C      1  0.5550390000000  0.4729120000000  0.4423570000000 1.0
C      1  0.4426060000000  0.4729790000000  0.4452290000000 1.0
C      1  0.4462120000000  0.4731150000000  0.5571350000000 1.0
C      1  0.5751100000000  0.5307990000000  0.4840920000000 1.0
C      1  0.5165260000000  0.5311110000000  0.5739900000000 1.0
C      1  0.4258740000000  0.5312440000000  0.5156640000000 1.0
C      1  0.4847610000000  0.5307040000000  0.4257960000000 1.0
C      1  0.4258000000000  0.4690910000000  0.4838180000000 1.0
C      1  0.4849990000000  0.4693400000000  0.5736590000000 1.0
C      1  0.5752700000000  0.4692140000000  0.5155220000000 1.0
C      1  0.5161870000000  0.4693450000000  0.4255830000000 1.0
C      1  0.5101680000000  0.4638260000000  0.5352970000000 1.0
C      1  0.4643490000000  0.4633540000000  0.5084540000000 1.0
C      1  0.4908150000000  0.4630300000000  0.4633840000000 1.0
C      1  0.5368590000000  0.4633260000000  0.4901050000000 1.0
C      1  0.4912570000000  0.5373380000000  0.5356450000000 1.0
C      1  0.5370250000000  0.5369310000000  0.5092010000000 1.0
C      1  0.5092310000000  0.5361120000000  0.4652590000000 1.0
C      1  0.4635750000000  0.5372720000000  0.4898350000000 1.0
C      1  0.5721960000000  0.4819380000000  0.4633110000000 1.0
C      1  0.5371250000000  0.4823000000000  0.5704460000000 1.0
C      1  0.4296180000000  0.4823160000000  0.5359580000000 1.0
C      1  0.4636480000000  0.4819600000000  0.4281010000000 1.0
C      1  0.4286500000000  0.5181150000000  0.4633080000000 1.0
C      1  0.4643210000000  0.5180700000000  0.5706710000000 1.0
C      1  0.5723150000000  0.5181770000000  0.5364180000000 1.0
C      1  0.5365480000000  0.5178500000000  0.4300310000000 1.0
C      1  0.4675750000000  0.5461380000000  0.4436020000000 1.0
C      1  0.5569270000000  0.5462130000000  0.4673210000000 1.0
C      1  0.5335560000000  0.5463440000000  0.5560180000000 1.0
C      1  0.4443120000000  0.5462130000000  0.5324260000000 1.0
C      1  0.5332620000000  0.4539990000000  0.4434540000000 1.0
C      1  0.4439770000000  0.4538890000000  0.4668310000000 1.0
C      1  0.4680570000000  0.4544320000000  0.5554280000000 1.0
C      1  0.5570720000000  0.4540020000000  0.5323620000000 1.0
C      1  0.5122360000000  0.4680930000000  0.5650980000000 1.0
C      1  0.4343990000000  0.4678520000000  0.5111330000000 1.0
C      1  0.4888530000000  0.4679340000000  0.4336710000000 1.0
C      1  0.5669840000000  0.4675450000000  0.4882450000000 1.0
C      1  0.4891690000000  0.5325110000000  0.5655480000000 1.0
C      1  0.5669280000000  0.5323950000000  0.5113590000000 1.0
C      1  0.5118390000000  0.5316430000000  0.4352240000000 1.0
C      1  0.4337430000000  0.5327480000000  0.4882950000000 1.0
C      1  0.4831030000000  0.5776150000000  0.5105330000000 1.0
C      1  0.4896790000000  0.5775460000000  0.4822370000000 1.0
C      1  0.5181110000000  0.5773110000000  0.4888040000000 1.0
C      1  0.5115510000000  0.5776180000000  0.5171130000000 1.0
C      1  0.5180990000000  0.4229380000000  0.5105980000000 1.0
C      1  0.5113610000000  0.4228650000000  0.4822740000000 1.0
C      1  0.4830760000000  0.4227160000000  0.4887520000000 1.0
C      1  0.4897300000000  0.4230160000000  0.5171160000000 1.0
C      1  0.5316010000000  0.4495430000000  0.5183760000000 1.0
C      1  0.4819330000000  0.4502400000000  0.5299420000000 1.0
C      1  0.4695140000000  0.4492640000000  0.4806920000000 1.0
C      1  0.5191780000000  0.4497790000000  0.4688430000000 1.0
C      1  0.4696060000000  0.5507700000000  0.5182930000000 1.0
C      1  0.5195860000000  0.5507260000000  0.5305530000000 1.0
C      1  0.5313480000000  0.5504050000000  0.4813190000000 1.0
C      1  0.4813420000000  0.5508570000000  0.4691070000000 1.0
C      1  0.5763830000000  0.5104440000000  0.4621000000000 1.0
C      1  0.5386800000000  0.5106660000000  0.5751570000000 1.0
C      1  0.4250140000000  0.5107070000000  0.5376800000000 1.0
C      1  0.4623860000000  0.5104570000000  0.4244660000000 1.0
C      1  0.4243670000000  0.4895290000000  0.4617420000000 1.0
C      1  0.4628730000000  0.4896530000000  0.5749720000000 1.0
C      1  0.5766540000000  0.4896280000000  0.5377590000000 1.0
C      1  0.5383990000000  0.4896890000000  0.4247540000000 1.0
C      1  0.4984050000000  0.4998950000000  0.5029010000000 1.0
END
