TITL C-183200-6603-9 -53.2175697748238 125000 -500.733647999455 0 0 69 (C1) n - 1
REM
REM in /rds/project/t2_vol4/rds-t2-cs072/BORA/CARBON/from-Arr/AIRSS/Generating-Clusters/GAP-ML-2020/Higher-Symm/SD-CG/HFTN-CG
REM
REM
REM
REM
REM
REM ./C.cell (b20cbc046b6831c77cfcea5457e17084)
REM AIRSS Version 0.9.1 bugfix July 2018 build 013d7b7c2542+ Fri, 06 Jul 2018 19:26:36 +0100
REM compiler GCC version 9.3.0
REM options -cpp -mtune=generic -march=x86-64 -g -O0
REM seed -1772468108 1669083910 -790648720 284099488 797343251 -1089083720 -1741807267 775170592 -335536628 -10912872 882580064 1058438027 895933362 1909287112 920335277 1150183476 -896899301 1484317856 -1126465598 -180532595 -2015504561 -338183211 1578599668 163008399 -126426499 -468874550 -753964804 -1124139085 -501384894 -417075695 1259592205 -1427447318 -1160365489
REM
CELL 1.54180   50.00000   50.00000   50.00000   90.00000   90.00000   90.00000
LATT -1
SFAC C  
C      1  0.4502370000000  0.4546020000000  0.4862400000000 1.0
C      1  0.4551670000000  0.4849150000000  0.4475710000000 1.0
C      1  0.4870300000000  0.4475300000000  0.4533440000000 1.0
C      1  0.5539380000000  0.4532060000000  0.5134040000000 1.0
C      1  0.5532470000000  0.5461460000000  0.4836890000000 1.0
C      1  0.4485240000000  0.5519470000000  0.5075630000000 1.0
C      1  0.5471860000000  0.4849880000000  0.5508010000000 1.0
C      1  0.5484340000000  0.5134540000000  0.4463810000000 1.0
C      1  0.4497430000000  0.4991540000000  0.5774960000000 1.0
C      1  0.5177670000000  0.4451220000000  0.5455040000000 1.0
C      1  0.5165970000000  0.5509030000000  0.4513290000000 1.0
C      1  0.4831300000000  0.5567100000000  0.5396650000000 1.0
C      1  0.4487300000000  0.5493780000000  0.4792510000000 1.0
C      1  0.4552330000000  0.5136670000000  0.4460010000000 1.0
C      1  0.4878170000000  0.5512880000000  0.4501020000000 1.0
C      1  0.5519010000000  0.5464100000000  0.5124510000000 1.0
C      1  0.5538360000000  0.4530020000000  0.4844050000000 1.0
C      1  0.4507570000000  0.4540520000000  0.5149660000000 1.0
C      1  0.5415370000000  0.5137960000000  0.5475060000000 1.0
C      1  0.5479970000000  0.4845050000000  0.4466730000000 1.0
C      1  0.4557430000000  0.4809650000000  0.5572230000000 1.0
C      1  0.5117140000000  0.5532660000000  0.5435140000000 1.0
C      1  0.5160790000000  0.4471700000000  0.4530780000000 1.0
C      1  0.4889490000000  0.4445030000000  0.5457800000000 1.0
C      1  0.5191220000000  0.5285310000000  0.5587090000000 1.0
C      1  0.5274000000000  0.5599110000000  0.5203840000000 1.0
C      1  0.5599930000000  0.5238320000000  0.5270830000000 1.0
C      1  0.4785980000000  0.5271070000000  0.4375300000000 1.0
C      1  0.4806750000000  0.4666420000000  0.5611340000000 1.0
C      1  0.5250870000000  0.4701910000000  0.4382610000000 1.0
C      1  0.4728840000000  0.5630340000000  0.4705290000000 1.0
C      1  0.4738500000000  0.4381230000000  0.5228840000000 1.0
C      1  0.5305470000000  0.4381160000000  0.4755680000000 1.0
C      1  0.4411220000000  0.5242660000000  0.4685580000000 1.0
C      1  0.4482350000000  0.4807760000000  0.5279130000000 1.0
C      1  0.5620510000000  0.4760620000000  0.4703710000000 1.0
C      1  0.5265590000000  0.4685140000000  0.5599330000000 1.0
C      1  0.5314490000000  0.4373980000000  0.5222920000000 1.0
C      1  0.5613550000000  0.4767620000000  0.5274470000000 1.0
C      1  0.4777530000000  0.4704040000000  0.4384210000000 1.0
C      1  0.4703470000000  0.5157450000000  0.5684950000000 1.0
C      1  0.5252350000000  0.5270640000000  0.4380520000000 1.0
C      1  0.4729670000000  0.4394580000000  0.4765820000000 1.0
C      1  0.4717730000000  0.5672550000000  0.5161350000000 1.0
C      1  0.5305730000000  0.5607040000000  0.4737570000000 1.0
C      1  0.4414420000000  0.4774240000000  0.4720190000000 1.0
C      1  0.4435820000000  0.5301370000000  0.5245950000000 1.0
C      1  0.5622930000000  0.5231300000000  0.4698980000000 1.0
C      1  0.5034210000000  0.4823580000000  0.5690020000000 1.0
C      1  0.5704370000000  0.4999260000000  0.4848680000000 1.0
C      1  0.5015640000000  0.4842340000000  0.4291860000000 1.0
C      1  0.5018710000000  0.5124330000000  0.4295260000000 1.0
C      1  0.4350760000000  0.5045950000000  0.5140800000000 1.0
C      1  0.4336540000000  0.5020720000000  0.4858510000000 1.0
C      1  0.5694940000000  0.5005670000000  0.5131400000000 1.0
C      1  0.4994850000000  0.5104960000000  0.5716300000000 1.0
C      1  0.4872520000000  0.5737310000000  0.4934920000000 1.0
C      1  0.5152890000000  0.5701780000000  0.4960140000000 1.0
C      1  0.5164540000000  0.4287920000000  0.4990370000000 1.0
C      1  0.4879830000000  0.4298670000000  0.4995230000000 1.0
C      1  0.5146470000000  0.5082880000000  0.5249290000000 1.0
C      1  0.4879960000000  0.5257030000000  0.4957030000000 1.0
C      1  0.4770210000000  0.4893350000000  0.5162560000000 1.0
C      1  0.5087900000000  0.4901560000000  0.4881060000000 1.0
C      1  0.5065320000000  0.4803640000000  0.5157910000000 1.0
C      1  0.4805110000000  0.4977160000000  0.4867690000000 1.0
C      1  0.4671800000000  0.5318370000000  0.5440730000000 1.0
C      1  0.5167890000000  0.5171150000000  0.4958820000000 1.0
C      1  0.4848670000000  0.5165940000000  0.5244900000000 1.0
END
