TITL C-180233-8144-2 -0.0885699404178241 125000 -925.658540771314 0 0 135 (C5) n - 1
REM
REM in /rds/project/t2_vol4/rds-t2-cs072/BORA/CARBON/from-Arr/AIRSS/Generating-Clusters/GAP-ML-2020/Higher-Symm/SD-CG/HFTN-CG
REM
REM
REM
REM
REM
REM ./C.cell (b20cbc046b6831c77cfcea5457e17084)
REM AIRSS Version 0.9.1 bugfix July 2018 build 013d7b7c2542+ Fri, 06 Jul 2018 19:26:36 +0100
REM compiler GCC version 9.3.0
REM options -cpp -mtune=generic -march=x86-64 -g -O0
REM seed -1742833921 1385613522 -478506916 803206256 -1481455552 -1787966422 233885955 -1807152997 -26788543 1973667991 -787040073 591700678 -1683637346 2062337248 -220051078 280394556 -2123213996 1999394758 1681313915 1797119944 -29903504 1297273232 -1997667959 423170723 -1566707173 885949087 -549944265 -2078804868 140860192 52390658 1428024369 651718035 75585855
REM
CELL 1.54180   50.00000   50.00000   50.00000   90.00000   90.00000   90.00000
LATT -1
SFAC C  
C      1  0.4909470000000  0.5453730000000  0.4854430000000 1.0
C      1  0.4540540000000  0.5054100000000  0.4854290000000 1.0
C      1  0.4806610000000  0.4579730000000  0.4854280000000 1.0
C      1  0.5339980000000  0.4686190000000  0.4854410000000 1.0
C      1  0.5403550000000  0.5226350000000  0.4854500000000 1.0
C      1  0.4909410000000  0.5453690000000  0.5159660000000 1.0
C      1  0.4540480000000  0.5054050000000  0.5159520000000 1.0
C      1  0.4806550000000  0.4579690000000  0.5159510000000 1.0
C      1  0.5339920000000  0.4686150000000  0.5159640000000 1.0
C      1  0.5403490000000  0.5226310000000  0.5159730000000 1.0
C      1  0.5331510000000  0.5660540000000  0.4548870000000 1.0
C      1  0.4474360000000  0.5519360000000  0.4548660000000 1.0
C      1  0.4343760000000  0.4660530000000  0.4548510000000 1.0
C      1  0.5120200000000  0.4270930000000  0.4548620000000 1.0
C      1  0.5730660000000  0.4888970000000  0.4548840000000 1.0
C      1  0.5331310000000  0.5660410000000  0.5465470000000 1.0
C      1  0.4474170000000  0.5519220000000  0.5465260000000 1.0
C      1  0.4343570000000  0.4660400000000  0.5465110000000 1.0
C      1  0.5120000000000  0.4270800000000  0.5465220000000 1.0
C      1  0.5730460000000  0.4888840000000  0.5465440000000 1.0
C      1  0.5309390000000  0.5863560000000  0.4764020000000 1.0
C      1  0.4274380000000  0.5561080000000  0.4763750000000 1.0
C      1  0.4242230000000  0.4483260000000  0.4763590000000 1.0
C      1  0.5257360000000  0.4119610000000  0.4763750000000 1.0
C      1  0.5916900000000  0.4972680000000  0.4764020000000 1.0
C      1  0.5309290000000  0.5863490000000  0.5250360000000 1.0
C      1  0.4274280000000  0.5561010000000  0.5250100000000 1.0
C      1  0.4242120000000  0.4483180000000  0.5249930000000 1.0
C      1  0.5257250000000  0.4119530000000  0.5250100000000 1.0
C      1  0.5916800000000  0.4972610000000  0.5250360000000 1.0
C      1  0.5081700000000  0.4583950000000  0.5299450000000 1.0
C      1  0.5420850000000  0.4949170000000  0.5299580000000 1.0
C      1  0.5178310000000  0.5384570000000  0.5299590000000 1.0
C      1  0.4689270000000  0.5288450000000  0.5299470000000 1.0
C      1  0.4629560000000  0.4793640000000  0.5299390000000 1.0
C      1  0.5081830000000  0.4584040000000  0.4714460000000 1.0
C      1  0.5420980000000  0.4949250000000  0.4714580000000 1.0
C      1  0.5178440000000  0.5384660000000  0.4714600000000 1.0
C      1  0.4689390000000  0.5288540000000  0.4714480000000 1.0
C      1  0.4629680000000  0.4793730000000  0.4714390000000 1.0
C      1  0.4814650000000  0.5171330000000  0.4463850000000 1.0
C      1  0.4779930000000  0.4876610000000  0.4463800000000 1.0
C      1  0.5049500000000  0.4752520000000  0.4463840000000 1.0
C      1  0.5250820000000  0.4970550000000  0.4463910000000 1.0
C      1  0.5105680000000  0.5229390000000  0.4463920000000 1.0
C      1  0.4814410000000  0.5171170000000  0.5550120000000 1.0
C      1  0.4779700000000  0.4876450000000  0.5550070000000 1.0
C      1  0.5049270000000  0.4752360000000  0.5550110000000 1.0
C      1  0.5250590000000  0.4970390000000  0.5550180000000 1.0
C      1  0.5105440000000  0.5229230000000  0.5550190000000 1.0
C      1  0.5161190000000  0.5402590000000  0.5836540000000 1.0
C      1  0.4666680000000  0.5277790000000  0.5836410000000 1.0
C      1  0.4632560000000  0.4768920000000  0.5836330000000 1.0
C      1  0.5105990000000  0.4579220000000  0.5836410000000 1.0
C      1  0.5432690000000  0.4970860000000  0.5836530000000 1.0
C      1  0.5161540000000  0.5402840000000  0.4177650000000 1.0
C      1  0.4667040000000  0.5278040000000  0.4177520000000 1.0
C      1  0.4632920000000  0.4769170000000  0.4177440000000 1.0
C      1  0.5106340000000  0.4579470000000  0.4177510000000 1.0
C      1  0.5433050000000  0.4971100000000  0.4177640000000 1.0
C      1  0.4436420000000  0.4275990000000  0.4863600000000 1.0
C      1  0.5514460000000  0.4240260000000  0.4863830000000 1.0
C      1  0.5881580000000  0.5254490000000  0.4864050000000 1.0
C      1  0.5030430000000  0.5917060000000  0.4863970000000 1.0
C      1  0.4137270000000  0.5312310000000  0.4863690000000 1.0
C      1  0.4436360000000  0.4275950000000  0.5149940000000 1.0
C      1  0.5514400000000  0.4240220000000  0.5150170000000 1.0
C      1  0.5881510000000  0.5254450000000  0.5150400000000 1.0
C      1  0.5030360000000  0.5917010000000  0.5150310000000 1.0
C      1  0.4137210000000  0.5312270000000  0.5150030000000 1.0
C      1  0.5372210000000  0.4703690000000  0.4104680000000 1.0
C      1  0.5397090000000  0.5262340000000  0.4104770000000 1.0
C      1  0.4873470000000  0.5458630000000  0.4104690000000 1.0
C      1  0.4524980000000  0.5021290000000  0.4104550000000 1.0
C      1  0.4833220000000  0.4554720000000  0.4104550000000 1.0
C      1  0.5371820000000  0.4703420000000  0.5909390000000 1.0
C      1  0.5396700000000  0.5262070000000  0.5909470000000 1.0
C      1  0.4873080000000  0.5458360000000  0.5909390000000 1.0
C      1  0.4524600000000  0.5021030000000  0.5909250000000 1.0
C      1  0.4832830000000  0.4554450000000  0.5909250000000 1.0
C      1  0.5689480000000  0.5045990000000  0.5700350000000 1.0
C      1  0.5169120000000  0.5670010000000  0.5700330000000 1.0
C      1  0.4414840000000  0.5367960000000  0.5700130000000 1.0
C      1  0.4469030000000  0.4557260000000  0.5700020000000 1.0
C      1  0.5256800000000  0.4358270000000  0.5700160000000 1.0
C      1  0.5689770000000  0.5046200000000  0.4313950000000 1.0
C      1  0.5169420000000  0.5670220000000  0.4313930000000 1.0
C      1  0.4415140000000  0.5368160000000  0.4313730000000 1.0
C      1  0.4469320000000  0.4557460000000  0.4313620000000 1.0
C      1  0.5257090000000  0.4358480000000  0.4313760000000 1.0
C      1  0.4697710000000  0.4374350000000  0.4293570000000 1.0
C      1  0.5501820000000  0.4519090000000  0.4293770000000 1.0
C      1  0.5612640000000  0.5328580000000  0.4293910000000 1.0
C      1  0.4877030000000  0.5684120000000  0.4293810000000 1.0
C      1  0.4311560000000  0.5094380000000  0.4293600000000 1.0
C      1  0.4697400000000  0.4374140000000  0.5720110000000 1.0
C      1  0.5501510000000  0.4518880000000  0.5720300000000 1.0
C      1  0.5612340000000  0.5328370000000  0.5720450000000 1.0
C      1  0.4876720000000  0.5683910000000  0.5720340000000 1.0
C      1  0.4311260000000  0.5094170000000  0.5720130000000 1.0
C      1  0.4821630000000  0.4246440000000  0.4508480000000 1.0
C      1  0.5661710000000  0.4597450000000  0.4508710000000 1.0
C      1  0.5587470000000  0.5504870000000  0.4508830000000 1.0
C      1  0.4701520000000  0.5714680000000  0.4508670000000 1.0
C      1  0.4228200000000  0.4936930000000  0.4508450000000 1.0
C      1  0.4821420000000  0.4246290000000  0.5505220000000 1.0
C      1  0.5661490000000  0.4597300000000  0.5505450000000 1.0
C      1  0.5587260000000  0.5504730000000  0.5505570000000 1.0
C      1  0.4701300000000  0.5714540000000  0.5505410000000 1.0
C      1  0.4227990000000  0.4936780000000  0.5505200000000 1.0
C      1  0.5494910000000  0.6081810000000  0.5135780000000 1.0
C      1  0.4124030000000  0.5805000000000  0.5135440000000 1.0
C      1  0.3963680000000  0.4415680000000  0.5135200000000 1.0
C      1  0.5235440000000  0.3833850000000  0.5135390000000 1.0
C      1  0.6181800000000  0.4863570000000  0.5135740000000 1.0
C      1  0.5494960000000  0.6081850000000  0.4878750000000 1.0
C      1  0.4124090000000  0.5805040000000  0.4878420000000 1.0
C      1  0.3963730000000  0.4415720000000  0.4878180000000 1.0
C      1  0.5235500000000  0.3833880000000  0.4878360000000 1.0
C      1  0.6181850000000  0.4863610000000  0.4878720000000 1.0
C      1  0.5569250000000  0.4488970000000  0.5262780000000 1.0
C      1  0.5661850000000  0.5383500000000  0.5262930000000 1.0
C      1  0.4839720000000  0.5747990000000  0.5262810000000 1.0
C      1  0.4239010000000  0.5078730000000  0.5262580000000 1.0
C      1  0.4689890000000  0.4300610000000  0.5262560000000 1.0
C      1  0.5569360000000  0.4489050000000  0.4751310000000 1.0
C      1  0.5661960000000  0.5383580000000  0.4751460000000 1.0
C      1  0.4839830000000  0.5748070000000  0.4751340000000 1.0
C      1  0.4239120000000  0.5078810000000  0.4751120000000 1.0
C      1  0.4690000000000  0.4300690000000  0.4751100000000 1.0
C      1  0.4281340000000  0.4649140000000  0.5006790000000 1.0
C      1  0.5111610000000  0.4208090000000  0.5006910000000 1.0
C      1  0.5375180000000  0.5706270000000  0.5007180000000 1.0
C      1  0.5787640000000  0.4861430000000  0.5007150000000 1.0
C      1  0.4444230000000  0.5575070000000  0.5006960000000 1.0
END
