TITL C-180443-1508-3 -0.00138201350518936 125000 -43.79629312058 0 0 7 (C2v) n - 1
REM
REM in /rds/project/t2_vol4/rds-t2-cs072/BORA/CARBON/from-Arr/AIRSS/Generating-Clusters/GAP-ML-2020/Higher-Symm/SD-CG/HFTN-CG
REM
REM
REM
REM
REM
REM ./C.cell (b20cbc046b6831c77cfcea5457e17084)
REM AIRSS Version 0.9.1 bugfix July 2018 build 013d7b7c2542+ Fri, 06 Jul 2018 19:26:36 +0100
REM compiler GCC version 9.3.0
REM options -cpp -mtune=generic -march=x86-64 -g -O0
REM seed 735955428 78741081 -914407700 -1272281390 -652884943 -630948156 707042311 884116855 444977813 -1261609795 -234990695 1007723322 1604804919 915801216 -324398785 -699975271 325418173 -1484914932 443869261 -1156622727 -1127032986 879703938 1230698860 728973616 1201095771 -2011883069 -966768012 -1481713830 1599300325 1928770788 1647107296 1700217989 -1930151097
REM
CELL 1.54180   50.00000   50.00000   50.00000   90.00000   90.00000   90.00000
LATT -1
SFAC C  
C      1  0.4958050000000  0.4998970000000  0.5031490000000 1.0
C      1  0.4879710000000  0.4767790000000  0.4588800000000 1.0
C      1  0.4840550000000  0.4652190000000  0.4367440000000 1.0
C      1  0.5110920000000  0.5315610000000  0.5415820000000 1.0
C      1  0.4961700000000  0.5144240000000  0.5531710000000 1.0
C      1  0.4999180000000  0.5120340000000  0.5263920000000 1.0
C      1  0.4919670000000  0.4885710000000  0.4814620000000 1.0
END
