TITL C-186987-1096-3 -20.7744597220041 125000 -877.12044378016 0 0 123 (C1) n - 1
REM
REM in /rds/project/t2_vol4/rds-t2-cs072/BORA/CARBON/from-Arr/AIRSS/Generating-Clusters/GAP-ML-2020/Higher-Symm/SD-CG/HFTN-CG
REM
REM
REM
REM
REM
REM ./C.cell (b20cbc046b6831c77cfcea5457e17084)
REM AIRSS Version 0.9.1 bugfix July 2018 build 013d7b7c2542+ Fri, 06 Jul 2018 19:26:36 +0100
REM compiler GCC version 9.3.0
REM options -cpp -mtune=generic -march=x86-64 -g -O0
REM seed -1659771944 -1958206723 2082573069 -1072589578 -851088526 270492449 295638584 1742816363 -163235345 -897694360 -751483057 1998753037 1117799262 446515511 -1630393239 -1867734946 807080223 2121466238 1679024059 -1213259391 4355949 1468070853 -2116270625 92701120 -963718067 959369064 739844034 1740722653 -1133281737 2129656705 -1581272662 1073613742 -1685378355
REM
CELL 1.54180   50.00000   50.00000   50.00000   90.00000   90.00000   90.00000
LATT -1
SFAC C  
C      1  0.4095240000000  0.4723890000000  0.4777100000000 1.0
C      1  0.5064680000000  0.4893140000000  0.4297620000000 1.0
C      1  0.5120780000000  0.5190160000000  0.4249930000000 1.0
C      1  0.5080280000000  0.5396590000000  0.5821070000000 1.0
C      1  0.5695220000000  0.4900140000000  0.5533610000000 1.0
C      1  0.4626570000000  0.5685300000000  0.5326960000000 1.0
C      1  0.5322540000000  0.4661390000000  0.5088520000000 1.0
C      1  0.5040290000000  0.5062830000000  0.5303710000000 1.0
C      1  0.5843850000000  0.5300410000000  0.5270430000000 1.0
C      1  0.4828570000000  0.4164090000000  0.5407440000000 1.0
C      1  0.4127090000000  0.5142740000000  0.5343040000000 1.0
C      1  0.5134660000000  0.5676350000000  0.5459610000000 1.0
C      1  0.5284910000000  0.4940160000000  0.4728560000000 1.0
C      1  0.4211250000000  0.5368320000000  0.4429980000000 1.0
C      1  0.4597540000000  0.5157900000000  0.4801650000000 1.0
C      1  0.5751640000000  0.4639730000000  0.4651180000000 1.0
C      1  0.5523810000000  0.5381950000000  0.5609860000000 1.0
C      1  0.4485500000000  0.4489830000000  0.5410370000000 1.0
C      1  0.4736040000000  0.5761880000000  0.4604970000000 1.0
C      1  0.4156090000000  0.4926780000000  0.4373810000000 1.0
C      1  0.4600860000000  0.4588920000000  0.5151030000000 1.0
C      1  0.4997050000000  0.5597890000000  0.4563280000000 1.0
C      1  0.4123810000000  0.4578110000000  0.5224120000000 1.0
C      1  0.5490740000000  0.4227900000000  0.4778150000000 1.0
C      1  0.4858110000000  0.4954000000000  0.5068720000000 1.0
C      1  0.5741270000000  0.5513870000000  0.4826360000000 1.0
C      1  0.5010500000000  0.4864920000000  0.4636100000000 1.0
C      1  0.5334580000000  0.4752580000000  0.4275800000000 1.0
C      1  0.4297840000000  0.5481420000000  0.5038790000000 1.0
C      1  0.5104260000000  0.5140740000000  0.5926050000000 1.0
C      1  0.5807470000000  0.4434410000000  0.5095290000000 1.0
C      1  0.5406450000000  0.5208650000000  0.4327980000000 1.0
C      1  0.5679470000000  0.5491950000000  0.5397900000000 1.0
C      1  0.4876500000000  0.4441660000000  0.4281720000000 1.0
C      1  0.4564550000000  0.4765590000000  0.4235320000000 1.0
C      1  0.4246390000000  0.4650110000000  0.5454050000000 1.0
C      1  0.5621500000000  0.4611730000000  0.5559380000000 1.0
C      1  0.5860230000000  0.5121870000000  0.4602100000000 1.0
C      1  0.5275380000000  0.4086400000000  0.5297610000000 1.0
C      1  0.4043390000000  0.5025180000000  0.4813860000000 1.0
C      1  0.5342350000000  0.5849380000000  0.5310030000000 1.0
C      1  0.4691390000000  0.5866370000000  0.5100390000000 1.0
C      1  0.5040340000000  0.4156850000000  0.4597020000000 1.0
C      1  0.5753420000000  0.4883210000000  0.4490800000000 1.0
C      1  0.5922640000000  0.4897160000000  0.5050920000000 1.0
C      1  0.4574450000000  0.5824180000000  0.4849930000000 1.0
C      1  0.5316250000000  0.4739790000000  0.5878440000000 1.0
C      1  0.5551510000000  0.5105300000000  0.5687830000000 1.0
C      1  0.4654760000000  0.4342360000000  0.4443280000000 1.0
C      1  0.4584400000000  0.5381130000000  0.4978360000000 1.0
C      1  0.5554390000000  0.4438080000000  0.4587820000000 1.0
C      1  0.5382120000000  0.5874740000000  0.4840580000000 1.0
C      1  0.5273250000000  0.5142720000000  0.5154350000000 1.0
C      1  0.5104780000000  0.4619390000000  0.5239060000000 1.0
C      1  0.4660650000000  0.5450090000000  0.4257280000000 1.0
C      1  0.5443500000000  0.5664570000000  0.4417100000000 1.0
C      1  0.5461230000000  0.5374090000000  0.4842890000000 1.0
C      1  0.5227390000000  0.4110120000000  0.4801330000000 1.0
C      1  0.5214820000000  0.5382960000000  0.5010770000000 1.0
C      1  0.5276070000000  0.5514100000000  0.5660670000000 1.0
C      1  0.5645420000000  0.4214080000000  0.5008710000000 1.0
C      1  0.5039240000000  0.5570110000000  0.5170930000000 1.0
C      1  0.5537990000000  0.4938910000000  0.4307920000000 1.0
C      1  0.5323080000000  0.5212570000000  0.4635270000000 1.0
C      1  0.4765440000000  0.5434180000000  0.5204440000000 1.0
C      1  0.4820530000000  0.5422240000000  0.5692490000000 1.0
C      1  0.4614020000000  0.4537760000000  0.4675140000000 1.0
C      1  0.5949970000000  0.5109600000000  0.4870230000000 1.0
C      1  0.4652460000000  0.4173700000000  0.4914330000000 1.0
C      1  0.5863670000000  0.4646230000000  0.4924270000000 1.0
C      1  0.4967820000000  0.5852650000000  0.5071390000000 1.0
C      1  0.4301590000000  0.5610510000000  0.4546770000000 1.0
C      1  0.4892860000000  0.4625510000000  0.4755800000000 1.0
C      1  0.4821090000000  0.5226840000000  0.5414730000000 1.0
C      1  0.4281760000000  0.5341740000000  0.5478840000000 1.0
C      1  0.4590030000000  0.4893610000000  0.5182380000000 1.0
C      1  0.4479730000000  0.4435020000000  0.4924500000000 1.0
C      1  0.4426460000000  0.5274850000000  0.4247340000000 1.0
C      1  0.4161840000000  0.5182230000000  0.5047640000000 1.0
C      1  0.4183500000000  0.4525170000000  0.4968650000000 1.0
C      1  0.5782450000000  0.5389910000000  0.4552660000000 1.0
C      1  0.5906780000000  0.5352840000000  0.5000630000000 1.0
C      1  0.5115220000000  0.4338130000000  0.4384180000000 1.0
C      1  0.4354850000000  0.5562080000000  0.5319400000000 1.0
C      1  0.5356850000000  0.4490370000000  0.4385770000000 1.0
C      1  0.5585900000000  0.5446010000000  0.4350210000000 1.0
C      1  0.4891470000000  0.4647190000000  0.5045350000000 1.0
C      1  0.5098270000000  0.4165210000000  0.5508850000000 1.0
C      1  0.4943730000000  0.5416930000000  0.4305480000000 1.0
C      1  0.5588620000000  0.5724280000000  0.5245260000000 1.0
C      1  0.4832280000000  0.4103430000000  0.5124310000000 1.0
C      1  0.5135970000000  0.4384170000000  0.5686630000000 1.0
C      1  0.4832220000000  0.5678190000000  0.5549230000000 1.0
C      1  0.4847660000000  0.5022110000000  0.5882610000000 1.0
C      1  0.4843770000000  0.4716240000000  0.4199360000000 1.0
C      1  0.4841130000000  0.4816080000000  0.5663320000000 1.0
C      1  0.5538150000000  0.4179430000000  0.5276850000000 1.0
C      1  0.5362940000000  0.4914690000000  0.4995320000000 1.0
C      1  0.5618360000000  0.5748720000000  0.4952310000000 1.0
C      1  0.4189660000000  0.4683330000000  0.4512400000000 1.0
C      1  0.5267530000000  0.5762240000000  0.4589430000000 1.0
C      1  0.4682090000000  0.4359370000000  0.5559630000000 1.0
C      1  0.5388120000000  0.4530760000000  0.5728220000000 1.0
C      1  0.5845250000000  0.5012020000000  0.5312960000000 1.0
C      1  0.4632580000000  0.4989570000000  0.5474450000000 1.0
C      1  0.5063180000000  0.4820640000000  0.5455420000000 1.0
C      1  0.5694730000000  0.4415750000000  0.5368980000000 1.0
C      1  0.5352350000000  0.5005630000000  0.5870340000000 1.0
C      1  0.4391590000000  0.4991060000000  0.4217310000000 1.0
C      1  0.4222640000000  0.4928510000000  0.5522460000000 1.0
C      1  0.4420330000000  0.5125790000000  0.5642750000000 1.0
C      1  0.5116760000000  0.4055470000000  0.5059720000000 1.0
C      1  0.4068620000000  0.5136950000000  0.4543910000000 1.0
C      1  0.4866230000000  0.5085040000000  0.4776800000000 1.0
C      1  0.4553750000000  0.5664110000000  0.4418620000000 1.0
C      1  0.4648350000000  0.5219080000000  0.5828910000000 1.0
C      1  0.5053730000000  0.5332280000000  0.4746130000000 1.0
C      1  0.4870560000000  0.4513520000000  0.5708040000000 1.0
C      1  0.4449030000000  0.4581290000000  0.4426690000000 1.0
C      1  0.4428060000000  0.5037240000000  0.4990810000000 1.0
C      1  0.5225560000000  0.5962780000000  0.5064290000000 1.0
C      1  0.4759440000000  0.4160510000000  0.4646400000000 1.0
C      1  0.4318150000000  0.5685500000000  0.4823980000000 1.0
END
