TITL C-188657-7628-2 -0.0631912837319966 125000 -451.378009309409 0 0 66 (C1) n - 1
REM
REM in /rds/project/t2_vol4/rds-t2-cs072/BORA/CARBON/from-Arr/AIRSS/Generating-Clusters/GAP-ML-2020/Higher-Symm/SD-CG/HFTN-CG
REM
REM
REM
REM
REM
REM ./C.cell (b20cbc046b6831c77cfcea5457e17084)
REM AIRSS Version 0.9.1 bugfix July 2018 build 013d7b7c2542+ Fri, 06 Jul 2018 19:26:36 +0100
REM compiler GCC version 9.3.0
REM options -cpp -mtune=generic -march=x86-64 -g -O0
REM seed 843068283 881428019 233253871 776207399 2012384840 771514832 -110913370 1350979402 -517439656 -1922517559 -1514386699 1399080166 348454553 10765223 1034228547 -76335183 -1954585869 296896418 1058648115 -701341313 -933437290 -233922373 388492342 1673092333 2095625651 -1998771303 1629461383 2145370534 2117458303 -1417580997 -215595183 1213098027 -1903914320
REM
CELL 1.54180   50.00000   50.00000   50.00000   90.00000   90.00000   90.00000
LATT -1
SFAC C  
C      1  0.4496140000000  0.5411270000000  0.4629400000000 1.0
C      1  0.4452580000000  0.4678200000000  0.4668230000000 1.0
C      1  0.5122230000000  0.4404450000000  0.4688720000000 1.0
C      1  0.5621370000000  0.4934630000000  0.4650800000000 1.0
C      1  0.5229010000000  0.5581640000000  0.4653190000000 1.0
C      1  0.4504050000000  0.5377070000000  0.5300520000000 1.0
C      1  0.4471400000000  0.4624640000000  0.5318230000000 1.0
C      1  0.5177730000000  0.4389600000000  0.5312090000000 1.0
C      1  0.5633180000000  0.4950180000000  0.5418370000000 1.0
C      1  0.5222590000000  0.5555770000000  0.5349740000000 1.0
C      1  0.5152920000000  0.4180820000000  0.5141000000000 1.0
C      1  0.5735630000000  0.4972010000000  0.5144460000000 1.0
C      1  0.5353920000000  0.5555910000000  0.5097860000000 1.0
C      1  0.4556500000000  0.5526460000000  0.5054980000000 1.0
C      1  0.4286110000000  0.4596400000000  0.5125130000000 1.0
C      1  0.5011900000000  0.4271180000000  0.4922890000000 1.0
C      1  0.5671090000000  0.4823450000000  0.4920800000000 1.0
C      1  0.5369430000000  0.5680620000000  0.4862220000000 1.0
C      1  0.4407100000000  0.5573640000000  0.4831180000000 1.0
C      1  0.4311590000000  0.4757860000000  0.4910340000000 1.0
C      1  0.4748150000000  0.4954440000000  0.4380990000000 1.0
C      1  0.4946090000000  0.4750380000000  0.4378210000000 1.0
C      1  0.5203130000000  0.4876370000000  0.4368870000000 1.0
C      1  0.5169110000000  0.5161530000000  0.4354110000000 1.0
C      1  0.4888590000000  0.5209700000000  0.4420470000000 1.0
C      1  0.4736160000000  0.4919010000000  0.5596460000000 1.0
C      1  0.4953570000000  0.4723490000000  0.5603780000000 1.0
C      1  0.5200960000000  0.4858530000000  0.5641050000000 1.0
C      1  0.5150050000000  0.5141870000000  0.5665860000000 1.0
C      1  0.4864470000000  0.5178120000000  0.5593380000000 1.0
C      1  0.5419280000000  0.4766610000000  0.4523190000000 1.0
C      1  0.5345860000000  0.5309580000000  0.4538560000000 1.0
C      1  0.4753930000000  0.5459120000000  0.4508250000000 1.0
C      1  0.4503660000000  0.4916070000000  0.4519920000000 1.0
C      1  0.4905680000000  0.4515500000000  0.4537060000000 1.0
C      1  0.5436220000000  0.4765210000000  0.5486240000000 1.0
C      1  0.5322880000000  0.5305800000000  0.5492900000000 1.0
C      1  0.4739380000000  0.5416430000000  0.5469690000000 1.0
C      1  0.4497910000000  0.4887850000000  0.5442220000000 1.0
C      1  0.4935240000000  0.4488640000000  0.5443210000000 1.0
C      1  0.4950500000000  0.5241980000000  0.4744450000000 1.0
C      1  0.4741880000000  0.5080200000000  0.4849000000000 1.0
C      1  0.4872760000000  0.4813730000000  0.4838460000000 1.0
C      1  0.5170760000000  0.4866720000000  0.4847590000000 1.0
C      1  0.5226090000000  0.5159190000000  0.4794030000000 1.0
C      1  0.4932140000000  0.5215880000000  0.5264520000000 1.0
C      1  0.4735490000000  0.5055110000000  0.5136390000000 1.0
C      1  0.4871010000000  0.4790660000000  0.5135220000000 1.0
C      1  0.5161540000000  0.4844740000000  0.5149020000000 1.0
C      1  0.5202830000000  0.5129270000000  0.5235790000000 1.0
C      1  0.4462070000000  0.5129980000000  0.4713410000000 1.0
C      1  0.4687610000000  0.4527110000000  0.4724930000000 1.0
C      1  0.5328620000000  0.4597700000000  0.4739090000000 1.0
C      1  0.5600690000000  0.5198290000000  0.4598530000000 1.0
C      1  0.4942100000000  0.5540740000000  0.4731940000000 1.0
C      1  0.4447350000000  0.5098640000000  0.5239400000000 1.0
C      1  0.4728480000000  0.4515170000000  0.5239390000000 1.0
C      1  0.5353940000000  0.4612660000000  0.5247250000000 1.0
C      1  0.5592110000000  0.5232780000000  0.5444640000000 1.0
C      1  0.4940890000000  0.5533920000000  0.5282590000000 1.0
C      1  0.5508860000000  0.4605280000000  0.4976370000000 1.0
C      1  0.4826610000000  0.5605940000000  0.5021460000000 1.0
C      1  0.4315870000000  0.5031080000000  0.4962900000000 1.0
C      1  0.5640490000000  0.5242950000000  0.5153510000000 1.0
C      1  0.4752460000000  0.4371740000000  0.4969800000000 1.0
C      1  0.5367310000000  0.5270360000000  0.5035540000000 1.0
END
