TITL C-183189-4286-11 -0.0673308991750004 125000 -388.571862384983 0 0 57 (C1) n - 1
REM
REM in /rds/project/t2_vol4/rds-t2-cs072/BORA/CARBON/from-Arr/AIRSS/Generating-Clusters/GAP-ML-2020/Higher-Symm/SD-CG/HFTN-CG
REM
REM
REM
REM
REM
REM ./C.cell (b20cbc046b6831c77cfcea5457e17084)
REM AIRSS Version 0.9.1 bugfix July 2018 build 013d7b7c2542+ Fri, 06 Jul 2018 19:26:36 +0100
REM compiler GCC version 9.3.0
REM options -cpp -mtune=generic -march=x86-64 -g -O0
REM seed -1154971952 -1510749558 811244410 1019192588 -1784506911 -796385919 1511489295 -293353768 -502278923 -54140626 2080285434 1877297094 1780123739 1402554313 -807022339 -177184442 730673782 2051071225 -1535770316 1348650580 -797510666 -1686076871 1020492270 1053438070 -1638803765 905685255 -6990443 1256756663 -1566146452 -524381547 196868777 8361005 -1071504773
REM
CELL 1.54180   50.00000   50.00000   50.00000   90.00000   90.00000   90.00000
LATT -1
SFAC C  
C      1  0.5341730000000  0.5166670000000  0.5497570000000 1.0
C      1  0.4974480000000  0.4586510000000  0.5478800000000 1.0
C      1  0.4686040000000  0.5218840000000  0.5459980000000 1.0
C      1  0.5317260000000  0.4804490000000  0.4539070000000 1.0
C      1  0.4952390000000  0.5370370000000  0.4449170000000 1.0
C      1  0.4627240000000  0.4749500000000  0.4562220000000 1.0
C      1  0.4839310000000  0.5034280000000  0.4127210000000 1.0
C      1  0.5105960000000  0.4938850000000  0.4114300000000 1.0
C      1  0.4894110000000  0.4756690000000  0.4151850000000 1.0
C      1  0.4844620000000  0.4849250000000  0.5850840000000 1.0
C      1  0.5115810000000  0.4931050000000  0.5879090000000 1.0
C      1  0.4907770000000  0.5122170000000  0.5877480000000 1.0
C      1  0.5714990000000  0.4973400000000  0.5149040000000 1.0
C      1  0.4690370000000  0.4427260000000  0.5124400000000 1.0
C      1  0.4700340000000  0.5626080000000  0.5107400000000 1.0
C      1  0.5681480000000  0.5033670000000  0.4851830000000 1.0
C      1  0.4701370000000  0.5624480000000  0.4812640000000 1.0
C      1  0.4725050000000  0.4356040000000  0.4843190000000 1.0
C      1  0.5142830000000  0.5389970000000  0.5542880000000 1.0
C      1  0.5238060000000  0.4687790000000  0.5483380000000 1.0
C      1  0.4617250000000  0.4944330000000  0.5433250000000 1.0
C      1  0.5118800000000  0.4596920000000  0.4568510000000 1.0
C      1  0.5224050000000  0.5271020000000  0.4432460000000 1.0
C      1  0.4575870000000  0.5037380000000  0.4545400000000 1.0
C      1  0.4866730000000  0.4652030000000  0.4422230000000 1.0
C      1  0.4751370000000  0.5181800000000  0.4360890000000 1.0
C      1  0.5269440000000  0.5004040000000  0.4340560000000 1.0
C      1  0.4888020000000  0.5294360000000  0.5648030000000 1.0
C      1  0.4764410000000  0.4751350000000  0.5592870000000 1.0
C      1  0.5282500000000  0.4919310000000  0.5639320000000 1.0
C      1  0.4473230000000  0.4899270000000  0.5187470000000 1.0
C      1  0.5108940000000  0.5564830000000  0.5323750000000 1.0
C      1  0.5368900000000  0.4642690000000  0.5217620000000 1.0
C      1  0.4448030000000  0.5200600000000  0.4758490000000 1.0
C      1  0.5113890000000  0.4393090000000  0.4789650000000 1.0
C      1  0.5386680000000  0.5385880000000  0.4641180000000 1.0
C      1  0.5619110000000  0.5274600000000  0.4738490000000 1.0
C      1  0.4914780000000  0.4191750000000  0.4749660000000 1.0
C      1  0.4494520000000  0.5469120000000  0.4724930000000 1.0
C      1  0.5648200000000  0.4709140000000  0.5203690000000 1.0
C      1  0.4902790000000  0.5734470000000  0.5261300000000 1.0
C      1  0.4508220000000  0.4646470000000  0.5058990000000 1.0
C      1  0.4551120000000  0.4584110000000  0.4773410000000 1.0
C      1  0.4947160000000  0.5563570000000  0.4660480000000 1.0
C      1  0.5453800000000  0.4864630000000  0.4785340000000 1.0
C      1  0.4635550000000  0.5340700000000  0.5197310000000 1.0
C      1  0.4946680000000  0.4429540000000  0.5248780000000 1.0
C      1  0.5574150000000  0.5166670000000  0.5304880000000 1.0
C      1  0.5152820000000  0.5387730000000  0.5080120000000 1.0
C      1  0.5281710000000  0.4880440000000  0.5031860000000 1.0
C      1  0.4870560000000  0.5034850000000  0.4889990000000 1.0
C      1  0.5006080000000  0.4825560000000  0.4958930000000 1.0
C      1  0.5324290000000  0.5157860000000  0.5164230000000 1.0
C      1  0.4889230000000  0.5256510000000  0.5048490000000 1.0
C      1  0.5180790000000  0.4429010000000  0.5081130000000 1.0
C      1  0.4447520000000  0.5147030000000  0.5047640000000 1.0
C      1  0.5191560000000  0.5519960000000  0.4808500000000 1.0
END
