TITL C-187002-1116-7 -0.199906837252538 125000 -825.476707830255 0 0 119 (C1) n - 1
REM
REM in /rds/project/t2_vol4/rds-t2-cs072/BORA/CARBON/from-Arr/AIRSS/Generating-Clusters/GAP-ML-2020/Higher-Symm/SD-CG/HFTN-CG
REM
REM
REM
REM
REM
REM ./C.cell (b20cbc046b6831c77cfcea5457e17084)
REM AIRSS Version 0.9.1 bugfix July 2018 build 013d7b7c2542+ Fri, 06 Jul 2018 19:26:36 +0100
REM compiler GCC version 9.3.0
REM options -cpp -mtune=generic -march=x86-64 -g -O0
REM seed -1163572012 -865963870 1384782920 1139074219 -568450501 1777734237 1473626565 -2119333144 898774762 -120510848 1452891262 913162752 1009179233 222674237 1265114311 -470432590 810219916 353615688 2031369203 1845550720 -1417472214 -363293325 667241249 369748864 -214978085 1383781956 -1759126658 -1544499977 -1261710730 -837793387 92565356 24098703 -63346375
REM
CELL 1.54180   50.00000   50.00000   50.00000   90.00000   90.00000   90.00000
LATT -1
SFAC C  
C      1  0.5799670000000  0.4742750000000  0.5296080000000 1.0
C      1  0.5474330000000  0.5658650000000  0.5244310000000 1.0
C      1  0.4528300000000  0.5791300000000  0.5235160000000 1.0
C      1  0.4199100000000  0.4843840000000  0.5325360000000 1.0
C      1  0.5046290000000  0.4183340000000  0.5317920000000 1.0
C      1  0.4198720000000  0.4783240000000  0.4748240000000 1.0
C      1  0.4555040000000  0.5669730000000  0.4646020000000 1.0
C      1  0.5422610000000  0.5595510000000  0.4665910000000 1.0
C      1  0.5784710000000  0.4738340000000  0.4727420000000 1.0
C      1  0.5127370000000  0.4063750000000  0.4727290000000 1.0
C      1  0.4172080000000  0.5089900000000  0.5157000000000 1.0
C      1  0.4852330000000  0.4115390000000  0.5093030000000 1.0
C      1  0.5716900000000  0.4513870000000  0.5148350000000 1.0
C      1  0.5632670000000  0.5473320000000  0.5098880000000 1.0
C      1  0.4753680000000  0.5866220000000  0.5076530000000 1.0
C      1  0.5814670000000  0.4979160000000  0.4874190000000 1.0
C      1  0.5336410000000  0.4170290000000  0.4901480000000 1.0
C      1  0.4179730000000  0.4574820000000  0.4918460000000 1.0
C      1  0.4356800000000  0.5538440000000  0.4824020000000 1.0
C      1  0.5262780000000  0.5789360000000  0.4827080000000 1.0
C      1  0.5272180000000  0.5858980000000  0.4247040000000 1.0
C      1  0.4407970000000  0.5502650000000  0.4210110000000 1.0
C      1  0.4409290000000  0.4526220000000  0.4355070000000 1.0
C      1  0.5303030000000  0.4241500000000  0.4274620000000 1.0
C      1  0.5707210000000  0.5084840000000  0.4436840000000 1.0
C      1  0.4801140000000  0.5896610000000  0.5682980000000 1.0
C      1  0.5630150000000  0.5332700000000  0.5545750000000 1.0
C      1  0.5603330000000  0.4424640000000  0.5567530000000 1.0
C      1  0.4747610000000  0.4219880000000  0.5720270000000 1.0
C      1  0.4178050000000  0.4991180000000  0.5837650000000 1.0
C      1  0.4758330000000  0.4491130000000  0.4777980000000 1.0
C      1  0.5248370000000  0.4607060000000  0.4744720000000 1.0
C      1  0.5362630000000  0.5101590000000  0.4736870000000 1.0
C      1  0.4951670000000  0.5420440000000  0.4770990000000 1.0
C      1  0.4516490000000  0.5198730000000  0.4539970000000 1.0
C      1  0.5247320000000  0.4630790000000  0.5273550000000 1.0
C      1  0.4755180000000  0.4588410000000  0.5389850000000 1.0
C      1  0.4490370000000  0.5288680000000  0.5433120000000 1.0
C      1  0.4952370000000  0.5482790000000  0.5287790000000 1.0
C      1  0.5341100000000  0.5111460000000  0.5282680000000 1.0
C      1  0.4450780000000  0.5234850000000  0.4225350000000 1.0
C      1  0.4577640000000  0.4353560000000  0.4259710000000 1.0
C      1  0.5483070000000  0.4391450000000  0.4159420000000 1.0
C      1  0.5599360000000  0.5219930000000  0.4234740000000 1.0
C      1  0.5027440000000  0.5898170000000  0.4159990000000 1.0
C      1  0.5649030000000  0.5144600000000  0.5736190000000 1.0
C      1  0.5480930000000  0.4287930000000  0.5775330000000 1.0
C      1  0.4562090000000  0.4388190000000  0.5765110000000 1.0
C      1  0.4386240000000  0.5116550000000  0.5936460000000 1.0
C      1  0.5033430000000  0.5792460000000  0.5754990000000 1.0
C      1  0.5719050000000  0.4685470000000  0.5565310000000 1.0
C      1  0.5416220000000  0.5538630000000  0.5507280000000 1.0
C      1  0.4615400000000  0.5763770000000  0.5514020000000 1.0
C      1  0.4230870000000  0.4805450000000  0.5613100000000 1.0
C      1  0.4990950000000  0.4119180000000  0.5622000000000 1.0
C      1  0.4360260000000  0.4746790000000  0.4504780000000 1.0
C      1  0.4531650000000  0.5713540000000  0.4345570000000 1.0
C      1  0.5423740000000  0.5665140000000  0.4370680000000 1.0
C      1  0.5646930000000  0.4801030000000  0.4471940000000 1.0
C      1  0.5086000000000  0.4226270000000  0.4454420000000 1.0
C      1  0.5497390000000  0.4654750000000  0.4247720000000 1.0
C      1  0.5405870000000  0.5400840000000  0.4224290000000 1.0
C      1  0.4819390000000  0.5729750000000  0.4236950000000 1.0
C      1  0.4591090000000  0.5027570000000  0.4119670000000 1.0
C      1  0.4850200000000  0.4361400000000  0.4255930000000 1.0
C      1  0.4459620000000  0.4643070000000  0.5686110000000 1.0
C      1  0.4654500000000  0.5151480000000  0.5903080000000 1.0
C      1  0.5225350000000  0.5599990000000  0.5734370000000 1.0
C      1  0.5578020000000  0.4878720000000  0.5723350000000 1.0
C      1  0.5212640000000  0.4260430000000  0.5770590000000 1.0
C      1  0.5089400000000  0.5298470000000  0.5725570000000 1.0
C      1  0.4802530000000  0.5355010000000  0.5764270000000 1.0
C      1  0.4823120000000  0.4934530000000  0.5814340000000 1.0
C      1  0.5149540000000  0.4529370000000  0.5697770000000 1.0
C      1  0.5278210000000  0.4811770000000  0.5723320000000 1.0
C      1  0.4888210000000  0.5466840000000  0.4312620000000 1.0
C      1  0.5131990000000  0.5303440000000  0.4319140000000 1.0
C      1  0.5221120000000  0.4789080000000  0.4300760000000 1.0
C      1  0.4955380000000  0.4629070000000  0.4323610000000 1.0
C      1  0.4798350000000  0.4900430000000  0.4290980000000 1.0
C      1  0.4556360000000  0.4484240000000  0.5212880000000 1.0
C      1  0.5497380000000  0.4387500000000  0.5297160000000 1.0
C      1  0.5663250000000  0.5231580000000  0.5263710000000 1.0
C      1  0.5005610000000  0.5773850000000  0.5207010000000 1.0
C      1  0.4285860000000  0.5345020000000  0.5248160000000 1.0
C      1  0.5459780000000  0.4394840000000  0.4783280000000 1.0
C      1  0.4683450000000  0.4332270000000  0.5004010000000 1.0
C      1  0.4312950000000  0.5270150000000  0.4736670000000 1.0
C      1  0.5000580000000  0.5741710000000  0.4738600000000 1.0
C      1  0.5684900000000  0.5187500000000  0.4718260000000 1.0
C      1  0.4686990000000  0.5482420000000  0.5521880000000 1.0
C      1  0.4689550000000  0.4812940000000  0.5562600000000 1.0
C      1  0.5027280000000  0.4483890000000  0.5413960000000 1.0
C      1  0.5301930000000  0.4864460000000  0.5433590000000 1.0
C      1  0.5182160000000  0.5333750000000  0.5425220000000 1.0
C      1  0.5209150000000  0.5335380000000  0.4632790000000 1.0
C      1  0.5341810000000  0.4840330000000  0.4576820000000 1.0
C      1  0.5004500000000  0.4487520000000  0.4611930000000 1.0
C      1  0.4611350000000  0.4915210000000  0.4545060000000 1.0
C      1  0.4731260000000  0.5411960000000  0.4562670000000 1.0
C      1  0.5705190000000  0.4509900000000  0.4872210000000 1.0
C      1  0.5644500000000  0.5462600000000  0.4815200000000 1.0
C      1  0.4748140000000  0.5843480000000  0.4802370000000 1.0
C      1  0.4191580000000  0.5053250000000  0.4874470000000 1.0
C      1  0.4934420000000  0.3955700000000  0.4878720000000 1.0
C      1  0.4300020000000  0.4608140000000  0.5168550000000 1.0
C      1  0.4345750000000  0.5592150000000  0.5108520000000 1.0
C      1  0.5270630000000  0.5799010000000  0.5101520000000 1.0
C      1  0.5811030000000  0.4994060000000  0.5160960000000 1.0
C      1  0.5320940000000  0.4178910000000  0.5187120000000 1.0
C      1  0.4722630000000  0.4773950000000  0.4787760000000 1.0
C      1  0.5176760000000  0.4750210000000  0.5005370000000 1.0
C      1  0.5287440000000  0.5015580000000  0.5006110000000 1.0
C      1  0.4642760000000  0.5043370000000  0.5369530000000 1.0
C      1  0.4867980000000  0.5337250000000  0.5048500000000 1.0
C      1  0.4786760000000  0.5078990000000  0.5123410000000 1.0
C      1  0.4910110000000  0.4883890000000  0.4962680000000 1.0
C      1  0.5094160000000  0.5012770000000  0.5816520000000 1.0
C      1  0.5060610000000  0.5027700000000  0.4246720000000 1.0
END
