TITL C-188666-7733-6 -0.0348332280449527 125000 -376.172238408069 0 0 55 (C1) n - 1
REM
REM in /rds/project/t2_vol4/rds-t2-cs072/BORA/CARBON/from-Arr/AIRSS/Generating-Clusters/GAP-ML-2020/Higher-Symm/SD-CG/HFTN-CG
REM
REM
REM
REM
REM
REM ./C.cell (b20cbc046b6831c77cfcea5457e17084)
REM AIRSS Version 0.9.1 bugfix July 2018 build 013d7b7c2542+ Fri, 06 Jul 2018 19:26:36 +0100
REM compiler GCC version 9.3.0
REM options -cpp -mtune=generic -march=x86-64 -g -O0
REM seed 57894788 1718134362 -1940899766 1852329512 2003530533 -687388683 -1849067132 1024024605 982565099 -647510331 1419330787 -696892807 -1084884583 -1500835583 617133698 -271453831 1540638107 -1160155823 -71822509 -179220785 -108722811 -1821226099 -2008698055 1626075512 -683844684 -400726068 -701074335 -51851439 880791029 -1337383878 1064156178 -2027437556 1039159452
REM
CELL 1.54180   50.00000   50.00000   50.00000   90.00000   90.00000   90.00000
LATT -1
SFAC C  
C      1  0.5161840000000  0.5249220000000  0.4847790000000 1.0
C      1  0.4557320000000  0.4612140000000  0.5118850000000 1.0
C      1  0.5603790000000  0.5165870000000  0.4621810000000 1.0
C      1  0.5705420000000  0.5167340000000  0.4888720000000 1.0
C      1  0.4912750000000  0.4407910000000  0.4686870000000 1.0
C      1  0.5416030000000  0.5548590000000  0.4826600000000 1.0
C      1  0.5489470000000  0.4457740000000  0.4846040000000 1.0
C      1  0.5327700000000  0.5103060000000  0.5043890000000 1.0
C      1  0.5381590000000  0.4536810000000  0.5275840000000 1.0
C      1  0.4527620000000  0.4738950000000  0.4611460000000 1.0
C      1  0.4494560000000  0.5406110000000  0.5277880000000 1.0
C      1  0.4794690000000  0.4635060000000  0.4575750000000 1.0
C      1  0.5140460000000  0.4742980000000  0.4901310000000 1.0
C      1  0.4923390000000  0.4931390000000  0.5619110000000 1.0
C      1  0.5177340000000  0.4568230000000  0.5465980000000 1.0
C      1  0.5568730000000  0.4921750000000  0.5011920000000 1.0
C      1  0.5215560000000  0.4992680000000  0.4446080000000 1.0
C      1  0.4882380000000  0.5319820000000  0.4467500000000 1.0
C      1  0.5451650000000  0.4735350000000  0.4799970000000 1.0
C      1  0.4282270000000  0.5135860000000  0.4900250000000 1.0
C      1  0.5027420000000  0.4438660000000  0.4947550000000 1.0
C      1  0.4406590000000  0.4700370000000  0.4879230000000 1.0
C      1  0.4822500000000  0.5200930000000  0.5557000000000 1.0
C      1  0.4962900000000  0.4875900000000  0.4719480000000 1.0
C      1  0.5136070000000  0.5540100000000  0.4954240000000 1.0
C      1  0.4183480000000  0.4868940000000  0.4894670000000 1.0
C      1  0.5171190000000  0.5274540000000  0.4512310000000 1.0
C      1  0.4906880000000  0.4521640000000  0.5406820000000 1.0
C      1  0.4530400000000  0.5010640000000  0.4509090000000 1.0
C      1  0.4811940000000  0.4469750000000  0.5147860000000 1.0
C      1  0.4314310000000  0.5209440000000  0.5171010000000 1.0
C      1  0.4549310000000  0.5222340000000  0.5513040000000 1.0
C      1  0.5450650000000  0.4935160000000  0.5502210000000 1.0
C      1  0.5314480000000  0.4375530000000  0.5044800000000 1.0
C      1  0.4521040000000  0.4767160000000  0.5363120000000 1.0
C      1  0.4729080000000  0.5368230000000  0.4717910000000 1.0
C      1  0.4389780000000  0.5016380000000  0.5390620000000 1.0
C      1  0.4903840000000  0.5090270000000  0.5136220000000 1.0
C      1  0.5440550000000  0.5339370000000  0.5244250000000 1.0
C      1  0.4461210000000  0.5227100000000  0.4685600000000 1.0
C      1  0.5425770000000  0.5394830000000  0.4579760000000 1.0
C      1  0.4768300000000  0.5078770000000  0.4362850000000 1.0
C      1  0.5126510000000  0.4911760000000  0.5140220000000 1.0
C      1  0.4957590000000  0.4868200000000  0.4416550000000 1.0
C      1  0.4888880000000  0.5129200000000  0.4853550000000 1.0
C      1  0.5539860000000  0.4773760000000  0.5275260000000 1.0
C      1  0.5531750000000  0.5192130000000  0.5464310000000 1.0
C      1  0.4944850000000  0.5366150000000  0.5331970000000 1.0
C      1  0.5463270000000  0.4922230000000  0.4564670000000 1.0
C      1  0.4749190000000  0.4722210000000  0.5533560000000 1.0
C      1  0.5197070000000  0.4822240000000  0.5599100000000 1.0
C      1  0.4733400000000  0.5512430000000  0.5182090000000 1.0
C      1  0.5600160000000  0.5420490000000  0.5005060000000 1.0
C      1  0.5185280000000  0.5493250000000  0.5241240000000 1.0
C      1  0.4839950000000  0.5563020000000  0.4919140000000 1.0
END
