TITL C-180229-7218-8 -9.96800883040454 125000 -888.251887956712 0 0 128 (C1) n - 1
REM
REM in /rds/project/t2_vol4/rds-t2-cs072/BORA/CARBON/from-Arr/AIRSS/Generating-Clusters/GAP-ML-2020/Higher-Symm/SD-CG/HFTN-CG
REM
REM
REM
REM
REM
REM ./C.cell (b20cbc046b6831c77cfcea5457e17084)
REM AIRSS Version 0.9.1 bugfix July 2018 build 013d7b7c2542+ Fri, 06 Jul 2018 19:26:36 +0100
REM compiler GCC version 9.3.0
REM options -cpp -mtune=generic -march=x86-64 -g -O0
REM seed -225507887 1357249017 -570481364 -2006475323 337360087 -832961001 1969060032 617255434 758706624 1293044479 1064071422 2112759351 314158961 199016232 -1817240827 150319965 -1076415261 1506348839 -569482203 -334246663 1667412713 1823806914 -1360801619 -2085602082 1437152696 1146075321 2081071125 1614624903 -960812497 1273368971 1303983798 -751583719 1370031333
REM
CELL 1.54180   50.00000   50.00000   50.00000   90.00000   90.00000   90.00000
LATT -1
SFAC C  
C      1  0.4674550000000  0.5176560000000  0.5251900000000 1.0
C      1  0.4666720000000  0.5250160000000  0.4791960000000 1.0
C      1  0.5117040000000  0.5310940000000  0.4526760000000 1.0
C      1  0.5484080000000  0.5295790000000  0.4838560000000 1.0
C      1  0.5110820000000  0.5212910000000  0.5369020000000 1.0
C      1  0.4823910000000  0.4485990000000  0.4187710000000 1.0
C      1  0.5802970000000  0.4485920000000  0.4542140000000 1.0
C      1  0.5497370000000  0.4468120000000  0.5430780000000 1.0
C      1  0.4626470000000  0.4480830000000  0.5874400000000 1.0
C      1  0.4250430000000  0.4418190000000  0.4973580000000 1.0
C      1  0.4775320000000  0.4603610000000  0.5360330000000 1.0
C      1  0.4691090000000  0.4589700000000  0.4878340000000 1.0
C      1  0.4886370000000  0.4633750000000  0.4648790000000 1.0
C      1  0.5165110000000  0.4641960000000  0.4776580000000 1.0
C      1  0.5151170000000  0.4588690000000  0.5070730000000 1.0
C      1  0.5341410000000  0.4831490000000  0.4689610000000 1.0
C      1  0.5307200000000  0.4802410000000  0.5179540000000 1.0
C      1  0.4847060000000  0.4801490000000  0.5504050000000 1.0
C      1  0.4538200000000  0.4808960000000  0.4976980000000 1.0
C      1  0.4830730000000  0.4892330000000  0.4513050000000 1.0
C      1  0.4308100000000  0.5699240000000  0.5177110000000 1.0
C      1  0.4644630000000  0.5639210000000  0.4418790000000 1.0
C      1  0.5505010000000  0.5711030000000  0.4455120000000 1.0
C      1  0.5606390000000  0.5689030000000  0.5268130000000 1.0
C      1  0.4915920000000  0.5700520000000  0.5703460000000 1.0
C      1  0.4278460000000  0.4593670000000  0.5400950000000 1.0
C      1  0.4428720000000  0.4687410000000  0.4399590000000 1.0
C      1  0.5438500000000  0.4566260000000  0.4247630000000 1.0
C      1  0.5772330000000  0.4597070000000  0.5113250000000 1.0
C      1  0.5090000000000  0.4566090000000  0.5862370000000 1.0
C      1  0.4936020000000  0.4140610000000  0.4592370000000 1.0
C      1  0.5451380000000  0.4147210000000  0.4794600000000 1.0
C      1  0.5265870000000  0.4091950000000  0.5264440000000 1.0
C      1  0.4739570000000  0.4137460000000  0.5463550000000 1.0
C      1  0.4598960000000  0.4102800000000  0.4969970000000 1.0
C      1  0.5364340000000  0.5499680000000  0.5702360000000 1.0
C      1  0.4432620000000  0.5516800000000  0.5619500000000 1.0
C      1  0.4246620000000  0.5482230000000  0.4699010000000 1.0
C      1  0.5125580000000  0.5434100000000  0.4243890000000 1.0
C      1  0.5810660000000  0.5536180000000  0.4855680000000 1.0
C      1  0.5701670000000  0.4651500000000  0.4321600000000 1.0
C      1  0.5573200000000  0.4736860000000  0.5278100000000 1.0
C      1  0.4841610000000  0.4650660000000  0.5977050000000 1.0
C      1  0.4307770000000  0.4744570000000  0.5156750000000 1.0
C      1  0.4584660000000  0.4936520000000  0.4321640000000 1.0
C      1  0.5190250000000  0.5755640000000  0.5322440000000 1.0
C      1  0.4695230000000  0.5897610000000  0.5404570000000 1.0
C      1  0.4615610000000  0.5771380000000  0.4887770000000 1.0
C      1  0.5018360000000  0.5793030000000  0.4558100000000 1.0
C      1  0.5458190000000  0.5905570000000  0.4830150000000 1.0
C      1  0.5918800000000  0.4718900000000  0.4668330000000 1.0
C      1  0.5527430000000  0.4668470000000  0.5658110000000 1.0
C      1  0.4456930000000  0.4713220000000  0.5842430000000 1.0
C      1  0.4110790000000  0.4643570000000  0.4837620000000 1.0
C      1  0.4971880000000  0.4706770000000  0.4100460000000 1.0
C      1  0.5754570000000  0.5148910000000  0.4464200000000 1.0
C      1  0.5687090000000  0.5147790000000  0.5513720000000 1.0
C      1  0.4715830000000  0.5152270000000  0.5880100000000 1.0
C      1  0.4076120000000  0.5133740000000  0.5057640000000 1.0
C      1  0.4901370000000  0.5116940000000  0.3923450000000 1.0
C      1  0.5298780000000  0.5116000000000  0.4711910000000 1.0
C      1  0.5195070000000  0.5048700000000  0.5163910000000 1.0
C      1  0.4879890000000  0.5050060000000  0.5392740000000 1.0
C      1  0.4610600000000  0.5069360000000  0.5000000000000 1.0
C      1  0.4892240000000  0.5135160000000  0.4651180000000 1.0
C      1  0.4915660000000  0.5639590000000  0.4314310000000 1.0
C      1  0.5669600000000  0.5738400000000  0.4703160000000 1.0
C      1  0.5427610000000  0.5677100000000  0.5493280000000 1.0
C      1  0.4633230000000  0.5717910000000  0.5633940000000 1.0
C      1  0.4321560000000  0.5667790000000  0.4891020000000 1.0
C      1  0.4391230000000  0.5161960000000  0.4394280000000 1.0
C      1  0.5543020000000  0.5220710000000  0.4273300000000 1.0
C      1  0.5800000000000  0.5237230000000  0.5238620000000 1.0
C      1  0.5011990000000  0.5227080000000  0.5870930000000 1.0
C      1  0.4167470000000  0.5234890000000  0.5333390000000 1.0
C      1  0.4776940000000  0.4925940000000  0.4071870000000 1.0
C      1  0.5837920000000  0.4886810000000  0.4442010000000 1.0
C      1  0.5675580000000  0.4868230000000  0.5518390000000 1.0
C      1  0.4665070000000  0.4887220000000  0.5956090000000 1.0
C      1  0.4066860000000  0.4847810000000  0.5038840000000 1.0
C      1  0.4746870000000  0.5502960000000  0.4936490000000 1.0
C      1  0.5129460000000  0.5550060000000  0.4695670000000 1.0
C      1  0.5330490000000  0.5530070000000  0.4911640000000 1.0
C      1  0.5034060000000  0.5483260000000  0.5264130000000 1.0
C      1  0.4732090000000  0.5458110000000  0.5231840000000 1.0
C      1  0.4537460000000  0.4146320000000  0.5256870000000 1.0
C      1  0.4785680000000  0.4022480000000  0.4789310000000 1.0
C      1  0.5224830000000  0.4157220000000  0.4593150000000 1.0
C      1  0.5486990000000  0.4144820000000  0.5082680000000 1.0
C      1  0.5048960000000  0.4157850000000  0.5453940000000 1.0
C      1  0.5090420000000  0.5495060000000  0.5796110000000 1.0
C      1  0.4255810000000  0.5508000000000  0.5385260000000 1.0
C      1  0.4424690000000  0.5445200000000  0.4462530000000 1.0
C      1  0.5419070000000  0.5483010000000  0.4302740000000 1.0
C      1  0.5789250000000  0.5512570000000  0.5144650000000 1.0
C      1  0.5291010000000  0.5892690000000  0.4581230000000 1.0
C      1  0.5391030000000  0.5778960000000  0.5081450000000 1.0
C      1  0.4981440000000  0.5884200000000  0.5475060000000 1.0
C      1  0.4548310000000  0.5875340000000  0.5175390000000 1.0
C      1  0.4729680000000  0.5834860000000  0.4629480000000 1.0
C      1  0.5472860000000  0.5234450000000  0.5704580000000 1.0
C      1  0.4473800000000  0.5252160000000  0.5724940000000 1.0
C      1  0.4123610000000  0.5232620000000  0.4782050000000 1.0
C      1  0.5127220000000  0.5216130000000  0.4046450000000 1.0
C      1  0.5772190000000  0.5255070000000  0.4762280000000 1.0
C      1  0.4219990000000  0.4759180000000  0.4589760000000 1.0
C      1  0.5260430000000  0.4758910000000  0.4132020000000 1.0
C      1  0.5899500000000  0.4784890000000  0.4941620000000 1.0
C      1  0.5300640000000  0.4758970000000  0.5807310000000 1.0
C      1  0.4296580000000  0.4780360000000  0.5620020000000 1.0
C      1  0.5617050000000  0.4283620000000  0.4597230000000 1.0
C      1  0.5240430000000  0.4380870000000  0.5309160000000 1.0
C      1  0.4740500000000  0.4268030000000  0.5726550000000 1.0
C      1  0.4491370000000  0.4340620000000  0.4847290000000 1.0
C      1  0.4838170000000  0.4389120000000  0.4458460000000 1.0
C      1  0.5666370000000  0.4349820000000  0.5210160000000 1.0
C      1  0.5029010000000  0.4308050000000  0.5729690000000 1.0
C      1  0.4312380000000  0.4345880000000  0.5254540000000 1.0
C      1  0.4580730000000  0.4465940000000  0.4314610000000 1.0
C      1  0.5393800000000  0.4314460000000  0.4404380000000 1.0
C      1  0.5345020000000  0.5043920000000  0.4131660000000 1.0
C      1  0.5855880000000  0.5074380000000  0.4994530000000 1.0
C      1  0.5259090000000  0.5054790000000  0.5819580000000 1.0
C      1  0.4292660000000  0.5073290000000  0.5562700000000 1.0
C      1  0.4197400000000  0.5048950000000  0.4569930000000 1.0
C      1  0.5046360000000  0.5434490000000  0.4964810000000 1.0
C      1  0.4863500000000  0.4581190000000  0.5107280000000 1.0
C      1  0.5081590000000  0.5141150000000  0.4908890000000 1.0
END
