TITL C-183194-6616-2 26.1070355878682 125000 -651.767188995012 0 0 90 (C1) n - 1
REM
REM in /rds/project/t2_vol4/rds-t2-cs072/BORA/CARBON/from-Arr/AIRSS/Generating-Clusters/GAP-ML-2020/Higher-Symm/SD-CG/HFTN-CG
REM
REM
REM
REM
REM
REM ./C.cell (b20cbc046b6831c77cfcea5457e17084)
REM AIRSS Version 0.9.1 bugfix July 2018 build 013d7b7c2542+ Fri, 06 Jul 2018 19:26:36 +0100
REM compiler GCC version 9.3.0
REM options -cpp -mtune=generic -march=x86-64 -g -O0
REM seed 190435207 -655636016 2065111972 1143644886 886217733 1557963517 1578508069 465478971 -528355909 -1777063711 1282226339 57485392 -945951981 295858691 262493571 -558481777 -1072445398 -1305884204 -514549436 -1407705546 1161253845 184390527 549502840 -1733358880 1961560879 140850343 -1093464543 -1423656253 -2130161689 -1492075872 451722505 212102762 544966804
REM
CELL 1.54180   50.00000   50.00000   50.00000   90.00000   90.00000   90.00000
LATT -1
SFAC C  
C      1  0.4812280000000  0.4279350000000  0.4763170000000 1.0
C      1  0.5166720000000  0.4274340000000  0.5220340000000 1.0
C      1  0.4832950000000  0.5734790000000  0.4780110000000 1.0
C      1  0.5188830000000  0.5724960000000  0.5237330000000 1.0
C      1  0.5622960000000  0.4628010000000  0.5117000000000 1.0
C      1  0.4364780000000  0.4641360000000  0.4875800000000 1.0
C      1  0.5643160000000  0.5358790000000  0.5127690000000 1.0
C      1  0.4378010000000  0.5374770000000  0.4884820000000 1.0
C      1  0.4722580000000  0.5736870000000  0.5038630000000 1.0
C      1  0.5301860000000  0.5720730000000  0.4979440000000 1.0
C      1  0.4702870000000  0.4280200000000  0.5022070000000 1.0
C      1  0.5278180000000  0.4274570000000  0.4961800000000 1.0
C      1  0.4588230000000  0.5521900000000  0.5553770000000 1.0
C      1  0.5428080000000  0.5511330000000  0.4461730000000 1.0
C      1  0.4567530000000  0.4466180000000  0.5543940000000 1.0
C      1  0.5420660000000  0.4460280000000  0.4449030000000 1.0
C      1  0.4487330000000  0.5385730000000  0.4608710000000 1.0
C      1  0.5517620000000  0.5363390000000  0.5397860000000 1.0
C      1  0.4485060000000  0.4636690000000  0.4602610000000 1.0
C      1  0.5508520000000  0.4621670000000  0.5391280000000 1.0
C      1  0.5095860000000  0.4253500000000  0.4736710000000 1.0
C      1  0.4883760000000  0.4252190000000  0.5246880000000 1.0
C      1  0.5119040000000  0.5742260000000  0.4756430000000 1.0
C      1  0.4903860000000  0.5754650000000  0.5264640000000 1.0
C      1  0.5602310000000  0.4476290000000  0.4672450000000 1.0
C      1  0.4390830000000  0.4491880000000  0.5318810000000 1.0
C      1  0.5605160000000  0.5497810000000  0.4683380000000 1.0
C      1  0.4412110000000  0.5510450000000  0.5329340000000 1.0
C      1  0.5073250000000  0.5517140000000  0.5630160000000 1.0
C      1  0.4940060000000  0.5528830000000  0.4384570000000 1.0
C      1  0.5057750000000  0.4473960000000  0.5616290000000 1.0
C      1  0.4929750000000  0.4481250000000  0.4367440000000 1.0
C      1  0.4703670000000  0.4441030000000  0.4550330000000 1.0
C      1  0.5279500000000  0.4432780000000  0.5435410000000 1.0
C      1  0.4716130000000  0.5579350000000  0.4563970000000 1.0
C      1  0.5295480000000  0.5556390000000  0.5447330000000 1.0
C      1  0.5037190000000  0.5260890000000  0.5068360000000 1.0
C      1  0.4862620000000  0.5200330000000  0.4855080000000 1.0
C      1  0.5140710000000  0.4834180000000  0.5114060000000 1.0
C      1  0.4925960000000  0.4762890000000  0.4943600000000 1.0
C      1  0.4517430000000  0.4861290000000  0.4425060000000 1.0
C      1  0.5484680000000  0.4837510000000  0.5579050000000 1.0
C      1  0.4518260000000  0.5165450000000  0.4425080000000 1.0
C      1  0.5484980000000  0.5140570000000  0.5578720000000 1.0
C      1  0.5422660000000  0.4732690000000  0.4344600000000 1.0
C      1  0.4575890000000  0.4733630000000  0.5656470000000 1.0
C      1  0.5454860000000  0.5271980000000  0.4306720000000 1.0
C      1  0.4558750000000  0.5275010000000  0.5700230000000 1.0
C      1  0.5523680000000  0.4420830000000  0.4934970000000 1.0
C      1  0.4459820000000  0.4429760000000  0.5054280000000 1.0
C      1  0.5542380000000  0.5566840000000  0.4947520000000 1.0
C      1  0.4480680000000  0.5580260000000  0.5066560000000 1.0
C      1  0.5222590000000  0.5150120000000  0.4187260000000 1.0
C      1  0.4786250000000  0.5142230000000  0.5817560000000 1.0
C      1  0.5213820000000  0.4858920000000  0.4182980000000 1.0
C      1  0.4785620000000  0.4850030000000  0.5820960000000 1.0
C      1  0.5017420000000  0.4901890000000  0.5367360000000 1.0
C      1  0.5012420000000  0.4794360000000  0.4671550000000 1.0
C      1  0.4912080000000  0.5176490000000  0.5306960000000 1.0
C      1  0.5013450000000  0.5097810000000  0.4640970000000 1.0
C      1  0.4724750000000  0.4869520000000  0.4221740000000 1.0
C      1  0.5277820000000  0.4844010000000  0.5783220000000 1.0
C      1  0.4725640000000  0.5156900000000  0.4221360000000 1.0
C      1  0.5276030000000  0.5132490000000  0.5780940000000 1.0
C      1  0.4663510000000  0.5036060000000  0.5225920000000 1.0
C      1  0.5292020000000  0.5085120000000  0.4736000000000 1.0
C      1  0.4745620000000  0.4795180000000  0.5360940000000 1.0
C      1  0.5299210000000  0.4803900000000  0.4659560000000 1.0
C      1  0.5672810000000  0.4856610000000  0.4435750000000 1.0
C      1  0.4334410000000  0.4868630000000  0.5562160000000 1.0
C      1  0.5674420000000  0.5130270000000  0.4433200000000 1.0
C      1  0.4333590000000  0.5142190000000  0.5571500000000 1.0
C      1  0.4839990000000  0.5640620000000  0.5516830000000 1.0
C      1  0.5178070000000  0.5629880000000  0.4504070000000 1.0
C      1  0.4823570000000  0.4354820000000  0.5502640000000 1.0
C      1  0.5162560000000  0.4354580000000  0.4482360000000 1.0
C      1  0.4258510000000  0.4741260000000  0.5317980000000 1.0
C      1  0.5744750000000  0.4723180000000  0.4678880000000 1.0
C      1  0.4255930000000  0.5274410000000  0.5326320000000 1.0
C      1  0.5750000000000  0.5254950000000  0.4681240000000 1.0
C      1  0.5757830000000  0.5139060000000  0.4946800000000 1.0
C      1  0.4249730000000  0.5162360000000  0.5058500000000 1.0
C      1  0.5751180000000  0.4838480000000  0.4944200000000 1.0
C      1  0.4243970000000  0.4856730000000  0.5055920000000 1.0
C      1  0.4966230000000  0.5303260000000  0.4209260000000 1.0
C      1  0.5042740000000  0.5285060000000  0.5795640000000 1.0
C      1  0.4958320000000  0.4716290000000  0.4201410000000 1.0
C      1  0.5037850000000  0.4698710000000  0.5793300000000 1.0
C      1  0.5254500000000  0.5082800000000  0.5018330000000 1.0
C      1  0.4723480000000  0.4971140000000  0.4956760000000 1.0
END
