TITL C-188658-9966-5 309.556067519047 125000 -754.843356733768 0 0 109 (C1) n - 1
REM
REM in /rds/project/t2_vol4/rds-t2-cs072/BORA/CARBON/from-Arr/AIRSS/Generating-Clusters/GAP-ML-2020/Higher-Symm/SD-CG/HFTN-CG
REM
REM
REM
REM
REM
REM ./C.cell (b20cbc046b6831c77cfcea5457e17084)
REM AIRSS Version 0.9.1 bugfix July 2018 build 013d7b7c2542+ Fri, 06 Jul 2018 19:26:36 +0100
REM compiler GCC version 9.3.0
REM options -cpp -mtune=generic -march=x86-64 -g -O0
REM seed -1799072142 1484485828 111807732 -726367926 69549750 -1207353069 334007770 3292546 -1134756150 -1117848116 -1901855461 -1333861324 592033884 -336256158 -55387205 1776588341 196123792 1411911116 -71952233 -1359478251 -834724271 247309795 8481297 -1807913406 -1985368585 748098186 1523392875 -291030824 1766067523 1466024757 -394498317 -2036258841 1763004935
REM
CELL 1.54180   50.00000   50.00000   50.00000   90.00000   90.00000   90.00000
LATT -1
SFAC C  
C      1  0.4653500000000  0.4451540000000  0.4497980000000 1.0
C      1  0.4430630000000  0.4512240000000  0.5590640000000 1.0
C      1  0.5322520000000  0.5358660000000  0.4250900000000 1.0
C      1  0.4948160000000  0.4449350000000  0.4563360000000 1.0
C      1  0.5065350000000  0.5353080000000  0.4562370000000 1.0
C      1  0.4827020000000  0.5470480000000  0.4274400000000 1.0
C      1  0.4652490000000  0.5508390000000  0.4526530000000 1.0
C      1  0.4771580000000  0.5214470000000  0.4157150000000 1.0
C      1  0.5231180000000  0.5799750000000  0.5484130000000 1.0
C      1  0.5271270000000  0.4641120000000  0.5757980000000 1.0
C      1  0.4448230000000  0.5624220000000  0.4944260000000 1.0
C      1  0.4795750000000  0.4111990000000  0.4844880000000 1.0
C      1  0.5484490000000  0.4790590000000  0.5344590000000 1.0
C      1  0.5306030000000  0.4919690000000  0.5719770000000 1.0
C      1  0.5695880000000  0.5007560000000  0.5327620000000 1.0
C      1  0.4571060000000  0.4873510000000  0.5089700000000 1.0
C      1  0.5545370000000  0.5346450000000  0.4429160000000 1.0
C      1  0.4745430000000  0.4821870000000  0.5331610000000 1.0
C      1  0.4330900000000  0.4973920000000  0.5549920000000 1.0
C      1  0.5428470000000  0.4396630000000  0.4435660000000 1.0
C      1  0.5547820000000  0.5508550000000  0.4674580000000 1.0
C      1  0.5106240000000  0.5537280000000  0.4327600000000 1.0
C      1  0.4118950000000  0.5005270000000  0.4655240000000 1.0
C      1  0.5495730000000  0.5366090000000  0.5632760000000 1.0
C      1  0.5445270000000  0.4309960000000  0.5399470000000 1.0
C      1  0.4818390000000  0.4087620000000  0.5150960000000 1.0
C      1  0.4719840000000  0.5543270000000  0.5692130000000 1.0
C      1  0.5371590000000  0.4625100000000  0.4298100000000 1.0
C      1  0.4968800000000  0.4670050000000  0.4808370000000 1.0
C      1  0.4741900000000  0.5581060000000  0.5371980000000 1.0
C      1  0.5170750000000  0.4261800000000  0.4995140000000 1.0
C      1  0.4942300000000  0.5878380000000  0.4651220000000 1.0
C      1  0.4601460000000  0.5299460000000  0.5803000000000 1.0
C      1  0.4100930000000  0.5136530000000  0.5104840000000 1.0
C      1  0.5093670000000  0.4558380000000  0.4317230000000 1.0
C      1  0.5325860000000  0.5922920000000  0.5222850000000 1.0
C      1  0.5141420000000  0.4888490000000  0.4703250000000 1.0
C      1  0.5841970000000  0.5025180000000  0.4622670000000 1.0
C      1  0.4493540000000  0.5691150000000  0.4682430000000 1.0
C      1  0.4389140000000  0.4387860000000  0.4861580000000 1.0
C      1  0.4979310000000  0.4585590000000  0.5756030000000 1.0
C      1  0.4330840000000  0.4447030000000  0.5134520000000 1.0
C      1  0.4310310000000  0.4733090000000  0.5153640000000 1.0
C      1  0.5445970000000  0.4198830000000  0.4914650000000 1.0
C      1  0.5853490000000  0.4993890000000  0.5092950000000 1.0
C      1  0.4916710000000  0.5752330000000  0.4910620000000 1.0
C      1  0.4744590000000  0.5055450000000  0.4684650000000 1.0
C      1  0.5836300000000  0.5181680000000  0.4880260000000 1.0
C      1  0.5623460000000  0.5715050000000  0.5343570000000 1.0
C      1  0.5928910000000  0.4773650000000  0.4701290000000 1.0
C      1  0.5216630000000  0.4883330000000  0.5427650000000 1.0
C      1  0.5184580000000  0.4209950000000  0.5439350000000 1.0
C      1  0.4831480000000  0.5092550000000  0.5404200000000 1.0
C      1  0.5454990000000  0.4545570000000  0.5544300000000 1.0
C      1  0.4436910000000  0.5224850000000  0.5591320000000 1.0
C      1  0.5464220000000  0.4908810000000  0.4261470000000 1.0
C      1  0.3965020000000  0.5038250000000  0.4888460000000 1.0
C      1  0.5573220000000  0.5461670000000  0.5183150000000 1.0
C      1  0.5862470000000  0.4726890000000  0.4965570000000 1.0
C      1  0.4679190000000  0.4796960000000  0.4823260000000 1.0
C      1  0.4676160000000  0.5711810000000  0.5106110000000 1.0
C      1  0.5344900000000  0.5706850000000  0.4719220000000 1.0
C      1  0.4982380000000  0.5012650000000  0.4206410000000 1.0
C      1  0.4283250000000  0.5235480000000  0.4680030000000 1.0
C      1  0.5212560000000  0.5741120000000  0.4992260000000 1.0
C      1  0.5391280000000  0.4737490000000  0.5060880000000 1.0
C      1  0.4993460000000  0.5069890000000  0.4532990000000 1.0
C      1  0.5625610000000  0.5267200000000  0.5399870000000 1.0
C      1  0.5154460000000  0.5770700000000  0.4512350000000 1.0
C      1  0.5238730000000  0.5476970000000  0.5155500000000 1.0
C      1  0.4623620000000  0.5298300000000  0.5355700000000 1.0
C      1  0.4815010000000  0.5091760000000  0.5873040000000 1.0
C      1  0.5058580000000  0.5258030000000  0.5850090000000 1.0
C      1  0.5124790000000  0.5209370000000  0.5050090000000 1.0
C      1  0.5122340000000  0.4577990000000  0.5056730000000 1.0
C      1  0.4784030000000  0.4807070000000  0.5802340000000 1.0
C      1  0.4649740000000  0.4647350000000  0.4273400000000 1.0
C      1  0.5048210000000  0.4211890000000  0.4718790000000 1.0
C      1  0.4871250000000  0.5478690000000  0.4745720000000 1.0
C      1  0.5053490000000  0.5586670000000  0.5422330000000 1.0
C      1  0.4954270000000  0.4397070000000  0.5511170000000 1.0
C      1  0.5593800000000  0.5975420000000  0.5253880000000 1.0
C      1  0.5643440000000  0.4569130000000  0.5046370000000 1.0
C      1  0.5327700000000  0.5187020000000  0.5795570000000 1.0
C      1  0.4721410000000  0.4241600000000  0.5372260000000 1.0
C      1  0.4541720000000  0.4762190000000  0.5612470000000 1.0
C      1  0.5091720000000  0.5113390000000  0.5317230000000 1.0
C      1  0.5092800000000  0.4080220000000  0.5206880000000 1.0
C      1  0.4275700000000  0.4794100000000  0.4519560000000 1.0
C      1  0.4187480000000  0.4939840000000  0.5309140000000 1.0
C      1  0.4454280000000  0.4618180000000  0.4679380000000 1.0
C      1  0.4440420000000  0.4849950000000  0.4289430000000 1.0
C      1  0.4572710000000  0.5193060000000  0.5081870000000 1.0
C      1  0.5587460000000  0.4305280000000  0.5132260000000 1.0
C      1  0.5682580000000  0.5411970000000  0.4907830000000 1.0
C      1  0.4332540000000  0.5326600000000  0.4959800000000 1.0
C      1  0.5296770000000  0.4987900000000  0.4910070000000 1.0
C      1  0.4454690000000  0.4340660000000  0.5377080000000 1.0
C      1  0.4822880000000  0.5240780000000  0.4912200000000 1.0
C      1  0.4907890000000  0.4727500000000  0.4193520000000 1.0
C      1  0.4511540000000  0.5249240000000  0.4519190000000 1.0
C      1  0.5471190000000  0.5649810000000  0.5583640000000 1.0
C      1  0.4999750000000  0.4657940000000  0.5322440000000 1.0
C      1  0.5656150000000  0.5085220000000  0.4411250000000 1.0
C      1  0.4577180000000  0.4231010000000  0.4714980000000 1.0
C      1  0.4523640000000  0.5116890000000  0.4258720000000 1.0
C      1  0.5371810000000  0.4225530000000  0.4639640000000 1.0
C      1  0.4988630000000  0.5501010000000  0.5721930000000 1.0
C      1  0.5264530000000  0.5088890000000  0.4167410000000 1.0
END
