TITL C-183201-6891-8 -376.989282498473 125000 -738.166378786531 0 0 104 (Cs) n - 1
REM
REM in /rds/project/t2_vol4/rds-t2-cs072/BORA/CARBON/from-Arr/AIRSS/Generating-Clusters/GAP-ML-2020/Higher-Symm/SD-CG/HFTN-CG
REM
REM
REM
REM
REM
REM ./C.cell (b20cbc046b6831c77cfcea5457e17084)
REM AIRSS Version 0.9.1 bugfix July 2018 build 013d7b7c2542+ Fri, 06 Jul 2018 19:26:36 +0100
REM compiler GCC version 9.3.0
REM options -cpp -mtune=generic -march=x86-64 -g -O0
REM seed 1971062964 2132139241 532788075 -706273891 1963842783 -312655744 -1396583070 -1534442844 514824418 -35516510 -626234620 -87834230 330359229 -1825484023 -1986843567 -283985136 1059319065 909514341 -1730101497 1310690104 -1837210782 -1658732479 1000286653 -560124415 -945082950 -1446487611 -2002491717 2128182436 483612086 259947255 1779290907 -1143983040 -1635195508
REM
CELL 1.54180   50.00000   50.00000   50.00000   90.00000   90.00000   90.00000
LATT -1
SFAC C  
C      1  0.5247490000000  0.5257090000000  0.5007380000000 1.0
C      1  0.4745460000000  0.4743780000000  0.5004620000000 1.0
C      1  0.5247290000000  0.4742720000000  0.5007430000000 1.0
C      1  0.4745660000000  0.5256420000000  0.5004570000000 1.0
C      1  0.4279000000000  0.4858620000000  0.5272770000000 1.0
C      1  0.5709900000000  0.5141720000000  0.5277560000000 1.0
C      1  0.4279100000000  0.5141980000000  0.5272740000000 1.0
C      1  0.5709790000000  0.4857800000000  0.5277580000000 1.0
C      1  0.5152830000000  0.5152270000000  0.5260980000000 1.0
C      1  0.4838030000000  0.4848160000000  0.5259110000000 1.0
C      1  0.5152720000000  0.4847660000000  0.5261010000000 1.0
C      1  0.4838140000000  0.5152010000000  0.5259090000000 1.0
C      1  0.4351620000000  0.4717950000000  0.4555590000000 1.0
C      1  0.5645160000000  0.5281910000000  0.4559730000000 1.0
C      1  0.4351830000000  0.5282450000000  0.4555540000000 1.0
C      1  0.5644950000000  0.4717530000000  0.4559780000000 1.0
C      1  0.4854350000000  0.5145110000000  0.4042910000000 1.0
C      1  0.5145630000000  0.4854670000000  0.4043620000000 1.0
C      1  0.4854250000000  0.4854820000000  0.4042940000000 1.0
C      1  0.5145740000000  0.5145040000000  0.4043590000000 1.0
C      1  0.5309010000000  0.5146930000000  0.5875380000000 1.0
C      1  0.4673470000000  0.4853560000000  0.5876680000000 1.0
C      1  0.5308900000000  0.4853000000000  0.5875410000000 1.0
C      1  0.4673580000000  0.5146840000000  0.5876650000000 1.0
C      1  0.5512500000000  0.4854220000000  0.4346670000000 1.0
C      1  0.4485780000000  0.5145730000000  0.4343370000000 1.0
C      1  0.5512610000000  0.5145280000000  0.4346640000000 1.0
C      1  0.4485670000000  0.4854530000000  0.4343390000000 1.0
C      1  0.4433630000000  0.5272340000000  0.5486500000000 1.0
C      1  0.5555100000000  0.4725940000000  0.5489920000000 1.0
C      1  0.4433420000000  0.4728170000000  0.5486550000000 1.0
C      1  0.5555300000000  0.5273740000000  0.5489870000000 1.0
C      1  0.5150340000000  0.4273810000000  0.4814820000000 1.0
C      1  0.4846570000000  0.5725140000000  0.4813490000000 1.0
C      1  0.5150890000000  0.5726040000000  0.4814680000000 1.0
C      1  0.4846030000000  0.4274940000000  0.4813620000000 1.0
C      1  0.5291680000000  0.5291710000000  0.4226310000000 1.0
C      1  0.4707210000000  0.4707900000000  0.4224500000000 1.0
C      1  0.5291460000000  0.4707930000000  0.4226360000000 1.0
C      1  0.4707430000000  0.5292180000000  0.4224440000000 1.0
C      1  0.4710230000000  0.5636630000000  0.4562500000000 1.0
C      1  0.5287240000000  0.4363710000000  0.4563920000000 1.0
C      1  0.4709750000000  0.4363510000000  0.4562620000000 1.0
C      1  0.5287720000000  0.5635990000000  0.4563800000000 1.0
C      1  0.5575400000000  0.5599400000000  0.4916160000000 1.0
C      1  0.4421140000000  0.4401410000000  0.4913250000000 1.0
C      1  0.5574940000000  0.4400150000000  0.4916270000000 1.0
C      1  0.4421590000000  0.5599000000000  0.4913140000000 1.0
C      1  0.4457840000000  0.5534430000000  0.4635200000000 1.0
C      1  0.5538980000000  0.4465590000000  0.4638970000000 1.0
C      1  0.4457430000000  0.4465900000000  0.4635300000000 1.0
C      1  0.5539380000000  0.5533940000000  0.4638870000000 1.0
C      1  0.5194570000000  0.3904160000000  0.5483920000000 1.0
C      1  0.4941180000000  0.6044190000000  0.5463070000000 1.0
C      1  0.5195400000000  0.6095780000000  0.5483710000000 1.0
C      1  0.4940390000000  0.3955930000000  0.5463260000000 1.0
C      1  0.4767740000000  0.5911840000000  0.5296050000000 1.0
C      1  0.5248350000000  0.4091720000000  0.5279380000000 1.0
C      1  0.4767050000000  0.4088390000000  0.5296210000000 1.0
C      1  0.5249030000000  0.5908140000000  0.5279210000000 1.0
C      1  0.4706110000000  0.4454860000000  0.5018500000000 1.0
C      1  0.5287040000000  0.5547280000000  0.5021870000000 1.0
C      1  0.4706520000000  0.5545360000000  0.5018400000000 1.0
C      1  0.5286630000000  0.4452510000000  0.5021970000000 1.0
C      1  0.4853180000000  0.5512930000000  0.4350050000000 1.0
C      1  0.5145260000000  0.4487290000000  0.4351380000000 1.0
C      1  0.4852800000000  0.4487060000000  0.4350140000000 1.0
C      1  0.5145640000000  0.5512480000000  0.4351290000000 1.0
C      1  0.5766400000000  0.5139080000000  0.4780810000000 1.0
C      1  0.4228690000000  0.4860770000000  0.4775650000000 1.0
C      1  0.5766290000000  0.4860300000000  0.4780830000000 1.0
C      1  0.4228800000000  0.5139760000000  0.4775630000000 1.0
C      1  0.4178120000000  0.4438840000000  0.5037130000000 1.0
C      1  0.5816370000000  0.5560160000000  0.5042700000000 1.0
C      1  0.4178540000000  0.5561790000000  0.5037020000000 1.0
C      1  0.5815940000000  0.4439230000000  0.5042800000000 1.0
C      1  0.4723850000000  0.4630350000000  0.5465680000000 1.0
C      1  0.5264630000000  0.5375890000000  0.5468540000000 1.0
C      1  0.4724130000000  0.5369940000000  0.5465610000000 1.0
C      1  0.5264350000000  0.4623990000000  0.5468610000000 1.0
C      1  0.4822060000000  0.5616400000000  0.5290870000000 1.0
C      1  0.5170040000000  0.4383670000000  0.5289680000000 1.0
C      1  0.4821590000000  0.4383790000000  0.5290980000000 1.0
C      1  0.5170500000000  0.5616250000000  0.5289570000000 1.0
C      1  0.4201910000000  0.5283240000000  0.5031540000000 1.0
C      1  0.5791110000000  0.4717420000000  0.5037190000000 1.0
C      1  0.4201690000000  0.4717370000000  0.5031590000000 1.0
C      1  0.5791320000000  0.5282000000000  0.5037140000000 1.0
C      1  0.5133260000000  0.5322260000000  0.5736130000000 1.0
C      1  0.4850940000000  0.4683610000000  0.5734630000000 1.0
C      1  0.5133020000000  0.4677780000000  0.5736190000000 1.0
C      1  0.4851180000000  0.5316640000000  0.5734580000000 1.0
C      1  0.4412710000000  0.4858230000000  0.5735130000000 1.0
C      1  0.5571490000000  0.5141860000000  0.5737390000000 1.0
C      1  0.4412820000000  0.5142350000000  0.5735100000000 1.0
C      1  0.5571390000000  0.4857850000000  0.5737420000000 1.0
C      1  0.5142990000000  0.4855360000000  0.4780120000000 1.0
C      1  0.4852810000000  0.5144370000000  0.4778210000000 1.0
C      1  0.5143100000000  0.5144490000000  0.4780100000000 1.0
C      1  0.4852700000000  0.4855700000000  0.4778230000000 1.0
C      1  0.5145990000000  0.5970370000000  0.4996940000000 1.0
C      1  0.4857600000000  0.4030000000000  0.5005560000000 1.0
C      1  0.5145260000000  0.4029520000000  0.4997110000000 1.0
C      1  0.4858330000000  0.5970110000000  0.5005380000000 1.0
END
