TITL C-188664-7808-10 -0.01245249341388 125000 -396.149467435556 0 0 60 (C5) n - 1
REM
REM in /rds/project/t2_vol4/rds-t2-cs072/BORA/CARBON/from-Arr/AIRSS/Generating-Clusters/GAP-ML-2020/Higher-Symm/SD-CG/HFTN-CG
REM
REM
REM
REM
REM
REM ./C.cell (b20cbc046b6831c77cfcea5457e17084)
REM AIRSS Version 0.9.1 bugfix July 2018 build 013d7b7c2542+ Fri, 06 Jul 2018 19:26:36 +0100
REM compiler GCC version 9.3.0
REM options -cpp -mtune=generic -march=x86-64 -g -O0
REM seed -92573081 1909074314 -720825879 -1940649060 69256548 467267344 1253583668 751535297 344608476 359447059 -162930785 1583747204 -41140845 -1420911887 -1973519414 -1098221047 -163521556 200738433 -1329290027 2042364616 833919812 -1669407839 -1077685225 89296346 1671929291 -1897423786 -1105381312 -690932486 -913059378 -813156371 1821896610 -1959124241 -1746721872
REM
CELL 1.54180   50.00000   50.00000   50.00000   90.00000   90.00000   90.00000
LATT -1
SFAC C  
C      1  0.4989100000000  0.5636920000000  0.4672070000000 1.0
C      1  0.5602420000000  0.5207240000000  0.4672180000000 1.0
C      1  0.5383290000000  0.4491160000000  0.4672140000000 1.0
C      1  0.4634550000000  0.4478280000000  0.4672010000000 1.0
C      1  0.4390930000000  0.5186400000000  0.4671960000000 1.0
C      1  0.4578940000000  0.5279710000000  0.5374300000000 1.0
C      1  0.5135860000000  0.5486820000000  0.5374400000000 1.0
C      1  0.5504930000000  0.5021160000000  0.5374470000000 1.0
C      1  0.5176110000000  0.4526260000000  0.5374420000000 1.0
C      1  0.4603820000000  0.4686050000000  0.5374310000000 1.0
C      1  0.5417010000000  0.4784340000000  0.4535400000000 1.0
C      1  0.4923810000000  0.4536840000000  0.4535320000000 1.0
C      1  0.4536020000000  0.4929410000000  0.4535240000000 1.0
C      1  0.4789550000000  0.5419530000000  0.4535290000000 1.0
C      1  0.5334030000000  0.5329870000000  0.4535390000000 1.0
C      1  0.5178770000000  0.5166900000000  0.4326410000000 1.0
C      1  0.5214060000000  0.4881670000000  0.4326420000000 1.0
C      1  0.4953690000000  0.4759970000000  0.4326370000000 1.0
C      1  0.4757490000000  0.4969980000000  0.4326340000000 1.0
C      1  0.4896600000000  0.5221480000000  0.4326360000000 1.0
C      1  0.4973960000000  0.4754920000000  0.4735430000000 1.0
C      1  0.4758900000000  0.4949070000000  0.4735390000000 1.0
C      1  0.4877100000000  0.5213600000000  0.4735410000000 1.0
C      1  0.5165200000000  0.5182940000000  0.4735460000000 1.0
C      1  0.5225070000000  0.4899460000000  0.4735470000000 1.0
C      1  0.5234520000000  0.4911470000000  0.5039900000000 1.0
C      1  0.4988270000000  0.4749590000000  0.5039860000000 1.0
C      1  0.4758210000000  0.4933770000000  0.5039820000000 1.0
C      1  0.4862290000000  0.5209480000000  0.5039830000000 1.0
C      1  0.5156670000000  0.5195690000000  0.5039890000000 1.0
C      1  0.4690510000000  0.4454930000000  0.5203050000000 1.0
C      1  0.4385950000000  0.5125880000000  0.5202990000000 1.0
C      1  0.4929940000000  0.5622860000000  0.5203090000000 1.0
C      1  0.5570700000000  0.5259080000000  0.5203200000000 1.0
C      1  0.5422730000000  0.4537260000000  0.5203180000000 1.0
C      1  0.5098310000000  0.4766470000000  0.5860930000000 1.0
C      1  0.4808170000000  0.4834190000000  0.5860870000000 1.0
C      1  0.4782920000000  0.5131050000000  0.5860870000000 1.0
C      1  0.5057450000000  0.5246810000000  0.5860920000000 1.0
C      1  0.5252370000000  0.5021490000000  0.5860950000000 1.0
C      1  0.5262720000000  0.5020410000000  0.5552620000000 1.0
C      1  0.5100530000000  0.4756350000000  0.5552600000000 1.0
C      1  0.4799270000000  0.4829010000000  0.5552540000000 1.0
C      1  0.4775280000000  0.5137970000000  0.5552540000000 1.0
C      1  0.5061700000000  0.5256270000000  0.5552590000000 1.0
C      1  0.4969610000000  0.4497630000000  0.5186050000000 1.0
C      1  0.4512800000000  0.4873630000000  0.5185970000000 1.0
C      1  0.4729230000000  0.5424270000000  0.5186010000000 1.0
C      1  0.5319810000000  0.5388590000000  0.5186110000000 1.0
C      1  0.5468370000000  0.4815890000000  0.5186140000000 1.0
C      1  0.5637460000000  0.5249780000000  0.4937100000000 1.0
C      1  0.5434550000000  0.4470940000000  0.4937070000000 1.0
C      1  0.4631120000000  0.4423240000000  0.4936920000000 1.0
C      1  0.4337490000000  0.5172610000000  0.4936870000000 1.0
C      1  0.4959440000000  0.5683430000000  0.4936980000000 1.0
C      1  0.4457040000000  0.4662610000000  0.4576820000000 1.0
C      1  0.4511400000000  0.5412200000000  0.4576820000000 1.0
C      1  0.5241090000000  0.5592140000000  0.4576960000000 1.0
C      1  0.5637710000000  0.4953760000000  0.4577030000000 1.0
C      1  0.5153150000000  0.4379280000000  0.4576940000000 1.0
END
