TITL C-187009-1039-4 -0.0645673046445688 125000 -325.791845175011 0 0 49 (C2) n - 1
REM
REM in /rds/project/t2_vol4/rds-t2-cs072/BORA/CARBON/from-Arr/AIRSS/Generating-Clusters/GAP-ML-2020/Higher-Symm/SD-CG/HFTN-CG
REM
REM
REM
REM
REM
REM ./C.cell (b20cbc046b6831c77cfcea5457e17084)
REM AIRSS Version 0.9.1 bugfix July 2018 build 013d7b7c2542+ Fri, 06 Jul 2018 19:26:36 +0100
REM compiler GCC version 9.3.0
REM options -cpp -mtune=generic -march=x86-64 -g -O0
REM seed -113993722 1329046939 968722741 -882712252 -439440071 1660679880 -766110642 -405088452 100035757 2001193668 1751294875 1954035641 -950775299 -1648661909 1185232752 1292774118 1763349514 -1099387158 37227144 67966672 1995730541 -1137353039 27564954 -1488917265 -1897495789 -1722064732 1469419730 2104819282 -529031368 593185716 1200161794 113470080 -186193590
REM
CELL 1.54180   50.00000   50.00000   50.00000   90.00000   90.00000   90.00000
LATT -1
SFAC C  
C      1  0.5545690000000  0.4755160000000  0.5215130000000 1.0
C      1  0.4462490000000  0.4755140000000  0.4782810000000 1.0
C      1  0.5075250000000  0.5613350000000  0.4750200000000 1.0
C      1  0.4932930000000  0.5613380000000  0.5247630000000 1.0
C      1  0.4648920000000  0.5287480000000  0.4757390000000 1.0
C      1  0.5359260000000  0.5287510000000  0.5240490000000 1.0
C      1  0.5607710000000  0.4789430000000  0.4800270000000 1.0
C      1  0.4400460000000  0.4789460000000  0.5197670000000 1.0
C      1  0.4427230000000  0.4992450000000  0.4969240000000 1.0
C      1  0.5580940000000  0.4992450000000  0.5028680000000 1.0
C      1  0.5211770000000  0.5225990000000  0.5469030000000 1.0
C      1  0.4796410000000  0.5225940000000  0.4528860000000 1.0
C      1  0.4768090000000  0.4499700000000  0.5023170000000 1.0
C      1  0.5240080000000  0.4499690000000  0.4974810000000 1.0
C      1  0.4983820000000  0.5350830000000  0.5347530000000 1.0
C      1  0.5024360000000  0.5350780000000  0.4650340000000 1.0
C      1  0.4722250000000  0.5669760000000  0.5037180000000 1.0
C      1  0.5285930000000  0.5669760000000  0.4960650000000 1.0
C      1  0.4547830000000  0.4785950000000  0.5424550000000 1.0
C      1  0.5460340000000  0.4785890000000  0.4573390000000 1.0
C      1  0.5225160000000  0.4622230000000  0.4515600000000 1.0
C      1  0.4783010000000  0.4622300000000  0.5482360000000 1.0
C      1  0.5297260000000  0.5010820000000  0.4513560000000 1.0
C      1  0.4710920000000  0.5010890000000  0.5484350000000 1.0
C      1  0.4844220000000  0.5116370000000  0.5236160000000 1.0
C      1  0.5163960000000  0.5116340000000  0.4761740000000 1.0
C      1  0.5076860000000  0.4921560000000  0.5190870000000 1.0
C      1  0.4931310000000  0.4921530000000  0.4807050000000 1.0
C      1  0.5112600000000  0.4451490000000  0.4705020000000 1.0
C      1  0.4895570000000  0.4451530000000  0.5292970000000 1.0
C      1  0.5516110000000  0.4584780000000  0.4982000000000 1.0
C      1  0.4492060000000  0.4584780000000  0.5015970000000 1.0
C      1  0.5173320000000  0.4919600000000  0.5488400000000 1.0
C      1  0.4834850000000  0.4919540000000  0.4509520000000 1.0
C      1  0.5146680000000  0.5789650000000  0.5176060000000 1.0
C      1  0.4861500000000  0.5789630000000  0.4821750000000 1.0
C      1  0.4362470000000  0.5278120000000  0.4915500000000 1.0
C      1  0.5645710000000  0.5278120000000  0.5082380000000 1.0
C      1  0.5332470000000  0.4691390000000  0.5387680000000 1.0
C      1  0.4675710000000  0.4691340000000  0.4610280000000 1.0
C      1  0.4921500000000  0.4846200000000  0.5602680000000 1.0
C      1  0.5086670000000  0.4846130000000  0.4395250000000 1.0
C      1  0.4727830000000  0.5071150000000  0.4959660000000 1.0
C      1  0.5280350000000  0.5071150000000  0.5038250000000 1.0
C      1  0.5481730000000  0.5497660000000  0.5086720000000 1.0
C      1  0.4526450000000  0.5497660000000  0.4911130000000 1.0
C      1  0.5183860000000  0.4459670000000  0.5271450000000 1.0
C      1  0.4824310000000  0.4459640000000  0.4726530000000 1.0
C      1  0.5004090000000  0.4707930000000  0.4998970000000 1.0
END
