TITL C-180225-5339-5 130.657934305086 125000 -387.01889816025 0 0 57 (C1) n - 1
REM
REM in /rds/project/t2_vol4/rds-t2-cs072/BORA/CARBON/from-Arr/AIRSS/Generating-Clusters/GAP-ML-2020/Higher-Symm/SD-CG/HFTN-CG
REM
REM
REM
REM
REM
REM ./C.cell (b20cbc046b6831c77cfcea5457e17084)
REM AIRSS Version 0.9.1 bugfix July 2018 build 013d7b7c2542+ Fri, 06 Jul 2018 19:26:36 +0100
REM compiler GCC version 9.3.0
REM options -cpp -mtune=generic -march=x86-64 -g -O0
REM seed -114433773 944265645 -457369484 -1411491981 -1772169724 1514466729 528756276 -954877245 841248829 -1894623271 -1132891368 1075996076 163868682 -1640223143 1397394874 2113851253 1207610890 920069224 326646390 -1551187182 -905198148 -419868418 1130006709 -205156173 -1636792409 -460787383 -643559036 1344658069 1886316910 -59781282 261423851 494330996 -962869431
REM
CELL 1.54180   50.00000   50.00000   50.00000   90.00000   90.00000   90.00000
LATT -1
SFAC C  
C      1  0.4830240000000  0.4708750000000  0.4548600000000 1.0
C      1  0.5230760000000  0.4815170000000  0.4783230000000 1.0
C      1  0.5334340000000  0.4670880000000  0.5271270000000 1.0
C      1  0.4861740000000  0.4643890000000  0.5365930000000 1.0
C      1  0.4550530000000  0.4636390000000  0.4985420000000 1.0
C      1  0.5090480000000  0.5372050000000  0.4534510000000 1.0
C      1  0.4645810000000  0.5413150000000  0.4697020000000 1.0
C      1  0.4630330000000  0.5371450000000  0.5190200000000 1.0
C      1  0.5083640000000  0.5359570000000  0.5366400000000 1.0
C      1  0.5412250000000  0.5336280000000  0.4975160000000 1.0
C      1  0.5453540000000  0.4912920000000  0.4226160000000 1.0
C      1  0.5701520000000  0.5065890000000  0.5286540000000 1.0
C      1  0.5076780000000  0.5006730000000  0.5750910000000 1.0
C      1  0.4369670000000  0.4963740000000  0.5556580000000 1.0
C      1  0.4297110000000  0.4990290000000  0.4546570000000 1.0
C      1  0.4475170000000  0.4989400000000  0.4352420000000 1.0
C      1  0.4287290000000  0.4925810000000  0.5314380000000 1.0
C      1  0.4834680000000  0.4984730000000  0.5841870000000 1.0
C      1  0.5729240000000  0.5010490000000  0.5537360000000 1.0
C      1  0.5660700000000  0.4847970000000  0.4382560000000 1.0
C      1  0.5435480000000  0.4579800000000  0.5020110000000 1.0
C      1  0.5116790000000  0.4510140000000  0.5355960000000 1.0
C      1  0.4694700000000  0.4498770000000  0.5188040000000 1.0
C      1  0.4665520000000  0.4558190000000  0.4730480000000 1.0
C      1  0.5100820000000  0.4630990000000  0.4605400000000 1.0
C      1  0.4590380000000  0.5534460000000  0.4951350000000 1.0
C      1  0.4842000000000  0.5506400000000  0.5332130000000 1.0
C      1  0.5284870000000  0.5477850000000  0.5198430000000 1.0
C      1  0.5302100000000  0.5464140000000  0.4732340000000 1.0
C      1  0.4864370000000  0.5548840000000  0.4572400000000 1.0
C      1  0.5088750000000  0.5076500000000  0.5443670000000 1.0
C      1  0.4665760000000  0.5078610000000  0.5170630000000 1.0
C      1  0.4678590000000  0.5126250000000  0.4718710000000 1.0
C      1  0.5022850000000  0.5132390000000  0.4378010000000 1.0
C      1  0.5504800000000  0.5063760000000  0.5083390000000 1.0
C      1  0.4810090000000  0.4937330000000  0.5398220000000 1.0
C      1  0.5257660000000  0.4947850000000  0.5233000000000 1.0
C      1  0.5512160000000  0.4818740000000  0.4862770000000 1.0
C      1  0.4769020000000  0.4985110000000  0.4462870000000 1.0
C      1  0.4427910000000  0.4896920000000  0.5061620000000 1.0
C      1  0.5289480000000  0.4343600000000  0.4947400000000 1.0
C      1  0.5108690000000  0.4286290000000  0.5172100000000 1.0
C      1  0.4840750000000  0.4274550000000  0.5072200000000 1.0
C      1  0.4837040000000  0.4312980000000  0.4792910000000 1.0
C      1  0.5107170000000  0.4360210000000  0.4711270000000 1.0
C      1  0.4746430000000  0.5780780000000  0.4963290000000 1.0
C      1  0.4910960000000  0.5758410000000  0.5196550000000 1.0
C      1  0.5187600000000  0.5737780000000  0.5108560000000 1.0
C      1  0.5204860000000  0.5736620000000  0.4820390000000 1.0
C      1  0.4933110000000  0.5779290000000  0.4728080000000 1.0
C      1  0.5215040000000  0.5000400000000  0.4231020000000 1.0
C      1  0.5684740000000  0.4824750000000  0.4635300000000 1.0
C      1  0.4633060000000  0.4960200000000  0.5643710000000 1.0
C      1  0.4406280000000  0.5032550000000  0.4797640000000 1.0
C      1  0.5630270000000  0.4951500000000  0.5769730000000 1.0
C      1  0.5082320000000  0.4927490000000  0.4986380000000 1.0
C      1  0.4846670000000  0.5053040000000  0.4948660000000 1.0
END
