TITL C-180437-1588-8 0.0604400359037923 125000 -503.187313694901 0 0 73 (C3) n - 1
REM
REM in /rds/project/t2_vol4/rds-t2-cs072/BORA/CARBON/from-Arr/AIRSS/Generating-Clusters/GAP-ML-2020/Higher-Symm/SD-CG/HFTN-CG
REM
REM
REM
REM
REM
REM ./C.cell (b20cbc046b6831c77cfcea5457e17084)
REM AIRSS Version 0.9.1 bugfix July 2018 build 013d7b7c2542+ Fri, 06 Jul 2018 19:26:36 +0100
REM compiler GCC version 9.3.0
REM options -cpp -mtune=generic -march=x86-64 -g -O0
REM seed -647343006 -706570882 -756386528 -591007042 1724257056 -241799885 -1441324619 1519420498 -647299269 -613611686 -864114828 -1532951090 860455334 171462228 -1309339249 353069395 -1017995105 -1723176501 -1449176141 -763544992 -680047683 2017876112 1050290600 -110214998 -97522848 1247448430 1573885175 -577377644 622212479 -897101857 -719517198 2024861732 -2090488468
REM
CELL 1.54180   50.00000   50.00000   50.00000   90.00000   90.00000   90.00000
LATT -1
SFAC C  
C      1  0.5223830000000  0.5624770000000  0.4575980000000 1.0
C      1  0.5408260000000  0.4475400000000  0.4597960000000 1.0
C      1  0.4321240000000  0.4891270000000  0.4629530000000 1.0
C      1  0.5457280000000  0.5463510000000  0.4600270000000 1.0
C      1  0.5153190000000  0.4355990000000  0.4640120000000 1.0
C      1  0.4346250000000  0.5174150000000  0.4650650000000 1.0
C      1  0.5542510000000  0.4966120000000  0.4484780000000 1.0
C      1  0.4675580000000  0.4522350000000  0.4529610000000 1.0
C      1  0.4724160000000  0.5495720000000  0.4503060000000 1.0
C      1  0.4529460000000  0.4769950000000  0.4465950000000 1.0
C      1  0.5009150000000  0.5493800000000  0.4429030000000 1.0
C      1  0.5396320000000  0.4715660000000  0.4433750000000 1.0
C      1  0.5141310000000  0.4255170000000  0.4920540000000 1.0
C      1  0.4274910000000  0.5254760000000  0.4928770000000 1.0
C      1  0.5572670000000  0.5504760000000  0.4872160000000 1.0
C      1  0.4701120000000  0.4650760000000  0.5575430000000 1.0
C      1  0.4860430000000  0.5484290000000  0.5548130000000 1.0
C      1  0.5502460000000  0.4928800000000  0.5537340000000 1.0
C      1  0.5267600000000  0.5614490000000  0.5303590000000 1.0
C      1  0.5403800000000  0.4494710000000  0.5326690000000 1.0
C      1  0.4366470000000  0.4937540000000  0.5355650000000 1.0
C      1  0.4917500000000  0.5641800000000  0.4922020000000 1.0
C      1  0.5587970000000  0.4756170000000  0.4918490000000 1.0
C      1  0.4486650000000  0.4618850000000  0.4964640000000 1.0
C      1  0.5770110000000  0.4777710000000  0.5150890000000 1.0
C      1  0.4423040000000  0.4467400000000  0.5210940000000 1.0
C      1  0.4826810000000  0.5789920000000  0.5161780000000 1.0
C      1  0.5117030000000  0.4889230000000  0.4765130000000 1.0
C      1  0.4830840000000  0.4948200000000  0.4774720000000 1.0
C      1  0.5024740000000  0.5166620000000  0.4761670000000 1.0
C      1  0.4775250000000  0.4928840000000  0.5543700000000 1.0
C      1  0.5063370000000  0.5279230000000  0.5523660000000 1.0
C      1  0.5222870000000  0.4854120000000  0.5528260000000 1.0
C      1  0.4266800000000  0.4794340000000  0.4890430000000 1.0
C      1  0.5176330000000  0.5738790000000  0.4831260000000 1.0
C      1  0.5539910000000  0.4477750000000  0.4849130000000 1.0
C      1  0.5985650000000  0.4935890000000  0.5083050000000 1.0
C      1  0.4450380000000  0.4197470000000  0.5161230000000 1.0
C      1  0.4577490000000  0.5897460000000  0.5113230000000 1.0
C      1  0.5335360000000  0.5391660000000  0.5494910000000 1.0
C      1  0.5183870000000  0.4561060000000  0.5521830000000 1.0
C      1  0.4540470000000  0.5108310000000  0.5532880000000 1.0
C      1  0.4958040000000  0.4509610000000  0.4492090000000 1.0
C      1  0.4571170000000  0.5255450000000  0.4488170000000 1.0
C      1  0.5409910000000  0.5217080000000  0.4456650000000 1.0
C      1  0.5702830000000  0.4928990000000  0.4711970000000 1.0
C      1  0.4571790000000  0.4418650000000  0.4768720000000 1.0
C      1  0.4694570000000  0.5654180000000  0.4732650000000 1.0
C      1  0.5606200000000  0.4708890000000  0.5369600000000 1.0
C      1  0.4452870000000  0.4658930000000  0.5415550000000 1.0
C      1  0.4985310000000  0.5683190000000  0.5368960000000 1.0
C      1  0.4643040000000  0.4188950000000  0.4941360000000 1.0
C      1  0.4466290000000  0.5719620000000  0.4909420000000 1.0
C      1  0.5879540000000  0.5106120000000  0.4870220000000 1.0
C      1  0.5380100000000  0.4358770000000  0.5066490000000 1.0
C      1  0.4251080000000  0.5007260000000  0.5093800000000 1.0
C      1  0.5376000000000  0.5660640000000  0.5033660000000 1.0
C      1  0.5153710000000  0.4924890000000  0.5217660000000 1.0
C      1  0.4859800000000  0.4931050000000  0.5228890000000 1.0
C      1  0.5011840000000  0.5182610000000  0.5216620000000 1.0
C      1  0.4714600000000  0.4847460000000  0.5007440000000 1.0
C      1  0.5003700000000  0.5333910000000  0.4983920000000 1.0
C      1  0.5280490000000  0.4839800000000  0.4985710000000 1.0
C      1  0.5118580000000  0.5237070000000  0.4451170000000 1.0
C      1  0.5120180000000  0.4750850000000  0.4463430000000 1.0
C      1  0.4698480000000  0.4992990000000  0.4473630000000 1.0
C      1  0.5795960000000  0.5358310000000  0.4924280000000 1.0
C      1  0.4905130000000  0.4139140000000  0.4989690000000 1.0
C      1  0.4294400000000  0.5521570000000  0.4978310000000 1.0
C      1  0.4931000000000  0.4497190000000  0.5598690000000 1.0
C      1  0.4613770000000  0.5364060000000  0.5589010000000 1.0
C      1  0.5522520000000  0.5204740000000  0.5557840000000 1.0
C      1  0.5025040000000  0.5023700000000  0.5649210000000 1.0
END
