TITL C-180244-8536-2 61.2702314034183 125000 -398.500736320988 0 0 59 (C1) n - 1
REM
REM in /rds/project/t2_vol4/rds-t2-cs072/BORA/CARBON/from-Arr/AIRSS/Generating-Clusters/GAP-ML-2020/Higher-Symm/SD-CG/HFTN-CG
REM
REM
REM
REM
REM
REM ./C.cell (b20cbc046b6831c77cfcea5457e17084)
REM AIRSS Version 0.9.1 bugfix July 2018 build 013d7b7c2542+ Fri, 06 Jul 2018 19:26:36 +0100
REM compiler GCC version 9.3.0
REM options -cpp -mtune=generic -march=x86-64 -g -O0
REM seed -1172586818 6590880 1808570836 -2082901671 1076406113 672443658 -1436089334 -913060939 1092286720 317454635 1472329291 1560376734 342964029 1357716753 -1629032269 1839828124 -1898384855 -51783412 185039524 1150718997 1687346447 -410680462 -23146956 -959070694 -203964075 1069293797 -448852410 1614617580 -1917771712 949654472 -365392428 1355921184 -444097778
REM
CELL 1.54180   50.00000   50.00000   50.00000   90.00000   90.00000   90.00000
LATT -1
SFAC C  
C      1  0.5108220000000  0.4364000000000  0.4687120000000 1.0
C      1  0.5168010000000  0.5639500000000  0.4725800000000 1.0
C      1  0.5192280000000  0.4512100000000  0.4446430000000 1.0
C      1  0.5301420000000  0.5484100000000  0.4522570000000 1.0
C      1  0.4842450000000  0.5404570000000  0.4494660000000 1.0
C      1  0.4726610000000  0.4530940000000  0.4476160000000 1.0
C      1  0.5241710000000  0.5513600000000  0.4972540000000 1.0
C      1  0.5216600000000  0.4507810000000  0.4906730000000 1.0
C      1  0.4990720000000  0.4737350000000  0.5585850000000 1.0
C      1  0.5026590000000  0.5243850000000  0.5592340000000 1.0
C      1  0.4886620000000  0.4776810000000  0.5045860000000 1.0
C      1  0.4887420000000  0.5221820000000  0.5045900000000 1.0
C      1  0.4718100000000  0.5628220000000  0.4872980000000 1.0
C      1  0.4698500000000  0.4341950000000  0.4887720000000 1.0
C      1  0.5037730000000  0.5447090000000  0.5159270000000 1.0
C      1  0.5104860000000  0.4614480000000  0.5161240000000 1.0
C      1  0.4887360000000  0.5638840000000  0.4661610000000 1.0
C      1  0.4822860000000  0.4314290000000  0.4651640000000 1.0
C      1  0.4636890000000  0.5211440000000  0.4637650000000 1.0
C      1  0.4614620000000  0.4748750000000  0.4655410000000 1.0
C      1  0.5397480000000  0.4695380000000  0.4516410000000 1.0
C      1  0.5512980000000  0.5335370000000  0.4640110000000 1.0
C      1  0.4536870000000  0.4743120000000  0.5599950000000 1.0
C      1  0.4548350000000  0.5215690000000  0.5601780000000 1.0
C      1  0.4625060000000  0.4590940000000  0.5386710000000 1.0
C      1  0.4618890000000  0.5382110000000  0.5391910000000 1.0
C      1  0.4643820000000  0.4621220000000  0.4932230000000 1.0
C      1  0.4644070000000  0.5350990000000  0.4918880000000 1.0
C      1  0.4774100000000  0.4786620000000  0.5763810000000 1.0
C      1  0.4785650000000  0.5168640000000  0.5759420000000 1.0
C      1  0.4489190000000  0.5279620000000  0.5151930000000 1.0
C      1  0.4486930000000  0.4695090000000  0.5159620000000 1.0
C      1  0.5368060000000  0.4722980000000  0.4797330000000 1.0
C      1  0.5402080000000  0.5285190000000  0.4895530000000 1.0
C      1  0.4920870000000  0.4549910000000  0.5388680000000 1.0
C      1  0.4902270000000  0.5442500000000  0.5404460000000 1.0
C      1  0.5101510000000  0.5332620000000  0.4390060000000 1.0
C      1  0.4957540000000  0.4621250000000  0.4328410000000 1.0
C      1  0.5275300000000  0.4890570000000  0.5233470000000 1.0
C      1  0.5303780000000  0.5246460000000  0.5680600000000 1.0
C      1  0.4418880000000  0.4982970000000  0.4688230000000 1.0
C      1  0.4999070000000  0.5000630000000  0.4875220000000 1.0
C      1  0.5182200000000  0.5067380000000  0.4309910000000 1.0
C      1  0.5550180000000  0.4947770000000  0.5354200000000 1.0
C      1  0.5632470000000  0.5108370000000  0.4523440000000 1.0
C      1  0.4271490000000  0.4997250000000  0.4925460000000 1.0
C      1  0.4957450000000  0.4905400000000  0.4349570000000 1.0
C      1  0.5492090000000  0.5107190000000  0.5582100000000 1.0
C      1  0.4406790000000  0.4984140000000  0.5501460000000 1.0
C      1  0.5289220000000  0.4989290000000  0.4937080000000 1.0
C      1  0.5773850000000  0.4944890000000  0.5184320000000 1.0
C      1  0.5437580000000  0.4949960000000  0.4378850000000 1.0
C      1  0.5057410000000  0.4980260000000  0.5427540000000 1.0
C      1  0.4830090000000  0.4999700000000  0.5254410000000 1.0
C      1  0.5831170000000  0.4976550000000  0.4934730000000 1.0
C      1  0.5835960000000  0.5002000000000  0.4673990000000 1.0
C      1  0.4826170000000  0.4969760000000  0.4615760000000 1.0
C      1  0.4776880000000  0.4978890000000  0.5950400000000 1.0
C      1  0.4383370000000  0.4986890000000  0.5191810000000 1.0
END
