TITL C-188681-8660-2 -52.9884209584476 125000 -922.630431722138 0 0 130 (C1) n - 1
REM
REM in /rds/project/t2_vol4/rds-t2-cs072/BORA/CARBON/from-Arr/AIRSS/Generating-Clusters/GAP-ML-2020/Higher-Symm/SD-CG/HFTN-CG
REM
REM
REM
REM
REM
REM ./C.cell (b20cbc046b6831c77cfcea5457e17084)
REM AIRSS Version 0.9.1 bugfix July 2018 build 013d7b7c2542+ Fri, 06 Jul 2018 19:26:36 +0100
REM compiler GCC version 9.3.0
REM options -cpp -mtune=generic -march=x86-64 -g -O0
REM seed -967467566 319346067 1284215565 1319031120 -2100178532 -1895226115 -610721290 1943499610 967939853 -1744241747 -362304919 2096826773 922292857 -1698017579 -1405661115 -167457800 -309656911 -792399044 -1154807350 -759117402 49405266 144918606 -1619050950 -56587202 -1015793022 -1304399713 -743759681 1839062122 -176199910 262903432 1810444434 1046010176 -1359920234
REM
CELL 1.54180   50.00000   50.00000   50.00000   90.00000   90.00000   90.00000
LATT -1
SFAC C  
C      1  0.5065190000000  0.4571760000000  0.5844230000000 1.0
C      1  0.4188660000000  0.4589980000000  0.4632130000000 1.0
C      1  0.5702610000000  0.4563180000000  0.4507650000000 1.0
C      1  0.5076070000000  0.5423300000000  0.5847090000000 1.0
C      1  0.4216250000000  0.5449200000000  0.4657130000000 1.0
C      1  0.5733610000000  0.5420310000000  0.4486010000000 1.0
C      1  0.5553340000000  0.5379180000000  0.4243630000000 1.0
C      1  0.5368030000000  0.5382610000000  0.5816930000000 1.0
C      1  0.4085460000000  0.5401530000000  0.4920420000000 1.0
C      1  0.5546060000000  0.4609040000000  0.4265380000000 1.0
C      1  0.5353220000000  0.4628290000000  0.5831780000000 1.0
C      1  0.4070710000000  0.4640540000000  0.4894350000000 1.0
C      1  0.4853410000000  0.5243050000000  0.5912340000000 1.0
C      1  0.4270020000000  0.5269450000000  0.4429110000000 1.0
C      1  0.5881200000000  0.5234530000000  0.4653230000000 1.0
C      1  0.4835070000000  0.4735590000000  0.5906000000000 1.0
C      1  0.4254960000000  0.4767780000000  0.4409850000000 1.0
C      1  0.5883890000000  0.4728280000000  0.4668500000000 1.0
C      1  0.4803310000000  0.4731910000000  0.5164700000000 1.0
C      1  0.4932400000000  0.4799260000000  0.4725720000000 1.0
C      1  0.5241360000000  0.4692800000000  0.5045300000000 1.0
C      1  0.4719980000000  0.5266260000000  0.5212380000000 1.0
C      1  0.4994610000000  0.5110510000000  0.4716410000000 1.0
C      1  0.5323870000000  0.5234470000000  0.5110260000000 1.0
C      1  0.4977860000000  0.5614890000000  0.5663810000000 1.0
C      1  0.4426990000000  0.5644120000000  0.4669630000000 1.0
C      1  0.5616590000000  0.5609360000000  0.4666030000000 1.0
C      1  0.4978300000000  0.4387440000000  0.5641640000000 1.0
C      1  0.4390390000000  0.4385970000000  0.4646600000000 1.0
C      1  0.5579510000000  0.4378670000000  0.4689010000000 1.0
C      1  0.5198570000000  0.5619550000000  0.5442940000000 1.0
C      1  0.4490760000000  0.5658050000000  0.4973370000000 1.0
C      1  0.5332670000000  0.5609740000000  0.4575980000000 1.0
C      1  0.5215740000000  0.4395860000000  0.5455350000000 1.0
C      1  0.4384610000000  0.4286330000000  0.4925960000000 1.0
C      1  0.5289980000000  0.4382870000000  0.4586500000000 1.0
C      1  0.4683990000000  0.5580390000000  0.5641650000000 1.0
C      1  0.4621360000000  0.5585130000000  0.4449430000000 1.0
C      1  0.5705110000000  0.5565430000000  0.4938210000000 1.0
C      1  0.4688300000000  0.4409180000000  0.5597950000000 1.0
C      1  0.4589290000000  0.4437090000000  0.4435130000000 1.0
C      1  0.5706860000000  0.4399840000000  0.4954250000000 1.0
C      1  0.5035050000000  0.4476580000000  0.4222340000000 1.0
C      1  0.5678970000000  0.4470420000000  0.5449400000000 1.0
C      1  0.4267020000000  0.4467680000000  0.5343680000000 1.0
C      1  0.5057460000000  0.5539810000000  0.4218000000000 1.0
C      1  0.5665880000000  0.5536230000000  0.5423000000000 1.0
C      1  0.4260910000000  0.5547920000000  0.5384750000000 1.0
C      1  0.4580290000000  0.4816360000000  0.5023640000000 1.0
C      1  0.5211840000000  0.4719840000000  0.4604650000000 1.0
C      1  0.5227910000000  0.4732580000000  0.5333820000000 1.0
C      1  0.4692370000000  0.5417750000000  0.4982720000000 1.0
C      1  0.5309500000000  0.5292770000000  0.4600340000000 1.0
C      1  0.5148230000000  0.5352450000000  0.5281790000000 1.0
C      1  0.4568220000000  0.5841870000000  0.5209560000000 1.0
C      1  0.5088480000000  0.5769870000000  0.4616360000000 1.0
C      1  0.5325290000000  0.5792730000000  0.5229570000000 1.0
C      1  0.4573810000000  0.4193880000000  0.5122640000000 1.0
C      1  0.5036070000000  0.4219600000000  0.4603480000000 1.0
C      1  0.5355170000000  0.4198670000000  0.5282190000000 1.0
C      1  0.4715440000000  0.6229260000000  0.4957260000000 1.0
C      1  0.5049280000000  0.5969960000000  0.4803640000000 1.0
C      1  0.4989740000000  0.6121660000000  0.5257610000000 1.0
C      1  0.4813120000000  0.4047120000000  0.5067170000000 1.0
C      1  0.5183820000000  0.3854370000000  0.4849740000000 1.0
C      1  0.5248500000000  0.3949450000000  0.5224100000000 1.0
C      1  0.4965790000000  0.4881750000000  0.5345440000000 1.0
C      1  0.4660180000000  0.4927250000000  0.4780560000000 1.0
C      1  0.5353180000000  0.4854190000000  0.4835510000000 1.0
C      1  0.4956780000000  0.5160070000000  0.5309140000000 1.0
C      1  0.4742920000000  0.5207910000000  0.4810560000000 1.0
C      1  0.5271540000000  0.5138550000000  0.4845480000000 1.0
C      1  0.4421550000000  0.5135900000000  0.5616240000000 1.0
C      1  0.4715160000000  0.5155390000000  0.4185270000000 1.0
C      1  0.5821900000000  0.5125550000000  0.5174470000000 1.0
C      1  0.4388000000000  0.4826530000000  0.5667310000000 1.0
C      1  0.4712120000000  0.4866210000000  0.4183140000000 1.0
C      1  0.5899270000000  0.4822660000000  0.5180860000000 1.0
C      1  0.5547080000000  0.5162690000000  0.5831740000000 1.0
C      1  0.3973090000000  0.5177820000000  0.5063680000000 1.0
C      1  0.5472040000000  0.5156610000000  0.4089880000000 1.0
C      1  0.5505220000000  0.4873070000000  0.5765500000000 1.0
C      1  0.4058710000000  0.4888140000000  0.5051510000000 1.0
C      1  0.5434500000000  0.4863670000000  0.4153500000000 1.0
C      1  0.4231460000000  0.5567580000000  0.5097910000000 1.0
C      1  0.5337310000000  0.5568460000000  0.4284080000000 1.0
C      1  0.5442220000000  0.5552460000000  0.5600640000000 1.0
C      1  0.4186850000000  0.4437540000000  0.5067270000000 1.0
C      1  0.5314580000000  0.4431690000000  0.4295400000000 1.0
C      1  0.5453550000000  0.4445170000000  0.5634430000000 1.0
C      1  0.5848040000000  0.4703380000000  0.5439280000000 1.0
C      1  0.4192990000000  0.4703870000000  0.5494200000000 1.0
C      1  0.4981970000000  0.4752990000000  0.4149030000000 1.0
C      1  0.5830730000000  0.5300010000000  0.5430040000000 1.0
C      1  0.4182620000000  0.5301750000000  0.5511830000000 1.0
C      1  0.4992650000000  0.5264600000000  0.4165040000000 1.0
C      1  0.5609400000000  0.4321510000000  0.5214750000000 1.0
C      1  0.4513720000000  0.4322930000000  0.5380150000000 1.0
C      1  0.4863970000000  0.4349720000000  0.4408380000000 1.0
C      1  0.5588530000000  0.5669410000000  0.5182020000000 1.0
C      1  0.4498700000000  0.5693690000000  0.5448120000000 1.0
C      1  0.4898480000000  0.5658400000000  0.4421860000000 1.0
C      1  0.5363920000000  0.3772720000000  0.5010100000000 1.0
C      1  0.4963000000000  0.3946640000000  0.5275890000000 1.0
C      1  0.4974830000000  0.4028550000000  0.4801080000000 1.0
C      1  0.5159250000000  0.5973170000000  0.5090100000000 1.0
C      1  0.4714160000000  0.6080340000000  0.5196090000000 1.0
C      1  0.4852360000000  0.6176540000000  0.4750320000000 1.0
C      1  0.4491600000000  0.5130740000000  0.5314900000000 1.0
C      1  0.5109100000000  0.5142270000000  0.4445100000000 1.0
C      1  0.5523730000000  0.5092330000000  0.5251320000000 1.0
C      1  0.4375220000000  0.4950040000000  0.5135780000000 1.0
C      1  0.5198660000000  0.4882670000000  0.4368990000000 1.0
C      1  0.5425700000000  0.4903650000000  0.5436760000000 1.0
C      1  0.5198170000000  0.5151850000000  0.3981630000000 1.0
C      1  0.5793890000000  0.5157240000000  0.5670270000000 1.0
C      1  0.3993080000000  0.5160660000000  0.5358000000000 1.0
C      1  0.5189090000000  0.4864230000000  0.3975640000000 1.0
C      1  0.5793850000000  0.4866420000000  0.5662210000000 1.0
C      1  0.4013770000000  0.4868870000000  0.5351810000000 1.0
C      1  0.4620610000000  0.5321770000000  0.5753280000000 1.0
C      1  0.4530740000000  0.5343070000000  0.4312470000000 1.0
C      1  0.5842460000000  0.5310110000000  0.4935800000000 1.0
C      1  0.4604490000000  0.4648570000000  0.5744000000000 1.0
C      1  0.4514860000000  0.4685340000000  0.4303090000000 1.0
C      1  0.5864860000000  0.4645330000000  0.4950880000000 1.0
C      1  0.4162270000000  0.5021840000000  0.4384300000000 1.0
C      1  0.4868230000000  0.4987050000000  0.5997830000000 1.0
C      1  0.5957680000000  0.4979710000000  0.4599740000000 1.0
C      1  0.4977400000000  0.4634040000000  0.4965720000000 1.0
END
