TITL C-188665-7784-3 -83.5578105319017 125000 -469.993305551981 0 0 68 (C1) n - 1
REM
REM in /rds/project/t2_vol4/rds-t2-cs072/BORA/CARBON/from-Arr/AIRSS/Generating-Clusters/GAP-ML-2020/Higher-Symm/SD-CG/HFTN-CG
REM
REM
REM
REM
REM
REM ./C.cell (b20cbc046b6831c77cfcea5457e17084)
REM AIRSS Version 0.9.1 bugfix July 2018 build 013d7b7c2542+ Fri, 06 Jul 2018 19:26:36 +0100
REM compiler GCC version 9.3.0
REM options -cpp -mtune=generic -march=x86-64 -g -O0
REM seed 424321953 425998779 1101195872 -1619680001 1343252829 671598756 1144158669 -415176371 18579492 -1739317097 1491715138 1137825979 -721340269 -452375602 -1466633669 -229516903 -1019504656 987687975 39453997 -740623647 469646543 -1224774121 -1801442725 349085001 740836044 -1896371455 1983491799 825049346 -70451110 253093133 -155802650 -464147866 -1131919938
REM
CELL 1.54180   50.00000   50.00000   50.00000   90.00000   90.00000   90.00000
LATT -1
SFAC C  
C      1  0.5456710000000  0.5291640000000  0.5371250000000 1.0
C      1  0.5669430000000  0.5351110000000  0.4931360000000 1.0
C      1  0.5289980000000  0.5307280000000  0.4518040000000 1.0
C      1  0.4805860000000  0.5325160000000  0.4489140000000 1.0
C      1  0.4369960000000  0.5315420000000  0.4826360000000 1.0
C      1  0.4496280000000  0.5355970000000  0.5329000000000 1.0
C      1  0.4955480000000  0.5316780000000  0.5549990000000 1.0
C      1  0.4267500000000  0.4883730000000  0.5250780000000 1.0
C      1  0.4750530000000  0.4881120000000  0.5713800000000 1.0
C      1  0.5428320000000  0.4875420000000  0.5625420000000 1.0
C      1  0.5775980000000  0.4853910000000  0.5090950000000 1.0
C      1  0.5511630000000  0.4875730000000  0.4478450000000 1.0
C      1  0.4913850000000  0.4867980000000  0.4247700000000 1.0
C      1  0.4332490000000  0.4877330000000  0.4623600000000 1.0
C      1  0.4702620000000  0.5431320000000  0.5503130000000 1.0
C      1  0.5266610000000  0.5338850000000  0.5606350000000 1.0
C      1  0.5595890000000  0.5451010000000  0.5167820000000 1.0
C      1  0.5570140000000  0.5330610000000  0.4647710000000 1.0
C      1  0.5048590000000  0.5460890000000  0.4443590000000 1.0
C      1  0.4497290000000  0.5320950000000  0.4574130000000 1.0
C      1  0.4497500000000  0.5442400000000  0.5052330000000 1.0
C      1  0.5782450000000  0.5061890000000  0.4894890000000 1.0
C      1  0.5332270000000  0.5054790000000  0.4341100000000 1.0
C      1  0.4729410000000  0.5069420000000  0.4336040000000 1.0
C      1  0.4226630000000  0.5052220000000  0.4835250000000 1.0
C      1  0.4387620000000  0.5090380000000  0.5425230000000 1.0
C      1  0.4962360000000  0.5075950000000  0.5742210000000 1.0
C      1  0.5621550000000  0.5032120000000  0.5476660000000 1.0
C      1  0.4401710000000  0.4622270000000  0.5225280000000 1.0
C      1  0.4797460000000  0.4616170000000  0.5597700000000 1.0
C      1  0.5341830000000  0.4618070000000  0.5521470000000 1.0
C      1  0.5618550000000  0.4609110000000  0.5056650000000 1.0
C      1  0.5424490000000  0.4613440000000  0.4558020000000 1.0
C      1  0.4911010000000  0.4610730000000  0.4387500000000 1.0
C      1  0.4443640000000  0.4616000000000  0.4683790000000 1.0
C      1  0.5093620000000  0.4307410000000  0.4693730000000 1.0
C      1  0.4807590000000  0.4313680000000  0.4731420000000 1.0
C      1  0.4659590000000  0.4317780000000  0.4975120000000 1.0
C      1  0.4760910000000  0.4318150000000  0.5240400000000 1.0
C      1  0.5034960000000  0.4315390000000  0.5326850000000 1.0
C      1  0.5275980000000  0.4311130000000  0.5172110000000 1.0
C      1  0.5303040000000  0.4307730000000  0.4889040000000 1.0
C      1  0.4892290000000  0.5307960000000  0.4796360000000 1.0
C      1  0.4760600000000  0.5061780000000  0.4893720000000 1.0
C      1  0.4809200000000  0.5025980000000  0.5166920000000 1.0
C      1  0.4989450000000  0.5202510000000  0.5274960000000 1.0
C      1  0.5248520000000  0.5161000000000  0.5205430000000 1.0
C      1  0.5293480000000  0.5052350000000  0.4953440000000 1.0
C      1  0.5173770000000  0.5248620000000  0.4785840000000 1.0
C      1  0.5460150000000  0.4502590000000  0.5279110000000 1.0
C      1  0.5505800000000  0.4496480000000  0.4813080000000 1.0
C      1  0.5162280000000  0.4497310000000  0.4490520000000 1.0
C      1  0.4689510000000  0.4507210000000  0.4553740000000 1.0
C      1  0.4444240000000  0.4505820000000  0.4956330000000 1.0
C      1  0.4614460000000  0.4511120000000  0.5394660000000 1.0
C      1  0.5065430000000  0.4511210000000  0.5535050000000 1.0
C      1  0.4472680000000  0.5061270000000  0.4453390000000 1.0
C      1  0.4088840000000  0.4963100000000  0.5051220000000 1.0
C      1  0.4515550000000  0.4998640000000  0.5644670000000 1.0
C      1  0.5248450000000  0.5073940000000  0.5733290000000 1.0
C      1  0.5842930000000  0.4939240000000  0.5354110000000 1.0
C      1  0.5672110000000  0.5054090000000  0.4629710000000 1.0
C      1  0.5157330000000  0.4971700000000  0.4153190000000 1.0
C      1  0.5170510000000  0.4804620000000  0.4953080000000 1.0
C      1  0.4760710000000  0.5542170000000  0.4949700000000 1.0
C      1  0.5022710000000  0.5995380000000  0.5033890000000 1.0
C      1  0.4891700000000  0.5777890000000  0.4994000000000 1.0
C      1  0.4909570000000  0.4833760000000  0.4984630000000 1.0
END
