TITL C-180222-5189-2 429.246007323606 125000 -1248.3056699246 0 0 180 (C1) n - 1
REM
REM in /rds/project/t2_vol4/rds-t2-cs072/BORA/CARBON/from-Arr/AIRSS/Generating-Clusters/GAP-ML-2020/Higher-Symm/SD-CG/HFTN-CG
REM
REM
REM
REM
REM
REM ./C.cell (b20cbc046b6831c77cfcea5457e17084)
REM AIRSS Version 0.9.1 bugfix July 2018 build 013d7b7c2542+ Fri, 06 Jul 2018 19:26:36 +0100
REM compiler GCC version 9.3.0
REM options -cpp -mtune=generic -march=x86-64 -g -O0
REM seed -1014540683 -1525612307 -684751819 1368693319 -335191547 1175830650 2084928077 1476229214 749217361 -1616283563 124817518 955495145 -1379419232 -2100049378 -44784516 22277445 -1969200638 57601346 -127940201 1405233257 -215923466 1219139516 1139654165 -1174636627 23070692 1356803533 -843963158 1207288855 -1861792093 397391770 -1944159120 79103714 -482929101
REM
CELL 1.54180   50.00000   50.00000   50.00000   90.00000   90.00000   90.00000
LATT -1
SFAC C  
C      1  0.4167260000000  0.4340930000000  0.4875860000000 1.0
C      1  0.4169910000000  0.4899320000000  0.4351480000000 1.0
C      1  0.4166940000000  0.5596750000000  0.4718420000000 1.0
C      1  0.4162670000000  0.5482150000000  0.5480780000000 1.0
C      1  0.4167580000000  0.4692950000000  0.5583350000000 1.0
C      1  0.4650360000000  0.6016110000000  0.5412380000000 1.0
C      1  0.4642710000000  0.4923090000000  0.6090350000000 1.0
C      1  0.4645730000000  0.3938630000000  0.5260950000000 1.0
C      1  0.4648050000000  0.4423000000000  0.4074870000000 1.0
C      1  0.4640160000000  0.5701830000000  0.4168800000000 1.0
C      1  0.5376210000000  0.4775400000000  0.4631760000000 1.0
C      1  0.5385830000000  0.5286450000000  0.4666880000000 1.0
C      1  0.5372290000000  0.5395520000000  0.5163670000000 1.0
C      1  0.5379950000000  0.4963110000000  0.5432390000000 1.0
C      1  0.5388980000000  0.4569360000000  0.5102230000000 1.0
C      1  0.5132460000000  0.3854300000000  0.5160010000000 1.0
C      1  0.5131260000000  0.4491020000000  0.3963180000000 1.0
C      1  0.5126400000000  0.5828070000000  0.4198570000000 1.0
C      1  0.5133890000000  0.6022350000000  0.5538790000000 1.0
C      1  0.5126440000000  0.4799160000000  0.6131960000000 1.0
C      1  0.4670160000000  0.4124680000000  0.5505520000000 1.0
C      1  0.4674430000000  0.4244550000000  0.4323540000000 1.0
C      1  0.4664720000000  0.5407040000000  0.4080140000000 1.0
C      1  0.4672810000000  0.6009940000000  0.5105150000000 1.0
C      1  0.4666720000000  0.5213990000000  0.5988340000000 1.0
C      1  0.4976900000000  0.4846250000000  0.4433830000000 1.0
C      1  0.4987090000000  0.5492890000000  0.4687520000000 1.0
C      1  0.4975280000000  0.5453900000000  0.5368370000000 1.0
C      1  0.4984070000000  0.4784300000000  0.5539300000000 1.0
C      1  0.4996770000000  0.4409260000000  0.4962510000000 1.0
C      1  0.5564320000000  0.4873730000000  0.4797650000000 1.0
C      1  0.5567120000000  0.5153530000000  0.4816070000000 1.0
C      1  0.5565730000000  0.5222950000000  0.5088050000000 1.0
C      1  0.5564590000000  0.4984550000000  0.5237100000000 1.0
C      1  0.5559900000000  0.4771780000000  0.5057220000000 1.0
C      1  0.5280840000000  0.4916090000000  0.4400080000000 1.0
C      1  0.5291640000000  0.5551230000000  0.4731480000000 1.0
C      1  0.5279530000000  0.5418810000000  0.5434890000000 1.0
C      1  0.5290810000000  0.4710450000000  0.5538970000000 1.0
C      1  0.5300070000000  0.4391270000000  0.4892650000000 1.0
C      1  0.5845640000000  0.4378840000000  0.5234130000000 1.0
C      1  0.5844530000000  0.4587720000000  0.4483440000000 1.0
C      1  0.5845080000000  0.5365000000000  0.4444020000000 1.0
C      1  0.5843350000000  0.5636880000000  0.5173700000000 1.0
C      1  0.5843200000000  0.5030260000000  0.5661930000000 1.0
C      1  0.4868070000000  0.4437350000000  0.3914480000000 1.0
C      1  0.4862690000000  0.5855170000000  0.4134080000000 1.0
C      1  0.4872070000000  0.6098710000000  0.5547660000000 1.0
C      1  0.4864330000000  0.4814560000000  0.6204760000000 1.0
C      1  0.4868980000000  0.3795200000000  0.5198550000000 1.0
C      1  0.5629120000000  0.4969860000000  0.5846890000000 1.0
C      1  0.5634410000000  0.4180440000000  0.5234670000000 1.0
C      1  0.5633100000000  0.4526350000000  0.4295530000000 1.0
C      1  0.5630350000000  0.5522190000000  0.4329240000000 1.0
C      1  0.5631140000000  0.5795510000000  0.5288900000000 1.0
C      1  0.5459280000000  0.4061290000000  0.4485300000000 1.0
C      1  0.5448650000000  0.5199360000000  0.3949900000000 1.0
C      1  0.5456650000000  0.6060410000000  0.4862640000000 1.0
C      1  0.5448710000000  0.5454060000000  0.5965100000000 1.0
C      1  0.5452280000000  0.4218580000000  0.5732600000000 1.0
C      1  0.4491500000000  0.4659250000000  0.4106520000000 1.0
C      1  0.4487560000000  0.5751560000000  0.4405310000000 1.0
C      1  0.4494270000000  0.5808110000000  0.5529110000000 1.0
C      1  0.4492130000000  0.4742700000000  0.5928670000000 1.0
C      1  0.4493140000000  0.4039650000000  0.5041240000000 1.0
C      1  0.5265620000000  0.6068960000000  0.4663170000000 1.0
C      1  0.5260380000000  0.5647350000000  0.5908360000000 1.0
C      1  0.5262140000000  0.4332030000000  0.5897270000000 1.0
C      1  0.5269780000000  0.3935040000000  0.4641620000000 1.0
C      1  0.5258390000000  0.5010680000000  0.3883770000000 1.0
C      1  0.4581950000000  0.5608640000000  0.5722660000000 1.0
C      1  0.4590110000000  0.4496110000000  0.5807570000000 1.0
C      1  0.4589700000000  0.4081550000000  0.4769990000000 1.0
C      1  0.4580090000000  0.4932470000000  0.4061910000000 1.0
C      1  0.4584480000000  0.5876030000000  0.4649930000000 1.0
C      1  0.4334760000000  0.4336850000000  0.4649850000000 1.0
C      1  0.4322470000000  0.5121450000000  0.4265070000000 1.0
C      1  0.4331980000000  0.5740690000000  0.4896080000000 1.0
C      1  0.4320080000000  0.5347300000000  0.5678230000000 1.0
C      1  0.4322000000000  0.4461960000000  0.5528440000000 1.0
C      1  0.4467730000000  0.5261120000000  0.4492810000000 1.0
C      1  0.4493270000000  0.5567100000000  0.5093470000000 1.0
C      1  0.4461490000000  0.5096420000000  0.5574900000000 1.0
C      1  0.4468520000000  0.4489810000000  0.5262670000000 1.0
C      1  0.4497090000000  0.4594630000000  0.4599650000000 1.0
C      1  0.5013930000000  0.6026300000000  0.4790110000000 1.0
C      1  0.5008590000000  0.5513680000000  0.5904330000000 1.0
C      1  0.5011080000000  0.4294800000000  0.5767520000000 1.0
C      1  0.5017900000000  0.4043820000000  0.4564320000000 1.0
C      1  0.5006120000000  0.5115240000000  0.3966240000000 1.0
C      1  0.5861670000000  0.5293920000000  0.5566700000000 1.0
C      1  0.5862180000000  0.4551480000000  0.5455320000000 1.0
C      1  0.5860110000000  0.4430080000000  0.4715710000000 1.0
C      1  0.5863530000000  0.5095590000000  0.4366840000000 1.0
C      1  0.5860140000000  0.5628810000000  0.4893220000000 1.0
C      1  0.5144480000000  0.5976850000000  0.5240920000000 1.0
C      1  0.5136540000000  0.5068080000000  0.5996400000000 1.0
C      1  0.5140770000000  0.4068670000000  0.5373540000000 1.0
C      1  0.5145000000000  0.4351620000000  0.4230510000000 1.0
C      1  0.5136190000000  0.5529890000000  0.4151980000000 1.0
C      1  0.6081410000000  0.4910190000000  0.5228770000000 1.0
C      1  0.6081660000000  0.4754840000000  0.4984930000000 1.0
C      1  0.6081700000000  0.4938870000000  0.4761440000000 1.0
C      1  0.6082400000000  0.5208260000000  0.4867030000000 1.0
C      1  0.6081550000000  0.5190250000000  0.5156040000000 1.0
C      1  0.4402340000000  0.4769470000000  0.5116630000000 1.0
C      1  0.4531230000000  0.4834740000000  0.4808270000000 1.0
C      1  0.4408840000000  0.5123370000000  0.4773940000000 1.0
C      1  0.4525530000000  0.5251350000000  0.5068100000000 1.0
C      1  0.4387530000000  0.5053860000000  0.5269970000000 1.0
C      1  0.4843400000000  0.5768680000000  0.4755190000000 1.0
C      1  0.4836610000000  0.5470840000000  0.5648870000000 1.0
C      1  0.4842560000000  0.4524010000000  0.5646810000000 1.0
C      1  0.4849260000000  0.4229510000000  0.4746780000000 1.0
C      1  0.4836950000000  0.4999390000000  0.4198770000000 1.0
C      1  0.4460990000000  0.5184250000000  0.4023910000000 1.0
C      1  0.4466760000000  0.5989530000000  0.4880080000000 1.0
C      1  0.4464680000000  0.5431780000000  0.5908000000000 1.0
C      1  0.4468030000000  0.4273900000000  0.5685650000000 1.0
C      1  0.4470630000000  0.4127170000000  0.4517600000000 1.0
C      1  0.4331380000000  0.5535080000000  0.4494630000000 1.0
C      1  0.4339030000000  0.5660840000000  0.5347820000000 1.0
C      1  0.4334350000000  0.4867660000000  0.5732310000000 1.0
C      1  0.4333820000000  0.4265270000000  0.5095710000000 1.0
C      1  0.4342570000000  0.4673930000000  0.4343510000000 1.0
C      1  0.5285130000000  0.4502390000000  0.4620710000000 1.0
C      1  0.5276730000000  0.5207600000000  0.4413640000000 1.0
C      1  0.5280450000000  0.5623950000000  0.5014630000000 1.0
C      1  0.5274920000000  0.5175290000000  0.5595080000000 1.0
C      1  0.5283490000000  0.4482160000000  0.5354990000000 1.0
C      1  0.4760310000000  0.4439800000000  0.4540030000000 1.0
C      1  0.4746270000000  0.5260410000000  0.4338900000000 1.0
C      1  0.4756910000000  0.5723340000000  0.5046930000000 1.0
C      1  0.4743470000000  0.5179810000000  0.5690690000000 1.0
C      1  0.4748950000000  0.4394700000000  0.5381730000000 1.0
C      1  0.4943680000000  0.5295280000000  0.6064340000000 1.0
C      1  0.4945960000000  0.4074800000000  0.5609860000000 1.0
C      1  0.4951040000000  0.4126720000000  0.4306850000000 1.0
C      1  0.4940690000000  0.5385750000000  0.3965560000000 1.0
C      1  0.4949100000000  0.6112590000000  0.5046930000000 1.0
C      1  0.5018030000000  0.4551840000000  0.4451230000000 1.0
C      1  0.5008710000000  0.5381050000000  0.4414250000000 1.0
C      1  0.5014820000000  0.5682770000000  0.5182250000000 1.0
C      1  0.5004980000000  0.5035100000000  0.5696180000000 1.0
C      1  0.5013760000000  0.4341410000000  0.5250570000000 1.0
C      1  0.4908970000000  0.4735910000000  0.4983350000000 1.0
C      1  0.4846900000000  0.4923190000000  0.4750090000000 1.0
C      1  0.4897370000000  0.5215270000000  0.4860580000000 1.0
C      1  0.4843190000000  0.5198460000000  0.5155610000000 1.0
C      1  0.4894160000000  0.4892030000000  0.5233460000000 1.0
C      1  0.5478940000000  0.5705700000000  0.4498410000000 1.0
C      1  0.5476990000000  0.5690390000000  0.5512400000000 1.0
C      1  0.5477500000000  0.4722230000000  0.5816690000000 1.0
C      1  0.5483850000000  0.4131660000000  0.4989140000000 1.0
C      1  0.5478210000000  0.4742550000000  0.4176610000000 1.0
C      1  0.5959750000000  0.4872460000000  0.4500900000000 1.0
C      1  0.5959860000000  0.5434740000000  0.4721810000000 1.0
C      1  0.5958870000000  0.5396570000000  0.5327770000000 1.0
C      1  0.5958250000000  0.4810760000000  0.5478530000000 1.0
C      1  0.5959010000000  0.4486890000000  0.4968680000000 1.0
C      1  0.5426850000000  0.4322950000000  0.4376390000000 1.0
C      1  0.5418440000000  0.5380870000000  0.4167110000000 1.0
C      1  0.5424490000000  0.5912720000000  0.5104690000000 1.0
C      1  0.5417640000000  0.5179170000000  0.5895800000000 1.0
C      1  0.5422590000000  0.4198600000000  0.5449620000000 1.0
C      1  0.3995790000000  0.4929780000000  0.4580300000000 1.0
C      1  0.3992800000000  0.5394600000000  0.4833550000000 1.0
C      1  0.3969540000000  0.5334100000000  0.5324070000000 1.0
C      1  0.4008760000000  0.4804280000000  0.5370200000000 1.0
C      1  0.3982260000000  0.4561590000000  0.4900930000000 1.0
C      1  0.4075560000000  0.5071200000000  0.5317800000000 1.0
C      1  0.4086870000000  0.4711560000000  0.5116950000000 1.0
C      1  0.3894060000000  0.4702240000000  0.4685830000000 1.0
C      1  0.4100750000000  0.5135840000000  0.4756110000000 1.0
C      1  0.3890700000000  0.5430330000000  0.5081660000000 1.0
C      1  0.5310270000000  0.4724640000000  0.3946070000000 1.0
C      1  0.5311120000000  0.5919890000000  0.4409340000000 1.0
C      1  0.5311770000000  0.5841800000000  0.5689430000000 1.0
C      1  0.5310070000000  0.4600880000000  0.6014710000000 1.0
C      1  0.5316180000000  0.3905630000000  0.4934750000000 1.0
END
