TITL C-180436-1578-3 -0.154356847913651 125000 -881.108833662427 0 0 127 (C1) n - 1
REM
REM in /rds/project/t2_vol4/rds-t2-cs072/BORA/CARBON/from-Arr/AIRSS/Generating-Clusters/GAP-ML-2020/Higher-Symm/SD-CG/HFTN-CG
REM
REM
REM
REM
REM
REM ./C.cell (b20cbc046b6831c77cfcea5457e17084)
REM AIRSS Version 0.9.1 bugfix July 2018 build 013d7b7c2542+ Fri, 06 Jul 2018 19:26:36 +0100
REM compiler GCC version 9.3.0
REM options -cpp -mtune=generic -march=x86-64 -g -O0
REM seed -261587095 816279831 1839421543 1423452653 353551521 -695345091 2146840332 -526955688 1722966971 -1816858760 1324533005 1552221746 -55209841 -1599767938 -12455343 408005008 1331523011 -824365629 -275621861 -872877885 -638083423 -828213927 1136665959 614501642 -1191500848 -1126646505 137952104 360662428 -94565520 -745205286 -1527192741 913238964 -381367834
REM
CELL 1.54180   50.00000   50.00000   50.00000   90.00000   90.00000   90.00000
LATT -1
SFAC C  
C      1  0.4020680000000  0.5025020000000  0.4986910000000 1.0
C      1  0.4666900000000  0.4088340000000  0.4919580000000 1.0
C      1  0.5792310000000  0.4404890000000  0.5005500000000 1.0
C      1  0.5764640000000  0.5541320000000  0.4938540000000 1.0
C      1  0.4730200000000  0.5959480000000  0.4948480000000 1.0
C      1  0.4256800000000  0.5939520000000  0.4988610000000 1.0
C      1  0.4009890000000  0.4524020000000  0.4983160000000 1.0
C      1  0.5060640000000  0.3822550000000  0.4950430000000 1.0
C      1  0.6112940000000  0.4790330000000  0.5026500000000 1.0
C      1  0.5526990000000  0.5974940000000  0.4967020000000 1.0
C      1  0.4960860000000  0.5278030000000  0.5239990000000 1.0
C      1  0.4708840000000  0.4994130000000  0.5219970000000 1.0
C      1  0.4871420000000  0.4739390000000  0.5230890000000 1.0
C      1  0.5225360000000  0.4814750000000  0.5243270000000 1.0
C      1  0.5242260000000  0.5162410000000  0.5217310000000 1.0
C      1  0.4898190000000  0.4615730000000  0.4967100000000 1.0
C      1  0.5323230000000  0.4749650000000  0.4979130000000 1.0
C      1  0.5294660000000  0.5216810000000  0.4932900000000 1.0
C      1  0.4855640000000  0.5387240000000  0.4989880000000 1.0
C      1  0.4621550000000  0.5013230000000  0.4940920000000 1.0
C      1  0.4900350000000  0.5857570000000  0.4742980000000 1.0
C      1  0.4125810000000  0.5222590000000  0.4797630000000 1.0
C      1  0.4592920000000  0.4284920000000  0.4724720000000 1.0
C      1  0.5597480000000  0.4321640000000  0.4802530000000 1.0
C      1  0.5741740000000  0.5328860000000  0.4743100000000 1.0
C      1  0.4062190000000  0.4715710000000  0.4606430000000 1.0
C      1  0.4981790000000  0.3969660000000  0.4569930000000 1.0
C      1  0.5986120000000  0.4660030000000  0.4640640000000 1.0
C      1  0.5572080000000  0.5796810000000  0.4575290000000 1.0
C      1  0.4393640000000  0.5890070000000  0.4601220000000 1.0
C      1  0.5072740000000  0.4256220000000  0.5531760000000 1.0
C      1  0.5736740000000  0.4855340000000  0.5619570000000 1.0
C      1  0.5387870000000  0.5647340000000  0.5584710000000 1.0
C      1  0.4508410000000  0.5554860000000  0.5541990000000 1.0
C      1  0.4318490000000  0.4680670000000  0.5602350000000 1.0
C      1  0.4319910000000  0.4427280000000  0.5476270000000 1.0
C      1  0.5331390000000  0.4224260000000  0.5424700000000 1.0
C      1  0.5887280000000  0.5062410000000  0.5500630000000 1.0
C      1  0.5236750000000  0.5857160000000  0.5469490000000 1.0
C      1  0.4277940000000  0.5431600000000  0.5434130000000 1.0
C      1  0.4580310000000  0.4387890000000  0.5336350000000 1.0
C      1  0.5501170000000  0.4439440000000  0.5440010000000 1.0
C      1  0.5703050000000  0.5244420000000  0.5351160000000 1.0
C      1  0.4992150000000  0.5743040000000  0.5338080000000 1.0
C      1  0.4269620000000  0.5157110000000  0.5431850000000 1.0
C      1  0.5042290000000  0.4537850000000  0.5628900000000 1.0
C      1  0.5443900000000  0.4909880000000  0.5645250000000 1.0
C      1  0.5239030000000  0.5395220000000  0.5635330000000 1.0
C      1  0.4702660000000  0.5346080000000  0.5622200000000 1.0
C      1  0.4586510000000  0.4809200000000  0.5639280000000 1.0
C      1  0.4526110000000  0.5799850000000  0.5382480000000 1.0
C      1  0.4121690000000  0.4762240000000  0.5406440000000 1.0
C      1  0.4919650000000  0.4072810000000  0.5359260000000 1.0
C      1  0.5854680000000  0.4670170000000  0.5431380000000 1.0
C      1  0.5588730000000  0.5692640000000  0.5378790000000 1.0
C      1  0.4839760000000  0.5189250000000  0.5843160000000 1.0
C      1  0.4774280000000  0.4903900000000  0.5849530000000 1.0
C      1  0.5018580000000  0.4752790000000  0.5850560000000 1.0
C      1  0.5234940000000  0.4947710000000  0.5855390000000 1.0
C      1  0.5126040000000  0.5214760000000  0.5850930000000 1.0
C      1  0.5589800000000  0.4418490000000  0.4531020000000 1.0
C      1  0.5633060000000  0.5328910000000  0.4478660000000 1.0
C      1  0.4835430000000  0.5794840000000  0.4470380000000 1.0
C      1  0.4209910000000  0.5159300000000  0.4526860000000 1.0
C      1  0.4689630000000  0.4325450000000  0.4457320000000 1.0
C      1  0.4557530000000  0.5793940000000  0.4398000000000 1.0
C      1  0.4218260000000  0.4881200000000  0.4437370000000 1.0
C      1  0.4916680000000  0.4164910000000  0.4381030000000 1.0
C      1  0.5783250000000  0.4616450000000  0.4450970000000 1.0
C      1  0.5519550000000  0.5582920000000  0.4393550000000 1.0
C      1  0.5320480000000  0.4100420000000  0.5171340000000 1.0
C      1  0.5769910000000  0.5054150000000  0.5135150000000 1.0
C      1  0.5186630000000  0.5733640000000  0.5111720000000 1.0
C      1  0.4206050000000  0.5553050000000  0.5191040000000 1.0
C      1  0.4432440000000  0.4519450000000  0.5114980000000 1.0
C      1  0.5141610000000  0.5717590000000  0.4829750000000 1.0
C      1  0.4277090000000  0.5456630000000  0.4905240000000 1.0
C      1  0.4475250000000  0.4528410000000  0.4831190000000 1.0
C      1  0.5323600000000  0.4232820000000  0.4888650000000 1.0
C      1  0.5739240000000  0.5057170000000  0.4850610000000 1.0
C      1  0.4220480000000  0.5732310000000  0.4775940000000 1.0
C      1  0.4186060000000  0.4501170000000  0.4745770000000 1.0
C      1  0.5212210000000  0.3980760000000  0.4748410000000 1.0
C      1  0.5997290000000  0.4909490000000  0.4781460000000 1.0
C      1  0.5359510000000  0.5905250000000  0.4732010000000 1.0
C      1  0.5164630000000  0.4538120000000  0.4851030000000 1.0
C      1  0.5419920000000  0.4974360000000  0.4814370000000 1.0
C      1  0.5085710000000  0.5402190000000  0.4803030000000 1.0
C      1  0.4597970000000  0.5304070000000  0.4865260000000 1.0
C      1  0.4706010000000  0.4761120000000  0.4791560000000 1.0
C      1  0.5154000000000  0.4265730000000  0.4267610000000 1.0
C      1  0.5710600000000  0.4849150000000  0.4308790000000 1.0
C      1  0.5266810000000  0.5607090000000  0.4275970000000 1.0
C      1  0.4444470000000  0.5566290000000  0.4274610000000 1.0
C      1  0.4428570000000  0.4744490000000  0.4314260000000 1.0
C      1  0.5553110000000  0.5052320000000  0.4376710000000 1.0
C      1  0.5015500000000  0.5582260000000  0.4355950000000 1.0
C      1  0.4412590000000  0.5342290000000  0.4415680000000 1.0
C      1  0.4656670000000  0.4611540000000  0.4356220000000 1.0
C      1  0.5316840000000  0.4426750000000  0.4403690000000 1.0
C      1  0.4477160000000  0.6039380000000  0.4843730000000 1.0
C      1  0.3940670000000  0.4779570000000  0.4867690000000 1.0
C      1  0.4825660000000  0.3882000000000  0.4804540000000 1.0
C      1  0.6021710000000  0.4540730000000  0.4905710000000 1.0
C      1  0.5713570000000  0.5799450000000  0.4834290000000 1.0
C      1  0.5421900000000  0.5874000000000  0.5213600000000 1.0
C      1  0.4280870000000  0.5820120000000  0.5231510000000 1.0
C      1  0.4159210000000  0.4530120000000  0.5225250000000 1.0
C      1  0.5106730000000  0.3922010000000  0.5199690000000 1.0
C      1  0.5972450000000  0.4879880000000  0.5256510000000 1.0
C      1  0.4879250000000  0.4774130000000  0.4515380000000 1.0
C      1  0.5171060000000  0.4644800000000  0.4552640000000 1.0
C      1  0.5300440000000  0.4936150000000  0.4532270000000 1.0
C      1  0.4935310000000  0.5316390000000  0.4522610000000 1.0
C      1  0.4646480000000  0.5314380000000  0.4581260000000 1.0
C      1  0.5317140000000  0.4670060000000  0.5496100000000 1.0
C      1  0.5413360000000  0.5194400000000  0.5472640000000 1.0
C      1  0.4952780000000  0.5454300000000  0.5477810000000 1.0
C      1  0.4554390000000  0.5076150000000  0.5479200000000 1.0
C      1  0.4782040000000  0.4594510000000  0.5477190000000 1.0
C      1  0.5733920000000  0.5503580000000  0.5228260000000 1.0
C      1  0.4755530000000  0.5875840000000  0.5233320000000 1.0
C      1  0.4092740000000  0.5008240000000  0.5272980000000 1.0
C      1  0.4691860000000  0.4151440000000  0.5211280000000 1.0
C      1  0.5735810000000  0.4457220000000  0.5290280000000 1.0
C      1  0.5021280000000  0.5035430000000  0.4474030000000 1.0
C      1  0.5002310000000  0.4994390000000  0.5294130000000 1.0
END
