TITL C-188665-7784-8 5.13970075910642 125000 -126.064083741065 0 0 20 (C1) n - 1
REM
REM in /rds/project/t2_vol4/rds-t2-cs072/BORA/CARBON/from-Arr/AIRSS/Generating-Clusters/GAP-ML-2020/Higher-Symm/SD-CG/HFTN-CG
REM
REM
REM
REM
REM
REM ./C.cell (b20cbc046b6831c77cfcea5457e17084)
REM AIRSS Version 0.9.1 bugfix July 2018 build 013d7b7c2542+ Fri, 06 Jul 2018 19:26:36 +0100
REM compiler GCC version 9.3.0
REM options -cpp -mtune=generic -march=x86-64 -g -O0
REM seed -886180944 -782253729 667444607 -1935925416 -528778237 -1304123463 865483372 1224324975 1477456610 2015242813 -1484560822 -278816891 1501025778 613687748 924432680 -23711243 -558008669 1701040126 -43082965 281033349 -1828491304 34282109 280861454 521868114 1545741638 530997286 -507847230 -1059837033 477769893 -819238264 424814798 -2039558317 1088112333
REM
CELL 1.54180   50.00000   50.00000   50.00000   90.00000   90.00000   90.00000
LATT -1
SFAC C  
C      1  0.4745190000000  0.5029110000000  0.4561960000000 1.0
C      1  0.4862950000000  0.4631730000000  0.5034700000000 1.0
C      1  0.5414420000000  0.5124610000000  0.4985910000000 1.0
C      1  0.5236850000000  0.5246150000000  0.4785800000000 1.0
C      1  0.5286380000000  0.4996430000000  0.5218040000000 1.0
C      1  0.5085510000000  0.5430010000000  0.4893680000000 1.0
C      1  0.5300690000000  0.4740320000000  0.5077280000000 1.0
C      1  0.4738920000000  0.4762530000000  0.5251610000000 1.0
C      1  0.4651560000000  0.5166590000000  0.4755420000000 1.0
C      1  0.4875370000000  0.5390290000000  0.5069150000000 1.0
C      1  0.5095800000000  0.5079350000000  0.5390670000000 1.0
C      1  0.5128200000000  0.4541510000000  0.5085360000000 1.0
C      1  0.5410570000000  0.4866150000000  0.4835110000000 1.0
C      1  0.5224270000000  0.4979100000000  0.4640120000000 1.0
C      1  0.4969680000000  0.4857670000000  0.4615760000000 1.0
C      1  0.4892530000000  0.4637950000000  0.4764290000000 1.0
C      1  0.4681870000000  0.5023510000000  0.5337160000000 1.0
C      1  0.4894500000000  0.4863450000000  0.5459270000000 1.0
C      1  0.4877150000000  0.5263020000000  0.5319430000000 1.0
C      1  0.4627600000000  0.5370510000000  0.4919290000000 1.0
END
