TITL C-180219-5384-11 226.848768725467 125000 -431.957555767562 0 0 63 (C1) n - 1
REM
REM in /rds/project/t2_vol4/rds-t2-cs072/BORA/CARBON/from-Arr/AIRSS/Generating-Clusters/GAP-ML-2020/Higher-Symm/SD-CG/HFTN-CG
REM
REM
REM
REM
REM
REM ./C.cell (b20cbc046b6831c77cfcea5457e17084)
REM AIRSS Version 0.9.1 bugfix July 2018 build 013d7b7c2542+ Fri, 06 Jul 2018 19:26:36 +0100
REM compiler GCC version 9.3.0
REM options -cpp -mtune=generic -march=x86-64 -g -O0
REM seed 146274513 1075331577 -544501008 2096391504 -824619883 -1198657043 1534726002 -720208448 30717659 1348445530 1055781787 419906928 -370234440 -348856840 148260639 1033550279 939178362 -815248484 -1709957847 1797304046 1461120390 -859543246 -1152236517 -737348867 -1533706206 -1921882240 1179269582 -909901336 -1761314510 122720808 1069596417 -1762294428 -759606093
REM
CELL 1.54180   50.00000   50.00000   50.00000   90.00000   90.00000   90.00000
LATT -1
SFAC C  
C      1  0.5070280000000  0.4969530000000  0.5683230000000 1.0
C      1  0.4925380000000  0.4347990000000  0.4486620000000 1.0
C      1  0.4961780000000  0.5708290000000  0.4787280000000 1.0
C      1  0.4436720000000  0.4807550000000  0.4766090000000 1.0
C      1  0.5357720000000  0.5156940000000  0.5343560000000 1.0
C      1  0.4439370000000  0.4914250000000  0.5316340000000 1.0
C      1  0.5337600000000  0.5074510000000  0.5055890000000 1.0
C      1  0.4747520000000  0.4443790000000  0.4913490000000 1.0
C      1  0.5177580000000  0.5621240000000  0.4625050000000 1.0
C      1  0.4650960000000  0.4477050000000  0.5364660000000 1.0
C      1  0.5154450000000  0.5420240000000  0.4440900000000 1.0
C      1  0.4623890000000  0.5014730000000  0.5516350000000 1.0
C      1  0.4441680000000  0.5292320000000  0.4666030000000 1.0
C      1  0.4813660000000  0.4342340000000  0.5164250000000 1.0
C      1  0.4733530000000  0.5607780000000  0.4655470000000 1.0
C      1  0.5564370000000  0.4959890000000  0.5734770000000 1.0
C      1  0.4684030000000  0.5286540000000  0.5443650000000 1.0
C      1  0.4903910000000  0.5221560000000  0.4901140000000 1.0
C      1  0.5329220000000  0.5364760000000  0.4682680000000 1.0
C      1  0.4387520000000  0.5123290000000  0.5125400000000 1.0
C      1  0.5336490000000  0.4885480000000  0.4472260000000 1.0
C      1  0.4519300000000  0.5360850000000  0.5226320000000 1.0
C      1  0.5318410000000  0.4820210000000  0.5717690000000 1.0
C      1  0.5078740000000  0.4455030000000  0.5510000000000 1.0
C      1  0.4596510000000  0.5573480000000  0.5057590000000 1.0
C      1  0.5527970000000  0.5425910000000  0.5285940000000 1.0
C      1  0.5306570000000  0.4457910000000  0.5101930000000 1.0
C      1  0.5081990000000  0.4340620000000  0.5246850000000 1.0
C      1  0.4469160000000  0.4645220000000  0.5230230000000 1.0
C      1  0.4679340000000  0.5269040000000  0.4224440000000 1.0
C      1  0.4897230000000  0.4802190000000  0.4641530000000 1.0
C      1  0.5055410000000  0.5609630000000  0.5278940000000 1.0
C      1  0.5610480000000  0.5022490000000  0.5471480000000 1.0
C      1  0.4820650000000  0.4566380000000  0.5572640000000 1.0
C      1  0.4948660000000  0.4822800000000  0.5162700000000 1.0
C      1  0.4457340000000  0.5290600000000  0.4352050000000 1.0
C      1  0.5417060000000  0.4749110000000  0.4723970000000 1.0
C      1  0.4509980000000  0.4606550000000  0.4947780000000 1.0
C      1  0.5553180000000  0.5051430000000  0.4387150000000 1.0
C      1  0.5470420000000  0.4595420000000  0.5297540000000 1.0
C      1  0.5562290000000  0.4986530000000  0.4872070000000 1.0
C      1  0.4771420000000  0.5302740000000  0.4646830000000 1.0
C      1  0.4609810000000  0.4556380000000  0.4389580000000 1.0
C      1  0.5131210000000  0.5200070000000  0.5529040000000 1.0
C      1  0.4363880000000  0.5071540000000  0.4844310000000 1.0
C      1  0.4616170000000  0.4778060000000  0.4545470000000 1.0
C      1  0.4879660000000  0.4945850000000  0.4935020000000 1.0
C      1  0.4944390000000  0.5219110000000  0.4402210000000 1.0
C      1  0.5319310000000  0.4590380000000  0.5550460000000 1.0
C      1  0.5742110000000  0.5232240000000  0.5274320000000 1.0
C      1  0.4987760000000  0.4515700000000  0.4718910000000 1.0
C      1  0.4947690000000  0.5394260000000  0.5453550000000 1.0
C      1  0.5270210000000  0.4538570000000  0.4833690000000 1.0
C      1  0.5338390000000  0.5612290000000  0.5247880000000 1.0
C      1  0.5180530000000  0.5225980000000  0.4886150000000 1.0
C      1  0.4874640000000  0.5681120000000  0.5064480000000 1.0
C      1  0.4717100000000  0.4324490000000  0.4321420000000 1.0
C      1  0.5059070000000  0.4947410000000  0.4455970000000 1.0
C      1  0.4490680000000  0.5558320000000  0.4798490000000 1.0
C      1  0.4814950000000  0.4846540000000  0.5647870000000 1.0
C      1  0.5760850000000  0.4989160000000  0.5087650000000 1.0
C      1  0.5670610000000  0.4794310000000  0.5285070000000 1.0
C      1  0.5551190000000  0.5184000000000  0.4627700000000 1.0
END
