TITL C-188654-9454-8 -0.0153228871735353 125000 -295.887075059469 0 0 46 (Ci) n - 1
REM
REM in /rds/project/t2_vol4/rds-t2-cs072/BORA/CARBON/from-Arr/AIRSS/Generating-Clusters/GAP-ML-2020/Higher-Symm/SD-CG/HFTN-CG
REM
REM
REM
REM
REM
REM ./C.cell (b20cbc046b6831c77cfcea5457e17084)
REM AIRSS Version 0.9.1 bugfix July 2018 build 013d7b7c2542+ Fri, 06 Jul 2018 19:26:36 +0100
REM compiler GCC version 9.3.0
REM options -cpp -mtune=generic -march=x86-64 -g -O0
REM seed 2132567402 198661665 -2117522843 -860662387 -2129144361 -780337575 -246313896 452689749 2119614301 -73662314 -1789848539 -1726288826 -1116537169 828750614 -1955841780 -1345389413 -1286608082 -1357095849 -1579966841 -1737086280 378133000 1703009861 192478879 307573649 -1961704310 -1039480275 1619797856 1814566355 418342591 417800544 -1088377803 1429478790 -549414787
REM
CELL 1.54180   50.00000   50.00000   50.00000   90.00000   90.00000   90.00000
LATT -1
SFAC C  
C      1  0.4892480000000  0.4598750000000  0.4493620000000 1.0
C      1  0.4672100000000  0.5101790000000  0.4538730000000 1.0
C      1  0.5141870000000  0.5346360000000  0.4478830000000 1.0
C      1  0.5379880000000  0.4855490000000  0.4467280000000 1.0
C      1  0.4874880000000  0.4654510000000  0.5447420000000 1.0
C      1  0.4636870000000  0.5145380000000  0.5458970000000 1.0
C      1  0.5124260000000  0.5402120000000  0.5432630000000 1.0
C      1  0.5344650000000  0.4899080000000  0.5387520000000 1.0
C      1  0.4844470000000  0.4811110000000  0.4933140000000 1.0
C      1  0.4866790000000  0.5045110000000  0.4758060000000 1.0
C      1  0.5167050000000  0.5035460000000  0.4752230000000 1.0
C      1  0.5158770000000  0.4789800000000  0.4927230000000 1.0
C      1  0.4849700000000  0.4965410000000  0.5174020000000 1.0
C      1  0.4857980000000  0.5211070000000  0.4999020000000 1.0
C      1  0.5172280000000  0.5189760000000  0.4993110000000 1.0
C      1  0.5149950000000  0.4955760000000  0.5168190000000 1.0
C      1  0.4245420000000  0.5141810000000  0.5125420000000 1.0
C      1  0.5092620000000  0.5797960000000  0.5063950000000 1.0
C      1  0.5784630000000  0.4890180000000  0.5071880000000 1.0
C      1  0.4944440000000  0.4235410000000  0.5133240000000 1.0
C      1  0.4232110000000  0.5110690000000  0.4854370000000 1.0
C      1  0.5072310000000  0.5765460000000  0.4793010000000 1.0
C      1  0.5771330000000  0.4859060000000  0.4800830000000 1.0
C      1  0.4924130000000  0.4202910000000  0.4862300000000 1.0
C      1  0.5190700000000  0.5580760000000  0.5210030000000 1.0
C      1  0.5546800000000  0.4809980000000  0.5187720000000 1.0
C      1  0.4847710000000  0.4475280000000  0.5225930000000 1.0
C      1  0.4464460000000  0.5253950000000  0.5240540000000 1.0
C      1  0.5169040000000  0.5525590000000  0.4700320000000 1.0
C      1  0.5552290000000  0.4746920000000  0.4685710000000 1.0
C      1  0.4826040000000  0.4420110000000  0.4716220000000 1.0
C      1  0.4469940000000  0.5190890000000  0.4738530000000 1.0
C      1  0.5113900000000  0.4779390000000  0.5568690000000 1.0
C      1  0.4688860000000  0.4873570000000  0.5403380000000 1.0
C      1  0.4887570000000  0.5260050000000  0.5556820000000 1.0
C      1  0.5289910000000  0.5173990000000  0.5534550000000 1.0
C      1  0.5129170000000  0.4740820000000  0.4369430000000 1.0
C      1  0.4726840000000  0.4826880000000  0.4391700000000 1.0
C      1  0.4902850000000  0.5221480000000  0.4357560000000 1.0
C      1  0.5327890000000  0.5127300000000  0.4522870000000 1.0
C      1  0.4595790000000  0.5328870000000  0.4989970000000 1.0
C      1  0.5295130000000  0.5432490000000  0.4970860000000 1.0
C      1  0.5420960000000  0.4672000000000  0.4936280000000 1.0
C      1  0.4721610000000  0.4568380000000  0.4955390000000 1.0
C      1  0.4952560000000  0.4950910000000  0.4260980000000 1.0
C      1  0.5064190000000  0.5049960000000  0.5665270000000 1.0
END
