TITL C-183187-4224-4 0.00775645118402989 125000 -44.1933842028027 0 0 7 (D(inf)h) n - 1
REM
REM in /rds/project/t2_vol4/rds-t2-cs072/BORA/CARBON/from-Arr/AIRSS/Generating-Clusters/GAP-ML-2020/Higher-Symm/SD-CG/HFTN-CG
REM
REM
REM
REM
REM
REM ./C.cell (b20cbc046b6831c77cfcea5457e17084)
REM AIRSS Version 0.9.1 bugfix July 2018 build 013d7b7c2542+ Fri, 06 Jul 2018 19:26:36 +0100
REM compiler GCC version 9.3.0
REM options -cpp -mtune=generic -march=x86-64 -g -O0
REM seed 1636365053 -986054090 -1931625793 634354282 331198332 346285023 -1915278974 -1482848942 120204398 -1276507388 -765235371 1867988365 -1646239185 -1433109983 361038175 2067697062 -2119022500 560678235 602183134 497501267 1657233999 1264665465 -86470091 -1620072134 283303297 1487015426 -1593916688 1151568492 1567849226 1785523658 384120990 -1198786985 -681992332
REM
CELL 1.54180   50.00000   50.00000   50.00000   90.00000   90.00000   90.00000
LATT -1
SFAC C  
C      1  0.5009490000000  0.5000250000000  0.4232650000000 1.0
C      1  0.5009490000000  0.5000250000000  0.5253810000000 1.0
C      1  0.5009490000000  0.5000250000000  0.4489020000000 1.0
C      1  0.5009490000000  0.5000250000000  0.5000000000000 1.0
C      1  0.5009490000000  0.5000250000000  0.5767350000000 1.0
C      1  0.5009490000000  0.5000250000000  0.4746190000000 1.0
C      1  0.5009490000000  0.5000250000000  0.5510990000000 1.0
END
