TITL C-187000-1117-1 -467.187983433895 125000 -744.364510037785 0 0 107 (C3) n - 1
REM
REM in /rds/project/t2_vol4/rds-t2-cs072/BORA/CARBON/from-Arr/AIRSS/Generating-Clusters/GAP-ML-2020/Higher-Symm/SD-CG/HFTN-CG
REM
REM
REM
REM
REM
REM ./C.cell (b20cbc046b6831c77cfcea5457e17084)
REM AIRSS Version 0.9.1 bugfix July 2018 build 013d7b7c2542+ Fri, 06 Jul 2018 19:26:36 +0100
REM compiler GCC version 9.3.0
REM options -cpp -mtune=generic -march=x86-64 -g -O0
REM seed -385944523 -411388297 708960704 -204880591 -1326357598 978613371 -1568910347 1322856953 1579202325 1785124001 79901025 1272613877 -205270096 909933304 -605382667 1980359782 -560312213 2034899125 -1487730502 2029871102 1226983846 451874904 109794512 1316990379 -2019838899 1296678605 40597822 -517890173 1378143382 -492324706 -346610934 -1881177339 -345863768
REM
CELL 1.54180   50.00000   50.00000   50.00000   90.00000   90.00000   90.00000
LATT -1
SFAC C  
C      1  0.5492660000000  0.5731680000000  0.5026590000000 1.0
C      1  0.5492680000000  0.4669790000000  0.4360330000000 1.0
C      1  0.5492680000000  0.4623740000000  0.5613080000000 1.0
C      1  0.5138960000000  0.4807950000000  0.5192060000000 1.0
C      1  0.5138950000000  0.5274950000000  0.5077560000000 1.0
C      1  0.5138950000000  0.4942290000000  0.4730380000000 1.0
C      1  0.5094250000000  0.4884640000000  0.4153830000000 1.0
C      1  0.5094260000000  0.4337470000000  0.5530260000000 1.0
C      1  0.5094240000000  0.5803080000000  0.5315910000000 1.0
C      1  0.4388760000000  0.4888820000000  0.5666580000000 1.0
C      1  0.4388750000000  0.5645430000000  0.4770260000000 1.0
C      1  0.4388770000000  0.4490890000000  0.4563170000000 1.0
C      1  0.5617280000000  0.5327990000000  0.5365070000000 1.0
C      1  0.5617280000000  0.5164770000000  0.4540700000000 1.0
C      1  0.5617290000000  0.4532460000000  0.5094240000000 1.0
C      1  0.4627720000000  0.5788910000000  0.4773210000000 1.0
C      1  0.4627740000000  0.4421720000000  0.4437440000000 1.0
C      1  0.4627740000000  0.4814530000000  0.5789350000000 1.0
C      1  0.5098590000000  0.5186630000000  0.5775280000000 1.0
C      1  0.5098580000000  0.5590690000000  0.4458010000000 1.0
C      1  0.5098610000000  0.4247870000000  0.4766720000000 1.0
C      1  0.5326060000000  0.4163870000000  0.5113930000000 1.0
C      1  0.5326030000000  0.5529330000000  0.5674420000000 1.0
C      1  0.5326040000000  0.5331990000000  0.4211650000000 1.0
C      1  0.5336020000000  0.4785220000000  0.5781660000000 1.0
C      1  0.5336000000000  0.5796920000000  0.4802450000000 1.0
C      1  0.5336020000000  0.4443050000000  0.4415900000000 1.0
C      1  0.4326910000000  0.4677830000000  0.5477830000000 1.0
C      1  0.4326890000000  0.5587470000000  0.5047360000000 1.0
C      1  0.4326900000000  0.4759850000000  0.4474820000000 1.0
C      1  0.4891460000000  0.4959090000000  0.5749350000000 1.0
C      1  0.4891440000000  0.5682000000000  0.4668030000000 1.0
C      1  0.4891470000000  0.4384090000000  0.4582630000000 1.0
C      1  0.4911370000000  0.5427760000000  0.5165890000000 1.0
C      1  0.4911380000000  0.4942370000000  0.4553880000000 1.0
C      1  0.4911380000000  0.4655050000000  0.5280240000000 1.0
C      1  0.5989390000000  0.5160380000000  0.5066770000000 1.0
C      1  0.5989390000000  0.4990250000000  0.4835010000000 1.0
C      1  0.5989390000000  0.4874600000000  0.5098220000000 1.0
C      1  0.4802560000000  0.5063520000000  0.5452450000000 1.0
C      1  0.4802550000000  0.5372650000000  0.4726040000000 1.0
C      1  0.4802570000000  0.4589000000000  0.4821530000000 1.0
C      1  0.4345090000000  0.5144040000000  0.5544390000000 1.0
C      1  0.4345080000000  0.5412010000000  0.4610330000000 1.0
C      1  0.4345100000000  0.4469100000000  0.4845290000000 1.0
C      1  0.4513190000000  0.4848520000000  0.4273230000000 1.0
C      1  0.4513190000000  0.4458920000000  0.5501840000000 1.0
C      1  0.4513170000000  0.5717720000000  0.5224940000000 1.0
C      1  0.5441390000000  0.4962340000000  0.4721140000000 1.0
C      1  0.5441390000000  0.4789930000000  0.5179320000000 1.0
C      1  0.5441380000000  0.5272940000000  0.5099550000000 1.0
C      1  0.4679640000000  0.4624650000000  0.4232530000000 1.0
C      1  0.4679650000000  0.4535610000000  0.5716060000000 1.0
C      1  0.4679630000000  0.5864900000000  0.5051410000000 1.0
C      1  0.4580180000000  0.5314760000000  0.4489030000000 1.0
C      1  0.4580200000000  0.4412680000000  0.4990160000000 1.0
C      1  0.4580180000000  0.5297720000000  0.5520820000000 1.0
C      1  0.3962470000000  0.5062270000000  0.5150350000000 1.0
C      1  0.3962470000000  0.5111630000000  0.4878160000000 1.0
C      1  0.3962480000000  0.4851230000000  0.4971500000000 1.0
C      1  0.5067870000000  0.5456520000000  0.5675840000000 1.0
C      1  0.5067870000000  0.5369630000000  0.4274000000000 1.0
C      1  0.5067890000000  0.4199040000000  0.5050170000000 1.0
C      1  0.5490760000000  0.4322750000000  0.5252940000000 1.0
C      1  0.5490740000000  0.5570280000000  0.5467320000000 1.0
C      1  0.5490740000000  0.5132170000000  0.4279740000000 1.0
C      1  0.4249380000000  0.5190070000000  0.4785430000000 1.0
C      1  0.4249390000000  0.4731710000000  0.4949940000000 1.0
C      1  0.4249390000000  0.5103360000000  0.5264640000000 1.0
C      1  0.5829550000000  0.5369500000000  0.5146570000000 1.0
C      1  0.5829560000000  0.4954790000000  0.4614000000000 1.0
C      1  0.5829560000000  0.4700930000000  0.5239430000000 1.0
C      1  0.5368450000000  0.5621100000000  0.4577910000000 1.0
C      1  0.5368470000000  0.4336500000000  0.4680430000000 1.0
C      1  0.5368460000000  0.5067590000000  0.5741670000000 1.0
C      1  0.5067850000000  0.5856750000000  0.4834830000000 1.0
C      1  0.5067870000000  0.4441170000000  0.4347890000000 1.0
C      1  0.5067870000000  0.4727260000000  0.5817280000000 1.0
C      1  0.5069220000000  0.4722560000000  0.4920530000000 1.0
C      1  0.5069210000000  0.5082490000000  0.5287280000000 1.0
C      1  0.5069210000000  0.5220130000000  0.4792200000000 1.0
C      1  0.4924100000000  0.4331050000000  0.5278730000000 1.0
C      1  0.4924070000000  0.5588450000000  0.5447240000000 1.0
C      1  0.4924080000000  0.5105680000000  0.4274040000000 1.0
C      1  0.4682660000000  0.5296660000000  0.5003830000000 1.0
C      1  0.4682670000000  0.4867570000000  0.4748440000000 1.0
C      1  0.4682670000000  0.4860930000000  0.5247740000000 1.0
C      1  0.4956100000000  0.4636490000000  0.4175630000000 1.0
C      1  0.4956100000000  0.4480410000000  0.5734260000000 1.0
C      1  0.4956080000000  0.5908270000000  0.5090110000000 1.0
C      1  0.4363690000000  0.4908120000000  0.4728250000000 1.0
C      1  0.4363690000000  0.4823170000000  0.5222710000000 1.0
C      1  0.4363680000000  0.5293860000000  0.5049050000000 1.0
C      1  0.4630930000000  0.5572370000000  0.5448020000000 1.0
C      1  0.4630930000000  0.5114390000000  0.4287570000000 1.0
C      1  0.4630950000000  0.4338400000000  0.5264410000000 1.0
C      1  0.5373190000000  0.5754260000000  0.5284230000000 1.0
C      1  0.5373200000000  0.4881610000000  0.4211950000000 1.0
C      1  0.5373210000000  0.4389320000000  0.5503820000000 1.0
C      1  0.5628590000000  0.4816030000000  0.5439160000000 1.0
C      1  0.5628580000000  0.5484910000000  0.4947030000000 1.0
C      1  0.5628590000000  0.4724270000000  0.4613820000000 1.0
C      1  0.5584250000000  0.4491920000000  0.4799780000000 1.0
C      1  0.5584240000000  0.5093260000000  0.5547400000000 1.0
C      1  0.5584230000000  0.5440040000000  0.4652820000000 1.0
C      1  0.5518270000000  0.5008400000000  0.5000000000000 1.0
C      1  0.4726860000000  0.5008390000000  0.5000000000000 1.0
END
