TITL C-180240-7980-9 0.0327681806956652 125000 -288.063379957831 0 0 43 (C1) n - 1
REM
REM in /rds/project/t2_vol4/rds-t2-cs072/BORA/CARBON/from-Arr/AIRSS/Generating-Clusters/GAP-ML-2020/Higher-Symm/SD-CG/HFTN-CG
REM
REM
REM
REM
REM
REM ./C.cell (b20cbc046b6831c77cfcea5457e17084)
REM AIRSS Version 0.9.1 bugfix July 2018 build 013d7b7c2542+ Fri, 06 Jul 2018 19:26:36 +0100
REM compiler GCC version 9.3.0
REM options -cpp -mtune=generic -march=x86-64 -g -O0
REM seed 1281468810 -470913804 1323238010 -2083332698 997519331 -1022181575 -1560742899 -1045812417 -873996463 -1315178602 -1083277390 -748346907 1847970712 994232134 -69924076 1355726627 -492299633 -942505468 659382715 1543233676 -1910687412 953256250 486784524 -1372756197 1954469697 1844009597 -1936955234 76335096 1740491830 1369535560 1649968754 -886247546 1853355167
REM
CELL 1.54180   50.00000   50.00000   50.00000   90.00000   90.00000   90.00000
LATT -1
SFAC C  
C      1  0.5232120000000  0.4517290000000  0.5504780000000 1.0
C      1  0.4922750000000  0.5438340000000  0.4518510000000 1.0
C      1  0.5054920000000  0.4921360000000  0.4425960000000 1.0
C      1  0.5169280000000  0.5057810000000  0.5510900000000 1.0
C      1  0.4510140000000  0.4789450000000  0.4909650000000 1.0
C      1  0.4484000000000  0.5093000000000  0.5272150000000 1.0
C      1  0.4713310000000  0.5254020000000  0.5192680000000 1.0
C      1  0.4685700000000  0.4573250000000  0.4995110000000 1.0
C      1  0.5485110000000  0.5010300000000  0.4593100000000 1.0
C      1  0.5603250000000  0.5150120000000  0.5324780000000 1.0
C      1  0.5042890000000  0.4498070000000  0.4694930000000 1.0
C      1  0.5001030000000  0.5544060000000  0.5513650000000 1.0
C      1  0.4781550000000  0.4982830000000  0.4500130000000 1.0
C      1  0.4932550000000  0.4893130000000  0.5501350000000 1.0
C      1  0.5265380000000  0.5133210000000  0.4471220000000 1.0
C      1  0.5397780000000  0.4942940000000  0.5361160000000 1.0
C      1  0.5190270000000  0.5391660000000  0.4588150000000 1.0
C      1  0.5390940000000  0.4650400000000  0.5329760000000 1.0
C      1  0.5431060000000  0.5382930000000  0.5322250000000 1.0
C      1  0.5442060000000  0.4723450000000  0.4597480000000 1.0
C      1  0.5390730000000  0.4554770000000  0.5049960000000 1.0
C      1  0.5258970000000  0.5483610000000  0.4861430000000 1.0
C      1  0.5135310000000  0.4454920000000  0.4965450000000 1.0
C      1  0.5005910000000  0.5476020000000  0.4995590000000 1.0
C      1  0.4893300000000  0.5478530000000  0.5263110000000 1.0
C      1  0.4775410000000  0.4551060000000  0.4715100000000 1.0
C      1  0.4858200000000  0.5209430000000  0.4923190000000 1.0
C      1  0.4913280000000  0.4509050000000  0.5150820000000 1.0
C      1  0.4639220000000  0.4784480000000  0.4639670000000 1.0
C      1  0.4708650000000  0.5012280000000  0.5397690000000 1.0
C      1  0.4763450000000  0.5247000000000  0.4630280000000 1.0
C      1  0.4996360000000  0.4619690000000  0.5410770000000 1.0
C      1  0.5563030000000  0.5004680000000  0.4880850000000 1.0
C      1  0.5677260000000  0.5204950000000  0.5046110000000 1.0
C      1  0.5539650000000  0.4702580000000  0.4868240000000 1.0
C      1  0.5475050000000  0.5436110000000  0.5042680000000 1.0
C      1  0.5181610000000  0.4669390000000  0.4514270000000 1.0
C      1  0.5195820000000  0.5341590000000  0.5486860000000 1.0
C      1  0.4144210000000  0.5096130000000  0.4899810000000 1.0
C      1  0.4344200000000  0.4974250000000  0.5039030000000 1.0
C      1  0.5268230000000  0.5005880000000  0.5052990000000 1.0
C      1  0.5043170000000  0.4959790000000  0.4918550000000 1.0
C      1  0.3953890000000  0.5219720000000  0.4788090000000 1.0
END
