TITL C-186999-1110-3 0.0708331780790852 125000 -674.575703112988 0 0 99 (C1) n - 1
REM
REM in /rds/project/t2_vol4/rds-t2-cs072/BORA/CARBON/from-Arr/AIRSS/Generating-Clusters/GAP-ML-2020/Higher-Symm/SD-CG/HFTN-CG
REM
REM
REM
REM
REM
REM ./C.cell (b20cbc046b6831c77cfcea5457e17084)
REM AIRSS Version 0.9.1 bugfix July 2018 build 013d7b7c2542+ Fri, 06 Jul 2018 19:26:36 +0100
REM compiler GCC version 9.3.0
REM options -cpp -mtune=generic -march=x86-64 -g -O0
REM seed 1598501349 -150463393 -1317713031 1230165675 815453686 1394670741 -1318225856 656977253 -1702286081 1578028062 -1278519298 -1354110329 -1752193592 2006816960 1674571050 218442845 -645568760 -44291174 -1081290582 586515332 -1315303334 -931012752 423192300 109229538 752517568 -1669405429 713290492 -843983537 -1191618673 -47145747 -1093786900 -192064094 -488475009
REM
CELL 1.54180   50.00000   50.00000   50.00000   90.00000   90.00000   90.00000
LATT -1
SFAC C  
C      1  0.5354070000000  0.5097100000000  0.5218270000000 1.0
C      1  0.5151950000000  0.5315900000000  0.5172560000000 1.0
C      1  0.5458760000000  0.4522240000000  0.5472740000000 1.0
C      1  0.5073910000000  0.4718820000000  0.5102510000000 1.0
C      1  0.5157570000000  0.4863530000000  0.5345850000000 1.0
C      1  0.5432900000000  0.5001230000000  0.4955810000000 1.0
C      1  0.4916230000000  0.4480820000000  0.5093930000000 1.0
C      1  0.4844920000000  0.5731870000000  0.4725980000000 1.0
C      1  0.4388360000000  0.4744370000000  0.5478980000000 1.0
C      1  0.4193270000000  0.4533240000000  0.4819290000000 1.0
C      1  0.4978440000000  0.5366860000000  0.5784510000000 1.0
C      1  0.4910530000000  0.5154700000000  0.5141840000000 1.0
C      1  0.5294270000000  0.4746560000000  0.5608180000000 1.0
C      1  0.5742570000000  0.5197580000000  0.4574410000000 1.0
C      1  0.5651440000000  0.4929790000000  0.4549200000000 1.0
C      1  0.5402470000000  0.4998020000000  0.5733430000000 1.0
C      1  0.5868250000000  0.5268140000000  0.4821540000000 1.0
C      1  0.4507950000000  0.5333370000000  0.4507240000000 1.0
C      1  0.4721200000000  0.4886830000000  0.4779290000000 1.0
C      1  0.4580150000000  0.5600190000000  0.4659940000000 1.0
C      1  0.4425050000000  0.5209680000000  0.5109100000000 1.0
C      1  0.4397450000000  0.4988390000000  0.5602590000000 1.0
C      1  0.5397810000000  0.5484450000000  0.4280090000000 1.0
C      1  0.5261400000000  0.5249430000000  0.4687820000000 1.0
C      1  0.5062380000000  0.4645480000000  0.5759920000000 1.0
C      1  0.5366270000000  0.5413060000000  0.5690820000000 1.0
C      1  0.4595760000000  0.5735340000000  0.5108540000000 1.0
C      1  0.4596220000000  0.4804490000000  0.5267060000000 1.0
C      1  0.5806950000000  0.4814930000000  0.5373490000000 1.0
C      1  0.5879870000000  0.5029670000000  0.4970710000000 1.0
C      1  0.4962070000000  0.4950320000000  0.4934350000000 1.0
C      1  0.5075300000000  0.5799040000000  0.5118210000000 1.0
C      1  0.4958240000000  0.4631930000000  0.4195150000000 1.0
C      1  0.4273230000000  0.5242550000000  0.4665260000000 1.0
C      1  0.5035060000000  0.5589460000000  0.5329620000000 1.0
C      1  0.5839180000000  0.5046840000000  0.5249670000000 1.0
C      1  0.4408680000000  0.4397810000000  0.4708770000000 1.0
C      1  0.4657770000000  0.5040190000000  0.4520270000000 1.0
C      1  0.5143880000000  0.4820830000000  0.4339880000000 1.0
C      1  0.4715230000000  0.5553850000000  0.5304790000000 1.0
C      1  0.5133760000000  0.4083600000000  0.5018500000000 1.0
C      1  0.5561760000000  0.5222120000000  0.5620880000000 1.0
C      1  0.5330250000000  0.4284620000000  0.5394380000000 1.0
C      1  0.5149890000000  0.4691570000000  0.4611120000000 1.0
C      1  0.4949700000000  0.4394670000000  0.5671620000000 1.0
C      1  0.5088000000000  0.4217510000000  0.4768250000000 1.0
C      1  0.4871170000000  0.5285800000000  0.4146340000000 1.0
C      1  0.5680970000000  0.4839160000000  0.4850800000000 1.0
C      1  0.4715620000000  0.5281650000000  0.5751090000000 1.0
C      1  0.4416020000000  0.4856030000000  0.4457920000000 1.0
C      1  0.5775800000000  0.5510860000000  0.4952660000000 1.0
C      1  0.5202400000000  0.5677150000000  0.4370120000000 1.0
C      1  0.5654390000000  0.5500850000000  0.5202850000000 1.0
C      1  0.5137410000000  0.5771050000000  0.4631240000000 1.0
C      1  0.4846360000000  0.4375940000000  0.4808410000000 1.0
C      1  0.4234400000000  0.4801270000000  0.4865520000000 1.0
C      1  0.4708530000000  0.5343770000000  0.5068950000000 1.0
C      1  0.4420710000000  0.5633090000000  0.4888770000000 1.0
C      1  0.4279470000000  0.5381690000000  0.4914130000000 1.0
C      1  0.5125250000000  0.5550610000000  0.5613370000000 1.0
C      1  0.4791320000000  0.4764770000000  0.5813650000000 1.0
C      1  0.4518640000000  0.4332260000000  0.5316490000000 1.0
C      1  0.4480450000000  0.4921040000000  0.5010790000000 1.0
C      1  0.4492970000000  0.4577500000000  0.4459010000000 1.0
C      1  0.5211240000000  0.4966310000000  0.4784890000000 1.0
C      1  0.5652980000000  0.4582150000000  0.4991040000000 1.0
C      1  0.4847280000000  0.4624760000000  0.4644260000000 1.0
C      1  0.5056170000000  0.4223360000000  0.5473300000000 1.0
C      1  0.4447530000000  0.4474190000000  0.5558550000000 1.0
C      1  0.4681790000000  0.4514760000000  0.5719000000000 1.0
C      1  0.5282260000000  0.4417070000000  0.4699740000000 1.0
C      1  0.4758490000000  0.4567250000000  0.4358650000000 1.0
C      1  0.5625560000000  0.5233580000000  0.5337550000000 1.0
C      1  0.5424730000000  0.5207230000000  0.4246810000000 1.0
C      1  0.4629710000000  0.5008850000000  0.5784760000000 1.0
C      1  0.4624820000000  0.4137420000000  0.5142240000000 1.0
C      1  0.4671280000000  0.4544880000000  0.5208040000000 1.0
C      1  0.5426420000000  0.4939750000000  0.4337850000000 1.0
C      1  0.5213850000000  0.5195150000000  0.5831640000000 1.0
C      1  0.4910950000000  0.5067430000000  0.4377070000000 1.0
C      1  0.5176500000000  0.5432510000000  0.4904890000000 1.0
C      1  0.5002350000000  0.5295160000000  0.4551460000000 1.0
C      1  0.4867660000000  0.4972460000000  0.5362300000000 1.0
C      1  0.4594630000000  0.4239960000000  0.4863810000000 1.0
C      1  0.4878200000000  0.5439220000000  0.4812040000000 1.0
C      1  0.4506080000000  0.5346090000000  0.4213060000000 1.0
C      1  0.5273640000000  0.5721710000000  0.4906970000000 1.0
C      1  0.4577620000000  0.5402960000000  0.5523530000000 1.0
C      1  0.4830160000000  0.5848850000000  0.4989510000000 1.0
C      1  0.5370430000000  0.4204500000000  0.5116400000000 1.0
C      1  0.5557910000000  0.5681260000000  0.5005120000000 1.0
C      1  0.5008370000000  0.5477620000000  0.4318860000000 1.0
C      1  0.5665310000000  0.4605460000000  0.5286200000000 1.0
C      1  0.5502460000000  0.5345080000000  0.4514560000000 1.0
C      1  0.5479790000000  0.4381650000000  0.4909760000000 1.0
C      1  0.4923960000000  0.4144560000000  0.5214710000000 1.0
C      1  0.4402620000000  0.5215480000000  0.5415450000000 1.0
C      1  0.4642800000000  0.5336500000000  0.3993970000000 1.0
C      1  0.4222200000000  0.4967340000000  0.4633500000000 1.0
END
