TITL C-180445-1503-2 0.0443550742000096 125000 -53.7992654601737 0 0 9 (Cs) n - 1
REM
REM in /rds/project/t2_vol4/rds-t2-cs072/BORA/CARBON/from-Arr/AIRSS/Generating-Clusters/GAP-ML-2020/Higher-Symm/SD-CG/HFTN-CG
REM
REM
REM
REM
REM
REM ./C.cell (b20cbc046b6831c77cfcea5457e17084)
REM AIRSS Version 0.9.1 bugfix July 2018 build 013d7b7c2542+ Fri, 06 Jul 2018 19:26:36 +0100
REM compiler GCC version 9.3.0
REM options -cpp -mtune=generic -march=x86-64 -g -O0
REM seed -842496562 1784443262 -1159419546 -344455730 -1786851730 -378347503 -501994144 -1791291601 -716766569 -1746830912 -2115314197 -1886928717 602182425 697248697 964465911 1816841159 -1306510847 -1623408317 505439084 699046900 -2031170975 850015602 -1463804956 481767507 927813358 -581581067 832247544 -458585528 -186465957 1616020992 561179446 -2025682114 -1299348554
REM
CELL 1.54180   50.00000   50.00000   50.00000   90.00000   90.00000   90.00000
LATT -1
SFAC C  
C      1  0.4714290000000  0.4905120000000  0.5076480000000 1.0
C      1  0.5032500000000  0.4970380000000  0.4715560000000 1.0
C      1  0.4744570000000  0.5076050000000  0.5268640000000 1.0
C      1  0.4976080000000  0.5209530000000  0.5246810000000 1.0
C      1  0.5193860000000  0.5168190000000  0.4759040000000 1.0
C      1  0.5064180000000  0.5450380000000  0.5156910000000 1.0
C      1  0.5054750000000  0.4591060000000  0.4993220000000 1.0
C      1  0.4914970000000  0.4804420000000  0.4908570000000 1.0
C      1  0.5181750000000  0.5251710000000  0.5013530000000 1.0
END
