TITL C-180239-1892-9 238.555443223154 125000 -688.388556429973 0 0 100 (C1) n - 1
REM
REM in /rds/project/t2_vol4/rds-t2-cs072/BORA/CARBON/from-Arr/AIRSS/Generating-Clusters/GAP-ML-2020/Higher-Symm/SD-CG/HFTN-CG
REM
REM
REM
REM
REM
REM ./C.cell (b20cbc046b6831c77cfcea5457e17084)
REM AIRSS Version 0.9.1 bugfix July 2018 build 013d7b7c2542+ Fri, 06 Jul 2018 19:26:36 +0100
REM compiler GCC version 9.3.0
REM options -cpp -mtune=generic -march=x86-64 -g -O0
REM seed -376970745 -1305778958 422616351 -269354566 165919069 1207274475 -128704035 -381876521 15465710 1877943276 -337860813 1839044783 -335455776 1601593264 1736182559 -1726218994 2142284808 -953257839 1125299349 292690342 1835801854 -891967067 -696073053 1145513292 1111112200 -497474493 -557003169 1501756129 -183065133 -364557079 -151847444 501653049 899845728
REM
CELL 1.54180   50.00000   50.00000   50.00000   90.00000   90.00000   90.00000
LATT -1
SFAC C  
C      1  0.4968310000000  0.5111620000000  0.4623420000000 1.0
C      1  0.5376580000000  0.5111220000000  0.4965650000000 1.0
C      1  0.5034410000000  0.5110820000000  0.5369250000000 1.0
C      1  0.4629860000000  0.5111420000000  0.5031720000000 1.0
C      1  0.4777100000000  0.5212160000000  0.5711840000000 1.0
C      1  0.4286800000000  0.5212730000000  0.4777760000000 1.0
C      1  0.5225520000000  0.5215590000000  0.4286130000000 1.0
C      1  0.5712200000000  0.5215130000000  0.5226860000000 1.0
C      1  0.5440630000000  0.4823970000000  0.4937550000000 1.0
C      1  0.5074470000000  0.4828060000000  0.5416480000000 1.0
C      1  0.4581300000000  0.4828740000000  0.5068370000000 1.0
C      1  0.4941580000000  0.4825490000000  0.4559510000000 1.0
C      1  0.4295250000000  0.4922200000000  0.5462360000000 1.0
C      1  0.4529220000000  0.4922260000000  0.4295640000000 1.0
C      1  0.5709150000000  0.4922110000000  0.4529810000000 1.0
C      1  0.5460350000000  0.4921750000000  0.5710360000000 1.0
C      1  0.5269130000000  0.4943350000000  0.4239340000000 1.0
C      1  0.5753450000000  0.4942170000000  0.5272090000000 1.0
C      1  0.4733450000000  0.4940170000000  0.5761890000000 1.0
C      1  0.4233120000000  0.4941200000000  0.4735310000000 1.0
C      1  0.4944650000000  0.5320930000000  0.4377760000000 1.0
C      1  0.5622380000000  0.5320990000000  0.4944610000000 1.0
C      1  0.5056790000000  0.5320670000000  0.5621460000000 1.0
C      1  0.4378600000000  0.5320510000000  0.5056530000000 1.0
C      1  0.5132980000000  0.5484080000000  0.5157370000000 1.0
C      1  0.4841830000000  0.5484860000000  0.5131220000000 1.0
C      1  0.4868490000000  0.5484270000000  0.4840190000000 1.0
C      1  0.5159100000000  0.5483420000000  0.4866710000000 1.0
C      1  0.5508080000000  0.5355230000000  0.5392210000000 1.0
C      1  0.4610370000000  0.5351990000000  0.5506760000000 1.0
C      1  0.4492620000000  0.5352290000000  0.4610430000000 1.0
C      1  0.5391640000000  0.5355060000000  0.4491300000000 1.0
C      1  0.4994810000000  0.5598710000000  0.4455500000000 1.0
C      1  0.5544460000000  0.5598490000000  0.4995480000000 1.0
C      1  0.5005290000000  0.5597570000000  0.5543930000000 1.0
C      1  0.4456060000000  0.5597670000000  0.5005750000000 1.0
C      1  0.5071240000000  0.4640780000000  0.5201640000000 1.0
C      1  0.4799380000000  0.4644160000000  0.5059810000000 1.0
C      1  0.4942450000000  0.4645150000000  0.4787560000000 1.0
C      1  0.5213980000000  0.4641710000000  0.4930540000000 1.0
C      1  0.5463370000000  0.4552890000000  0.4387380000000 1.0
C      1  0.5603760000000  0.4553840000000  0.5464810000000 1.0
C      1  0.4540920000000  0.4555970000000  0.5605490000000 1.0
C      1  0.4386960000000  0.4554470000000  0.4541560000000 1.0
C      1  0.4796820000000  0.4477480000000  0.5701770000000 1.0
C      1  0.4295690000000  0.4478080000000  0.4799290000000 1.0
C      1  0.5201800000000  0.4478900000000  0.4306760000000 1.0
C      1  0.5688740000000  0.4477930000000  0.5204450000000 1.0
C      1  0.4796090000000  0.5720900000000  0.4663920000000 1.0
C      1  0.5336050000000  0.5721170000000  0.4796620000000 1.0
C      1  0.5203250000000  0.5721000000000  0.5335780000000 1.0
C      1  0.4664180000000  0.5720620000000  0.5203800000000 1.0
C      1  0.5177110000000  0.5940320000000  0.4896700000000 1.0
C      1  0.5103020000000  0.5940700000000  0.5177670000000 1.0
C      1  0.4821960000000  0.5940650000000  0.5103580000000 1.0
C      1  0.4896140000000  0.5940340000000  0.4822550000000 1.0
C      1  0.4692500000000  0.4366800000000  0.5186090000000 1.0
C      1  0.4815040000000  0.4368510000000  0.4689280000000 1.0
C      1  0.5313870000000  0.4365970000000  0.4814120000000 1.0
C      1  0.5186060000000  0.4364400000000  0.5310100000000 1.0
C      1  0.5082030000000  0.4255730000000  0.4618920000000 1.0
C      1  0.5382960000000  0.4252740000000  0.5081640000000 1.0
C      1  0.4919400000000  0.4254040000000  0.5381580000000 1.0
C      1  0.4620600000000  0.4256980000000  0.4919630000000 1.0
C      1  0.4724860000000  0.5623040000000  0.5479860000000 1.0
C      1  0.4520100000000  0.5623070000000  0.4725210000000 1.0
C      1  0.5275470000000  0.5624430000000  0.4520570000000 1.0
C      1  0.5479430000000  0.5624660000000  0.5276050000000 1.0
C      1  0.5654950000000  0.4731220000000  0.4751960000000 1.0
C      1  0.5226390000000  0.4733400000000  0.5653110000000 1.0
C      1  0.4350420000000  0.4733990000000  0.5229870000000 1.0
C      1  0.4751750000000  0.4732030000000  0.4348400000000 1.0
C      1  0.4870600000000  0.4218390000000  0.5647400000000 1.0
C      1  0.4354590000000  0.4219750000000  0.4872660000000 1.0
C      1  0.5130390000000  0.4216440000000  0.4353200000000 1.0
C      1  0.5648460000000  0.4214360000000  0.5132340000000 1.0
C      1  0.4626130000000  0.5283870000000  0.4334380000000 1.0
C      1  0.5666700000000  0.5284730000000  0.4626590000000 1.0
C      1  0.5372470000000  0.5283790000000  0.5667200000000 1.0
C      1  0.4334130000000  0.5282920000000  0.5373030000000 1.0
C      1  0.4471190000000  0.4491850000000  0.5347340000000 1.0
C      1  0.4646100000000  0.4492530000000  0.4470710000000 1.0
C      1  0.5536220000000  0.4489520000000  0.4645620000000 1.0
C      1  0.5346220000000  0.4488580000000  0.5535760000000 1.0
C      1  0.5488850000000  0.5145140000000  0.5877100000000 1.0
C      1  0.4125780000000  0.5143910000000  0.5491130000000 1.0
C      1  0.4506560000000  0.5145340000000  0.4127110000000 1.0
C      1  0.5875230000000  0.5146690000000  0.4508280000000 1.0
C      1  0.4255750000000  0.4725450000000  0.4941070000000 1.0
C      1  0.5062480000000  0.4731950000000  0.4287400000000 1.0
C      1  0.5707550000000  0.4731180000000  0.5065880000000 1.0
C      1  0.4938130000000  0.4724040000000  0.5745810000000 1.0
C      1  0.5656100000000  0.4827230000000  0.5512870000000 1.0
C      1  0.4492740000000  0.4828420000000  0.5658230000000 1.0
C      1  0.4333360000000  0.4828110000000  0.4494070000000 1.0
C      1  0.5510390000000  0.4827560000000  0.4334230000000 1.0
C      1  0.5224030000000  0.5219420000000  0.4746560000000 1.0
C      1  0.5253380000000  0.5220850000000  0.5220860000000 1.0
C      1  0.4778510000000  0.5221120000000  0.5250760000000 1.0
C      1  0.4749180000000  0.5219920000000  0.4775750000000 1.0
END
