TITL C-186994-1083-6 -0.16767294436844 125000 -469.467424661291 0 0 67 (C1) n - 1
REM
REM in /rds/project/t2_vol4/rds-t2-cs072/BORA/CARBON/from-Arr/AIRSS/Generating-Clusters/GAP-ML-2020/Higher-Symm/SD-CG/HFTN-CG
REM
REM
REM
REM
REM
REM ./C.cell (b20cbc046b6831c77cfcea5457e17084)
REM AIRSS Version 0.9.1 bugfix July 2018 build 013d7b7c2542+ Fri, 06 Jul 2018 19:26:36 +0100
REM compiler GCC version 9.3.0
REM options -cpp -mtune=generic -march=x86-64 -g -O0
REM seed -2096287715 -1274693741 -1172940692 887732560 1996497292 834802473 1060467249 514488502 -48623975 1600235143 -52251834 -896218841 -1383460390 -528861507 -18787455 -1934958071 -237488682 1265328424 971712760 295597995 660432975 1501834746 -689313113 2012603562 563420949 1324221810 -177331855 -759505118 -2108754641 1796481868 -1062099590 1399495020 158000345
REM
CELL 1.54180   50.00000   50.00000   50.00000   90.00000   90.00000   90.00000
LATT -1
SFAC C  
C      1  0.4899360000000  0.4453420000000  0.5387200000000 1.0
C      1  0.4580140000000  0.5354180000000  0.5378530000000 1.0
C      1  0.5520030000000  0.5180290000000  0.5379160000000 1.0
C      1  0.4257080000000  0.5017490000000  0.5444120000000 1.0
C      1  0.5388740000000  0.5628880000000  0.5445770000000 1.0
C      1  0.5356690000000  0.4344180000000  0.5458230000000 1.0
C      1  0.5151110000000  0.5044420000000  0.5787080000000 1.0
C      1  0.4963400000000  0.4846460000000  0.5789280000000 1.0
C      1  0.4885520000000  0.5107510000000  0.5787170000000 1.0
C      1  0.4421610000000  0.4592990000000  0.5343590000000 1.0
C      1  0.4939030000000  0.5699000000000  0.5339400000000 1.0
C      1  0.5638350000000  0.4698780000000  0.5337950000000 1.0
C      1  0.4733710000000  0.4444580000000  0.4773630000000 1.0
C      1  0.4658490000000  0.5497040000000  0.4763410000000 1.0
C      1  0.5602500000000  0.5032900000000  0.4754360000000 1.0
C      1  0.4994620000000  0.5737830000000  0.5060580000000 1.0
C      1  0.5647200000000  0.4627490000000  0.5060850000000 1.0
C      1  0.4357620000000  0.4618270000000  0.5064640000000 1.0
C      1  0.5429970000000  0.4576280000000  0.4651790000000 1.0
C      1  0.4432000000000  0.4821820000000  0.4648110000000 1.0
C      1  0.5140810000000  0.5576510000000  0.4649030000000 1.0
C      1  0.5074650000000  0.4704350000000  0.4397260000000 1.0
C      1  0.4720860000000  0.5055410000000  0.4359890000000 1.0
C      1  0.5192080000000  0.5214700000000  0.4371090000000 1.0
C      1  0.5168650000000  0.4502580000000  0.4567020000000 1.0
C      1  0.4495830000000  0.5078920000000  0.4549560000000 1.0
C      1  0.5331820000000  0.5389560000000  0.4552380000000 1.0
C      1  0.4750350000000  0.4883890000000  0.5083720000000 1.0
C      1  0.5031570000000  0.5266020000000  0.5083430000000 1.0
C      1  0.5219190000000  0.4830770000000  0.5086110000000 1.0
C      1  0.5281550000000  0.4903550000000  0.4368230000000 1.0
C      1  0.4809750000000  0.4773580000000  0.4408660000000 1.0
C      1  0.4914280000000  0.5268010000000  0.4411920000000 1.0
C      1  0.5671890000000  0.4977110000000  0.5270280000000 1.0
C      1  0.4644970000000  0.4420740000000  0.5283180000000 1.0
C      1  0.4678890000000  0.5591460000000  0.5276340000000 1.0
C      1  0.4324160000000  0.4847500000000  0.4909240000000 1.0
C      1  0.5213890000000  0.5653830000000  0.4910320000000 1.0
C      1  0.5463930000000  0.4478280000000  0.4914920000000 1.0
C      1  0.4721890000000  0.5648130000000  0.4993700000000 1.0
C      1  0.5701420000000  0.4907830000000  0.4987520000000 1.0
C      1  0.4569920000000  0.4425130000000  0.5001480000000 1.0
C      1  0.5251890000000  0.5061080000000  0.4122470000000 1.0
C      1  0.4999030000000  0.5014540000000  0.4016120000000 1.0
C      1  0.4749690000000  0.5069870000000  0.4052590000000 1.0
C      1  0.5205180000000  0.4811190000000  0.5388650000000 1.0
C      1  0.4737130000000  0.4911440000000  0.5387170000000 1.0
C      1  0.5057970000000  0.5266710000000  0.5385070000000 1.0
C      1  0.4795730000000  0.5183540000000  0.5493130000000 1.0
C      1  0.5263670000000  0.5080250000000  0.5494210000000 1.0
C      1  0.4940140000000  0.4727090000000  0.5497150000000 1.0
C      1  0.5447470000000  0.5485620000000  0.4986490000000 1.0
C      1  0.5206070000000  0.4359030000000  0.4999710000000 1.0
C      1  0.4350590000000  0.5132370000000  0.4982780000000 1.0
C      1  0.4459750000000  0.4834930000000  0.5473320000000 1.0
C      1  0.5128590000000  0.5546190000000  0.5472960000000 1.0
C      1  0.5413080000000  0.4612040000000  0.5475100000000 1.0
C      1  0.5145010000000  0.4338260000000  0.5279780000000 1.0
C      1  0.4361000000000  0.5199480000000  0.5263480000000 1.0
C      1  0.5497920000000  0.5447580000000  0.5267120000000 1.0
C      1  0.4878610000000  0.5485620000000  0.4582080000000 1.0
C      1  0.5488120000000  0.4842000000000  0.4566270000000 1.0
C      1  0.4638240000000  0.4636860000000  0.4582580000000 1.0
C      1  0.5018870000000  0.4384880000000  0.4776350000000 1.0
C      1  0.4470280000000  0.5274560000000  0.4755200000000 1.0
C      1  0.5512050000000  0.5310450000000  0.4758520000000 1.0
C      1  0.5000640000000  0.4993870000000  0.4988020000000 1.0
END
