TITL C-187014-1098-4 -0.00677748711093956 125000 -506.23202810109 0 0 71 (C1) n - 1
REM
REM in /rds/project/t2_vol4/rds-t2-cs072/BORA/CARBON/from-Arr/AIRSS/Generating-Clusters/GAP-ML-2020/Higher-Symm/SD-CG/HFTN-CG
REM
REM
REM
REM
REM
REM ./C.cell (b20cbc046b6831c77cfcea5457e17084)
REM AIRSS Version 0.9.1 bugfix July 2018 build 013d7b7c2542+ Fri, 06 Jul 2018 19:26:36 +0100
REM compiler GCC version 9.3.0
REM options -cpp -mtune=generic -march=x86-64 -g -O0
REM seed 1085904742 646748128 -1410995004 1516877687 216056468 771767384 -125816358 489641954 959931312 1970895100 1851381862 1352666467 -1691369758 2009485854 -451608625 -1065131621 1037147858 -2106055470 -423538139 214948548 -1242841661 1093530495 334407031 -1704287554 362814259 -174069828 2076437187 -394119439 -1852612133 -1678546079 672809056 -884928082 -842173777
REM
CELL 1.54180   50.00000   50.00000   50.00000   90.00000   90.00000   90.00000
LATT -1
SFAC C  
C      1  0.5516010000000  0.4519750000000  0.5013260000000 1.0
C      1  0.5312930000000  0.4512820000000  0.4593740000000 1.0
C      1  0.4858800000000  0.4509880000000  0.4491110000000 1.0
C      1  0.4499000000000  0.4523260000000  0.4787460000000 1.0
C      1  0.4501490000000  0.4525220000000  0.5253970000000 1.0
C      1  0.4864310000000  0.4512190000000  0.5547530000000 1.0
C      1  0.5318630000000  0.4517480000000  0.5435770000000 1.0
C      1  0.5172520000000  0.5494740000000  0.4465530000000 1.0
C      1  0.4654260000000  0.5500050000000  0.4397490000000 1.0
C      1  0.4570950000000  0.5481620000000  0.4920010000000 1.0
C      1  0.4702720000000  0.5444880000000  0.5418580000000 1.0
C      1  0.4963270000000  0.5444540000000  0.5552620000000 1.0
C      1  0.5425570000000  0.5504530000000  0.5317790000000 1.0
C      1  0.5554990000000  0.5511370000000  0.4814400000000 1.0
C      1  0.5181460000000  0.4323390000000  0.4764910000000 1.0
C      1  0.4907980000000  0.4322960000000  0.4703270000000 1.0
C      1  0.4689680000000  0.4328950000000  0.4879270000000 1.0
C      1  0.4689950000000  0.4329740000000  0.5159390000000 1.0
C      1  0.4909090000000  0.4324820000000  0.5334520000000 1.0
C      1  0.5182840000000  0.4325980000000  0.5270350000000 1.0
C      1  0.5303300000000  0.4326960000000  0.5017430000000 1.0
C      1  0.4495730000000  0.4818210000000  0.4348420000000 1.0
C      1  0.4195610000000  0.4865700000000  0.4988760000000 1.0
C      1  0.4450500000000  0.4832980000000  0.5647500000000 1.0
C      1  0.5141670000000  0.4825700000000  0.5824320000000 1.0
C      1  0.5701430000000  0.4841880000000  0.5387800000000 1.0
C      1  0.5723060000000  0.4830460000000  0.4678690000000 1.0
C      1  0.5187700000000  0.4821070000000  0.4218570000000 1.0
C      1  0.4651980000000  0.4836200000000  0.4105080000000 1.0
C      1  0.4110530000000  0.4922550000000  0.4726190000000 1.0
C      1  0.4204440000000  0.4908380000000  0.5526580000000 1.0
C      1  0.4904230000000  0.4858330000000  0.5979680000000 1.0
C      1  0.5663040000000  0.4889670000000  0.5666470000000 1.0
C      1  0.5916620000000  0.4874960000000  0.4887540000000 1.0
C      1  0.5470050000000  0.4866720000000  0.4197030000000 1.0
C      1  0.4408430000000  0.5091360000000  0.4416370000000 1.0
C      1  0.4257840000000  0.5131240000000  0.5109260000000 1.0
C      1  0.4570260000000  0.5090590000000  0.5731230000000 1.0
C      1  0.5251070000000  0.5096760000000  0.5769920000000 1.0
C      1  0.5734310000000  0.5109240000000  0.5259860000000 1.0
C      1  0.5653610000000  0.5095240000000  0.4565720000000 1.0
C      1  0.5054110000000  0.5085070000000  0.4194790000000 1.0
C      1  0.5466620000000  0.5619680000000  0.5063770000000 1.0
C      1  0.5307590000000  0.5596630000000  0.4684630000000 1.0
C      1  0.4900180000000  0.5566890000000  0.4498600000000 1.0
C      1  0.4686620000000  0.5555170000000  0.4670880000000 1.0
C      1  0.4733260000000  0.5543450000000  0.5147520000000 1.0
C      1  0.5009500000000  0.5637990000000  0.5132270000000 1.0
C      1  0.5148090000000  0.5553040000000  0.5369370000000 1.0
C      1  0.4353750000000  0.5295340000000  0.4898800000000 1.0
C      1  0.4503940000000  0.5277350000000  0.5526550000000 1.0
C      1  0.5020680000000  0.5263600000000  0.5759870000000 1.0
C      1  0.5574950000000  0.5286700000000  0.5419260000000 1.0
C      1  0.5702790000000  0.5279330000000  0.4775780000000 1.0
C      1  0.5242010000000  0.5269480000000  0.4308630000000 1.0
C      1  0.4583850000000  0.5259590000000  0.4277420000000 1.0
C      1  0.4269740000000  0.5148250000000  0.4651370000000 1.0
C      1  0.4286630000000  0.5147690000000  0.5380970000000 1.0
C      1  0.4806010000000  0.5102360000000  0.5871950000000 1.0
C      1  0.5500230000000  0.5129790000000  0.5655120000000 1.0
C      1  0.5823010000000  0.5124860000000  0.4996530000000 1.0
C      1  0.5492070000000  0.5116810000000  0.4340170000000 1.0
C      1  0.4779940000000  0.5092710000000  0.4144410000000 1.0
C      1  0.4593080000000  0.4619100000000  0.5517820000000 1.0
C      1  0.5129270000000  0.4614250000000  0.5632520000000 1.0
C      1  0.5547870000000  0.4625890000000  0.5281790000000 1.0
C      1  0.5542020000000  0.4619100000000  0.4735900000000 1.0
C      1  0.5114450000000  0.4613500000000  0.4399070000000 1.0
C      1  0.4585930000000  0.4615600000000  0.4526150000000 1.0
C      1  0.4362350000000  0.4636570000000  0.5022790000000 1.0
C      1  0.5210500000000  0.5698710000000  0.4942070000000 1.0
END
