TITL C-183186-4277-10 150.930131628784 125000 -348.760631371703 0 0 50 (C5) n - 1
REM
REM in /rds/project/t2_vol4/rds-t2-cs072/BORA/CARBON/from-Arr/AIRSS/Generating-Clusters/GAP-ML-2020/Higher-Symm/SD-CG/HFTN-CG
REM
REM
REM
REM
REM
REM ./C.cell (b20cbc046b6831c77cfcea5457e17084)
REM AIRSS Version 0.9.1 bugfix July 2018 build 013d7b7c2542+ Fri, 06 Jul 2018 19:26:36 +0100
REM compiler GCC version 9.3.0
REM options -cpp -mtune=generic -march=x86-64 -g -O0
REM seed -978055116 -1934648536 -140857883 -838449098 -1571546883 371531397 -693058818 -1900272487 -515055760 -107096113 891845041 -879316721 1972176620 -978877431 -1635313690 1590436055 -1759957084 1790763328 264682954 -1522888632 1073661593 1981691397 -1610583503 1071554971 -360677428 -1434335349 -253336381 1647103849 -138065839 870726535 -1632080281 1519544355 -51096832
REM
CELL 1.54180   50.00000   50.00000   50.00000   90.00000   90.00000   90.00000
LATT -1
SFAC C  
C      1  0.4310510000000  0.4723000000000  0.4906210000000 1.0
C      1  0.4876120000000  0.4722970000000  0.4315290000000 1.0
C      1  0.5612900000000  0.4722900000000  0.4670610000000 1.0
C      1  0.5502650000000  0.4722890000000  0.5481130000000 1.0
C      1  0.4697730000000  0.4722960000000  0.5626740000000 1.0
C      1  0.4310550000000  0.5277110000000  0.4906220000000 1.0
C      1  0.4876160000000  0.5277080000000  0.4315300000000 1.0
C      1  0.5612940000000  0.5277010000000  0.4670620000000 1.0
C      1  0.5502690000000  0.5277010000000  0.5481140000000 1.0
C      1  0.4697770000000  0.5277070000000  0.5626750000000 1.0
C      1  0.4823980000000  0.4680490000000  0.5167920000000 1.0
C      1  0.4785880000000  0.4680490000000  0.4884500000000 1.0
C      1  0.5043660000000  0.4680480000000  0.4760690000000 1.0
C      1  0.5241060000000  0.4680460000000  0.4967590000000 1.0
C      1  0.5105300000000  0.4680460000000  0.5219270000000 1.0
C      1  0.4824030000000  0.5319540000000  0.5167930000000 1.0
C      1  0.4785930000000  0.5319540000000  0.4884510000000 1.0
C      1  0.5043700000000  0.5319520000000  0.4760700000000 1.0
C      1  0.5241110000000  0.5319500000000  0.4967600000000 1.0
C      1  0.5105350000000  0.5319510000000  0.5219280000000 1.0
C      1  0.5518470000000  0.5272560000000  0.4926320000000 1.0
C      1  0.5230300000000  0.5272580000000  0.5470310000000 1.0
C      1  0.4623890000000  0.5272630000000  0.5364350000000 1.0
C      1  0.4537280000000  0.5272650000000  0.4754880000000 1.0
C      1  0.5090160000000  0.5272600000000  0.4484160000000 1.0
C      1  0.5518430000000  0.4727360000000  0.4926320000000 1.0
C      1  0.5230260000000  0.4727370000000  0.5470310000000 1.0
C      1  0.4623850000000  0.4727420000000  0.5364340000000 1.0
C      1  0.4537240000000  0.4727440000000  0.4754860000000 1.0
C      1  0.5090120000000  0.4727400000000  0.4484150000000 1.0
C      1  0.4857200000000  0.5275770000000  0.5828680000000 1.0
C      1  0.4167770000000  0.5275840000000  0.5120250000000 1.0
C      1  0.4628480000000  0.5275820000000  0.4245650000000 1.0
C      1  0.5602650000000  0.5275740000000  0.4413540000000 1.0
C      1  0.5744000000000  0.5275710000000  0.5391910000000 1.0
C      1  0.4857160000000  0.4724220000000  0.5828670000000 1.0
C      1  0.4167730000000  0.4724290000000  0.5120240000000 1.0
C      1  0.4628440000000  0.4724270000000  0.4245640000000 1.0
C      1  0.5602610000000  0.4724190000000  0.4413530000000 1.0
C      1  0.5743960000000  0.4724160000000  0.5391900000000 1.0
C      1  0.5071720000000  0.4859460000000  0.5683850000000 1.0
C      1  0.4371780000000  0.4859520000000  0.5279540000000 1.0
C      1  0.4540000000000  0.4859520000000  0.4488920000000 1.0
C      1  0.5343910000000  0.4859460000000  0.4404590000000 1.0
C      1  0.5672540000000  0.4859420000000  0.5143090000000 1.0
C      1  0.5071740000000  0.5140510000000  0.5683850000000 1.0
C      1  0.4371800000000  0.5140570000000  0.5279550000000 1.0
C      1  0.4540020000000  0.5140570000000  0.4488920000000 1.0
C      1  0.5343930000000  0.5140510000000  0.4404590000000 1.0
C      1  0.5672560000000  0.5140470000000  0.5143100000000 1.0
END
