TITL C-180225-5339-4 -0.0675902547488349 125000 -1006.89282479934 0 0 148 (C3) n - 1
REM
REM in /rds/project/t2_vol4/rds-t2-cs072/BORA/CARBON/from-Arr/AIRSS/Generating-Clusters/GAP-ML-2020/Higher-Symm/SD-CG/HFTN-CG
REM
REM
REM
REM
REM
REM ./C.cell (b20cbc046b6831c77cfcea5457e17084)
REM AIRSS Version 0.9.1 bugfix July 2018 build 013d7b7c2542+ Fri, 06 Jul 2018 19:26:36 +0100
REM compiler GCC version 9.3.0
REM options -cpp -mtune=generic -march=x86-64 -g -O0
REM seed -1874959609 482087124 597027057 -1860270127 -345402824 -1582921494 -1068005593 1444802257 -1650431236 -47796650 -1243112277 597876297 -53640637 -964523831 1941010446 -1538816148 -1970291001 -2062934593 163508428 -2047356735 231995447 2040738198 -2126685188 -1482200490 461371945 1066997046 -1556351111 143734307 -481982697 1495794133 1126983957 345951764 1906417040
REM
CELL 1.54180   50.00000   50.00000   50.00000   90.00000   90.00000   90.00000
LATT -1
SFAC C  
C      1  0.4076770000000  0.5473830000000  0.5093150000000 1.0
C      1  0.5875000000000  0.5567560000000  0.5093120000000 1.0
C      1  0.5057060000000  0.3963380000000  0.5093150000000 1.0
C      1  0.5235580000000  0.4929880000000  0.5314090000000 1.0
C      1  0.4824530000000  0.4835980000000  0.5314100000000 1.0
C      1  0.4948730000000  0.5238910000000  0.5314090000000 1.0
C      1  0.5001970000000  0.4005190000000  0.4809230000000 1.0
C      1  0.4140520000000  0.5500620000000  0.4809220000000 1.0
C      1  0.5866320000000  0.5498950000000  0.4809200000000 1.0
C      1  0.5269210000000  0.5702410000000  0.5575930000000 1.0
C      1  0.5476730000000  0.4420600000000  0.5575950000000 1.0
C      1  0.4262900000000  0.4881780000000  0.5575960000000 1.0
C      1  0.5194510000000  0.5190590000000  0.5152680000000 1.0
C      1  0.5070840000000  0.4741190000000  0.5152680000000 1.0
C      1  0.4743480000000  0.5072990000000  0.5152680000000 1.0
C      1  0.5384710000000  0.4632630000000  0.5782820000000 1.0
C      1  0.4492530000000  0.4855470000000  0.5782830000000 1.0
C      1  0.5131610000000  0.5516700000000  0.5782810000000 1.0
C      1  0.4628240000000  0.4585230000000  0.5778730000000 1.0
C      1  0.4829720000000  0.5534290000000  0.5778720000000 1.0
C      1  0.5550890000000  0.4885270000000  0.5778720000000 1.0
C      1  0.5054910000000  0.6082720000000  0.4708520000000 1.0
C      1  0.5913240000000  0.4416010000000  0.4708530000000 1.0
C      1  0.4040660000000  0.4506030000000  0.4708560000000 1.0
C      1  0.4460910000000  0.5350360000000  0.4409230000000 1.0
C      1  0.5576000000000  0.5296590000000  0.4409220000000 1.0
C      1  0.4971890000000  0.4357790000000  0.4409240000000 1.0
C      1  0.5776010000000  0.4511910000000  0.5546050000000 1.0
C      1  0.4192330000000  0.4576950000000  0.5546070000000 1.0
C      1  0.5040500000000  0.5915930000000  0.5546040000000 1.0
C      1  0.6127380000000  0.4443370000000  0.4555890000000 1.0
C      1  0.3957290000000  0.4306890000000  0.4555920000000 1.0
C      1  0.4924140000000  0.6254480000000  0.4555880000000 1.0
C      1  0.5125340000000  0.4616320000000  0.5909800000000 1.0
C      1  0.4608100000000  0.5088250000000  0.5909800000000 1.0
C      1  0.5275420000000  0.5300230000000  0.5909780000000 1.0
C      1  0.5560790000000  0.5645140000000  0.5498220000000 1.0
C      1  0.5281350000000  0.4196720000000  0.5498240000000 1.0
C      1  0.4166700000000  0.5162920000000  0.5498250000000 1.0
C      1  0.5920970000000  0.5307510000000  0.5191580000000 1.0
C      1  0.4808860000000  0.4053600000000  0.5191610000000 1.0
C      1  0.4278990000000  0.5643660000000  0.5191600000000 1.0
C      1  0.4270510000000  0.4359600000000  0.5416740000000 1.0
C      1  0.4813190000000  0.5956900000000  0.5416710000000 1.0
C      1  0.5925140000000  0.4688280000000  0.5416710000000 1.0
C      1  0.5451450000000  0.4355100000000  0.4352750000000 1.0
C      1  0.4218800000000  0.4936390000000  0.4352750000000 1.0
C      1  0.5338540000000  0.5713250000000  0.4352730000000 1.0
C      1  0.4038700000000  0.5289400000000  0.4629040000000 1.0
C      1  0.5734320000000  0.5692730000000  0.4629010000000 1.0
C      1  0.5235790000000  0.4022620000000  0.4629040000000 1.0
C      1  0.5051480000000  0.4847250000000  0.6061300000000 1.0
C      1  0.4845020000000  0.5036750000000  0.6061300000000 1.0
C      1  0.5112360000000  0.5120810000000  0.6061300000000 1.0
C      1  0.5634110000000  0.4959180000000  0.5129570000000 1.0
C      1  0.4650630000000  0.4476180000000  0.5129590000000 1.0
C      1  0.4724080000000  0.5569410000000  0.5129570000000 1.0
C      1  0.3944210000000  0.5048000000000  0.4753940000000 1.0
C      1  0.5572500000000  0.5895260000000  0.4753900000000 1.0
C      1  0.5492110000000  0.4061490000000  0.4753930000000 1.0
C      1  0.4798680000000  0.4502160000000  0.4240560000000 1.0
C      1  0.4672550000000  0.5428180000000  0.4240550000000 1.0
C      1  0.5537570000000  0.5074400000000  0.4240540000000 1.0
C      1  0.4382650000000  0.5122480000000  0.4871810000000 1.0
C      1  0.5417780000000  0.5478330000000  0.4871790000000 1.0
C      1  0.5208390000000  0.4403960000000  0.4871810000000 1.0
C      1  0.5181730000000  0.4748820000000  0.4649850000000 1.0
C      1  0.4694640000000  0.4973120000000  0.4649850000000 1.0
C      1  0.5132440000000  0.5282810000000  0.4649840000000 1.0
C      1  0.5435910000000  0.4609100000000  0.4219980000000 1.0
C      1  0.4446540000000  0.4822850000000  0.4219990000000 1.0
C      1  0.5126340000000  0.5572790000000  0.4219970000000 1.0
C      1  0.4356490000000  0.4864150000000  0.5283320000000 1.0
C      1  0.5207140000000  0.5630160000000  0.5283300000000 1.0
C      1  0.5445200000000  0.4510470000000  0.5283310000000 1.0
C      1  0.4096220000000  0.4818750000000  0.4613520000000 1.0
C      1  0.5297950000000  0.5878240000000  0.4613490000000 1.0
C      1  0.5614630000000  0.4307760000000  0.4613510000000 1.0
C      1  0.4717640000000  0.4943670000000  0.4127780000000 1.0
C      1  0.5095420000000  0.5277600000000  0.4127770000000 1.0
C      1  0.5195720000000  0.4783460000000  0.4127780000000 1.0
C      1  0.4726750000000  0.4474820000000  0.4819000000000 1.0
C      1  0.4684840000000  0.5504160000000  0.4818990000000 1.0
C      1  0.5597230000000  0.5025780000000  0.4818980000000 1.0
C      1  0.5616420000000  0.4391480000000  0.5070280000000 1.0
C      1  0.4167830000000  0.4775360000000  0.5070290000000 1.0
C      1  0.5224570000000  0.5837930000000  0.5070260000000 1.0
C      1  0.4728360000000  0.5883750000000  0.5127050000000 1.0
C      1  0.5904210000000  0.4798300000000  0.5127050000000 1.0
C      1  0.4376250000000  0.4322710000000  0.5127070000000 1.0
C      1  0.4401350000000  0.5662990000000  0.4810170000000 1.0
C      1  0.5876520000000  0.5191880000000  0.4810160000000 1.0
C      1  0.4730940000000  0.4149890000000  0.4810190000000 1.0
C      1  0.5648370000000  0.5248300000000  0.5274870000000 1.0
C      1  0.4893890000000  0.4319280000000  0.5274900000000 1.0
C      1  0.4466570000000  0.5437190000000  0.5274890000000 1.0
C      1  0.5390950000000  0.5397460000000  0.5147940000000 1.0
C      1  0.5151780000000  0.4467630000000  0.5147950000000 1.0
C      1  0.4466100000000  0.5139680000000  0.5147950000000 1.0
C      1  0.4840650000000  0.4968440000000  0.4403660000000 1.0
C      1  0.5055380000000  0.5158690000000  0.4403650000000 1.0
C      1  0.5112770000000  0.4877610000000  0.4403660000000 1.0
C      1  0.4326270000000  0.4826030000000  0.4808840000000 1.0
C      1  0.5189240000000  0.5675370000000  0.4808820000000 1.0
C      1  0.5493300000000  0.4503350000000  0.4808830000000 1.0
C      1  0.4562970000000  0.4678900000000  0.4662220000000 1.0
C      1  0.4943470000000  0.5543950000000  0.4662200000000 1.0
C      1  0.5502370000000  0.4781900000000  0.4662210000000 1.0
C      1  0.5304910000000  0.4044110000000  0.5228910000000 1.0
C      1  0.4022760000000  0.5218820000000  0.5228910000000 1.0
C      1  0.5681160000000  0.5741840000000  0.5228880000000 1.0
C      1  0.5510010000000  0.4106980000000  0.5035900000000 1.0
C      1  0.3974650000000  0.5009760000000  0.5035910000000 1.0
C      1  0.5524160000000  0.5888030000000  0.5035880000000 1.0
C      1  0.4912180000000  0.4471280000000  0.5774270000000 1.0
C      1  0.4589070000000  0.5345370000000  0.5774260000000 1.0
C      1  0.5507610000000  0.5188150000000  0.5774250000000 1.0
C      1  0.4167050000000  0.4496900000000  0.4980160000000 1.0
C      1  0.4983820000000  0.5977830000000  0.4980130000000 1.0
C      1  0.5857960000000  0.4530030000000  0.4980140000000 1.0
C      1  0.4900610000000  0.4715410000000  0.4066770000000 1.0
C      1  0.4806260000000  0.5233270000000  0.4066760000000 1.0
C      1  0.5301910000000  0.5056050000000  0.4066760000000 1.0
C      1  0.5440910000000  0.5257460000000  0.4687140000000 1.0
C      1  0.5005550000000  0.4494350000000  0.4687150000000 1.0
C      1  0.4562360000000  0.5252940000000  0.4687150000000 1.0
C      1  0.4207670000000  0.5218660000000  0.4403530000000 1.0
C      1  0.5588560000000  0.5581760000000  0.4403510000000 1.0
C      1  0.5212570000000  0.4204320000000  0.4403530000000 1.0
C      1  0.4428410000000  0.5836730000000  0.5030410000000 1.0
C      1  0.6013460000000  0.5081580000000  0.5030400000000 1.0
C      1  0.4566950000000  0.4086460000000  0.5030440000000 1.0
C      1  0.5607080000000  0.5354900000000  0.5554970000000 1.0
C      1  0.5006850000000  0.4301750000000  0.5554990000000 1.0
C      1  0.4394910000000  0.5348130000000  0.5554990000000 1.0
C      1  0.4935420000000  0.5521570000000  0.5319390000000 1.0
C      1  0.5487020000000  0.4800090000000  0.5319400000000 1.0
C      1  0.4586400000000  0.4683120000000  0.5319410000000 1.0
C      1  0.5575190000000  0.4817280000000  0.4361730000000 1.0
C      1  0.4557200000000  0.4598140000000  0.4361750000000 1.0
C      1  0.4876410000000  0.5589310000000  0.4361730000000 1.0
C      1  0.5077270000000  0.4855420000000  0.4887290000000 1.0
C      1  0.4839190000000  0.5010300000000  0.4887300000000 1.0
C      1  0.5092360000000  0.5139040000000  0.4887290000000 1.0
C      1  0.4822030000000  0.5701790000000  0.5555610000000 1.0
C      1  0.5699790000000  0.4808170000000  0.5555610000000 1.0
C      1  0.4487010000000  0.4494820000000  0.5555630000000 1.0
C      1  0.5002950000000  0.5001590000000  0.5484080000000 1.0
END
