TITL C-199722-9334-8 -0.00730399393295349 125000 -43.4683436602526 0 0 7 (C2v) n - 1
REM
REM in /rds/project/t2_vol4/rds-t2-cs072/BORA/CARBON/from-Arr/AIRSS/Generating-Clusters/GAP-ML-2020/Higher-Symm/SD-CG/HFTN-CG
REM
REM
REM
REM
REM
REM ./C.cell (b20cbc046b6831c77cfcea5457e17084)
REM AIRSS Version 0.9.1 bugfix July 2018 build 013d7b7c2542+ Fri, 06 Jul 2018 19:26:36 +0100
REM compiler GCC version 9.3.0
REM options -cpp -mtune=generic -march=x86-64 -g -O0
REM seed 1375674808 660810422 -1499434330 1915912864 -1945348840 -1680335779 -1667190714 -289407416 -2103927233 -2021878661 -1512773996 -1194120638 1312100138 -651487094 1000357682 -517217641 -893482517 51055901 -1935293760 17294807 -1212819170 702252385 -1667153590 863178896 422542875 -980116866 1771611659 1127634937 1109516264 -478470582 -413947275 702283722 -1660674507
REM
CELL 1.54180   50.00000   50.00000   50.00000   90.00000   90.00000   90.00000
LATT -1
SFAC C  
C      1  0.4627360000000  0.5315880000000  0.5129110000000 1.0
C      1  0.5306690000000  0.4668160000000  0.5118980000000 1.0
C      1  0.4818320000000  0.5222530000000  0.4953490000000 1.0
C      1  0.5201650000000  0.4857050000000  0.4947770000000 1.0
C      1  0.4547810000000  0.5236000000000  0.4901880000000 1.0
C      1  0.5227140000000  0.4588280000000  0.4891750000000 1.0
C      1  0.5023700000000  0.5054330000000  0.4940720000000 1.0
END
