TITL C-199735-9915-13 -1.95576839563521 125000 -100.464146383235 0 0 16 (C1) n - 1
REM
REM in /rds/project/t2_vol4/rds-t2-cs072/BORA/CARBON/from-Arr/AIRSS/Generating-Clusters/GAP-ML-2020/Higher-Symm/SD-CG/HFTN-CG
REM
REM
REM
REM
REM
REM ./C.cell (b20cbc046b6831c77cfcea5457e17084)
REM AIRSS Version 0.9.1 bugfix July 2018 build 013d7b7c2542+ Fri, 06 Jul 2018 19:26:36 +0100
REM compiler GCC version 9.3.0
REM options -cpp -mtune=generic -march=x86-64 -g -O0
REM seed -1879363157 1017553849 -2102978057 -1190009613 606680569 1165204263 853536861 854774836 -2138229951 387379729 1465281688 655589182 -817175734 798438620 4681152 179108875 1168806169 345886118 -495625974 -512407363 1492967792 -262685939 -1887903946 -572387258 1999382895 474182676 -1261618620 -1940808052 -895307850 623480760 2017733661 -1714661042 -2086547857
REM
CELL 1.54180   50.00000   50.00000   50.00000   90.00000   90.00000   90.00000
LATT -1
SFAC C  
C      1  0.5344700000000  0.4408920000000  0.4695430000000 1.0
C      1  0.5787350000000  0.5172520000000  0.5025040000000 1.0
C      1  0.5027200000000  0.5707230000000  0.4882950000000 1.0
C      1  0.4401270000000  0.5309910000000  0.4792100000000 1.0
C      1  0.4467780000000  0.4405040000000  0.5022350000000 1.0
C      1  0.5215670000000  0.4758740000000  0.5066680000000 1.0
C      1  0.5281360000000  0.5045620000000  0.5039840000000 1.0
C      1  0.5047230000000  0.5205110000000  0.5011070000000 1.0
C      1  0.4794240000000  0.5075300000000  0.5027150000000 1.0
C      1  0.4785270000000  0.4808160000000  0.5140010000000 1.0
C      1  0.4598320000000  0.4609460000000  0.5086510000000 1.0
C      1  0.5277880000000  0.4558250000000  0.4885800000000 1.0
C      1  0.5538530000000  0.5131700000000  0.5028750000000 1.0
C      1  0.5053500000000  0.5467410000000  0.4944290000000 1.0
C      1  0.4575930000000  0.5199630000000  0.4931860000000 1.0
C      1  0.5025830000000  0.4741850000000  0.5272490000000 1.0
END
