TITL C-19916-9172-3 141.794726351708 125000 -544.94815623576 0 0 81 (C1) n - 1
REM
REM in /rds/project/t2_vol4/rds-t2-cs072/BORA/CARBON/from-Arr/AIRSS/Generating-Clusters/GAP-ML-2020/Higher-Symm/SD-CG/HFTN-CG
REM
REM
REM
REM
REM
REM ./C.cell (b20cbc046b6831c77cfcea5457e17084)
REM AIRSS Version 0.9.1 bugfix July 2018 build 013d7b7c2542+ Fri, 06 Jul 2018 19:26:36 +0100
REM compiler GCC version 9.3.0
REM options -cpp -mtune=generic -march=x86-64 -g -O0
REM seed 1448455350 1618574474 353477233 114810683 985784885 -220512037 68704318 1319073146 1863961854 2094232400 -258657514 -1169774744 1494293461 -1872787240 -1536395045 2101602605 -225567112 -1034763659 -740893897 -975118631 -1886120263 1306028258 -1659804298 -1333925431 -1995721691 -18158623 -1006632248 1915520980 1789114102 -1382389982 -1418665284 -478743221 -1912550628
REM
CELL 1.54180   50.00000   50.00000   50.00000   90.00000   90.00000   90.00000
LATT -1
SFAC C  
C      1  0.4292650000000  0.5125140000000  0.5259630000000 1.0
C      1  0.5743180000000  0.4864100000000  0.4792350000000 1.0
C      1  0.4663520000000  0.5319390000000  0.4400680000000 1.0
C      1  0.5292090000000  0.4695670000000  0.5616130000000 1.0
C      1  0.5340500000000  0.4897320000000  0.4646140000000 1.0
C      1  0.4683710000000  0.5135860000000  0.5400630000000 1.0
C      1  0.4631260000000  0.4619780000000  0.5146690000000 1.0
C      1  0.5394790000000  0.5485050000000  0.4746370000000 1.0
C      1  0.5151910000000  0.5082070000000  0.4809990000000 1.0
C      1  0.4906690000000  0.4987480000000  0.5242540000000 1.0
C      1  0.4499250000000  0.4837710000000  0.4363360000000 1.0
C      1  0.5499680000000  0.5151580000000  0.5657490000000 1.0
C      1  0.5866500000000  0.5180320000000  0.5348990000000 1.0
C      1  0.4152310000000  0.4790210000000  0.4707080000000 1.0
C      1  0.4450490000000  0.4949980000000  0.5431480000000 1.0
C      1  0.5603900000000  0.5065420000000  0.4633500000000 1.0
C      1  0.4544980000000  0.5476180000000  0.4634660000000 1.0
C      1  0.5424260000000  0.4523170000000  0.5408280000000 1.0
C      1  0.4902640000000  0.5188380000000  0.4303170000000 1.0
C      1  0.5031470000000  0.4804580000000  0.5670140000000 1.0
C      1  0.5595950000000  0.5334570000000  0.4626660000000 1.0
C      1  0.4527200000000  0.4684700000000  0.5424550000000 1.0
C      1  0.5582930000000  0.4771170000000  0.5331710000000 1.0
C      1  0.4422830000000  0.5211370000000  0.4712890000000 1.0
C      1  0.5300580000000  0.4389070000000  0.5178830000000 1.0
C      1  0.4684050000000  0.5625630000000  0.4859620000000 1.0
C      1  0.4758940000000  0.4718630000000  0.4390360000000 1.0
C      1  0.5246070000000  0.5256870000000  0.5589050000000 1.0
C      1  0.4882510000000  0.5545270000000  0.5574610000000 1.0
C      1  0.5156620000000  0.4481570000000  0.4432870000000 1.0
C      1  0.5170000000000  0.5553280000000  0.5625410000000 1.0
C      1  0.4873080000000  0.4433410000000  0.4356700000000 1.0
C      1  0.5131500000000  0.4632430000000  0.5103270000000 1.0
C      1  0.4886080000000  0.5398340000000  0.4892700000000 1.0
C      1  0.4287970000000  0.4531610000000  0.4695490000000 1.0
C      1  0.5739240000000  0.5443910000000  0.5333250000000 1.0
C      1  0.4895740000000  0.4337150000000  0.5569960000000 1.0
C      1  0.5013730000000  0.5684050000000  0.4332660000000 1.0
C      1  0.4176470000000  0.5055430000000  0.4823190000000 1.0
C      1  0.5843400000000  0.4910930000000  0.5242120000000 1.0
C      1  0.5480090000000  0.5555910000000  0.5251740000000 1.0
C      1  0.4545350000000  0.4398370000000  0.4727450000000 1.0
C      1  0.4090710000000  0.5098830000000  0.5082990000000 1.0
C      1  0.5933180000000  0.4863320000000  0.4981420000000 1.0
C      1  0.4767120000000  0.4628980000000  0.4712720000000 1.0
C      1  0.5256500000000  0.5321890000000  0.5252240000000 1.0
C      1  0.5488200000000  0.4711720000000  0.4848310000000 1.0
C      1  0.4536920000000  0.5296730000000  0.5182640000000 1.0
C      1  0.5044560000000  0.5405810000000  0.4401550000000 1.0
C      1  0.4826160000000  0.4615950000000  0.5553800000000 1.0
C      1  0.4627310000000  0.4355540000000  0.5017180000000 1.0
C      1  0.5388830000000  0.5650760000000  0.4976760000000 1.0
C      1  0.5122280000000  0.5353530000000  0.4690470000000 1.0
C      1  0.4903890000000  0.4702650000000  0.5273340000000 1.0
C      1  0.5375820000000  0.4831430000000  0.5104550000000 1.0
C      1  0.4655040000000  0.5190760000000  0.4919780000000 1.0
C      1  0.5021740000000  0.5092970000000  0.5678880000000 1.0
C      1  0.4965760000000  0.4908360000000  0.4330060000000 1.0
C      1  0.4284410000000  0.4707490000000  0.4483310000000 1.0
C      1  0.5724240000000  0.5285910000000  0.5561790000000 1.0
C      1  0.4670110000000  0.4806920000000  0.4908350000000 1.0
C      1  0.5307310000000  0.5107670000000  0.5061520000000 1.0
C      1  0.5505700000000  0.4879320000000  0.5599060000000 1.0
C      1  0.4484680000000  0.5104460000000  0.4443750000000 1.0
C      1  0.4593740000000  0.5584970000000  0.5147390000000 1.0
C      1  0.5426270000000  0.4421390000000  0.4880360000000 1.0
C      1  0.5223520000000  0.4379890000000  0.4690420000000 1.0
C      1  0.4819430000000  0.5625800000000  0.5311790000000 1.0
C      1  0.4981920000000  0.4103030000000  0.5477920000000 1.0
C      1  0.4979520000000  0.5824950000000  0.4547410000000 1.0
C      1  0.5003350000000  0.4491840000000  0.4852780000000 1.0
C      1  0.5019440000000  0.5485930000000  0.5144730000000 1.0
C      1  0.4918790000000  0.5796930000000  0.4812860000000 1.0
C      1  0.5068750000000  0.4210500000000  0.5227030000000 1.0
C      1  0.5119400000000  0.5731460000000  0.5013170000000 1.0
C      1  0.4891870000000  0.4269430000000  0.5016340000000 1.0
C      1  0.4687260000000  0.4277930000000  0.4495950000000 1.0
C      1  0.5354670000000  0.5691180000000  0.5487500000000 1.0
C      1  0.5200580000000  0.4769320000000  0.4419200000000 1.0
C      1  0.4806150000000  0.5271150000000  0.5621890000000 1.0
C      1  0.4874760000000  0.5007990000000  0.4947020000000 1.0
END
