TITL C-19521-9393-6 -153.141654335884 125000 -96.5833209415396 0 0 15 (C2) n - 1
REM
REM in /rds/project/t2_vol4/rds-t2-cs072/BORA/CARBON/from-Arr/AIRSS/Generating-Clusters/GAP-ML-2020/Higher-Symm/SD-CG/HFTN-CG
REM
REM
REM
REM
REM
REM ./C.cell (b20cbc046b6831c77cfcea5457e17084)
REM AIRSS Version 0.9.1 bugfix July 2018 build 013d7b7c2542+ Fri, 06 Jul 2018 19:26:36 +0100
REM compiler GCC version 9.3.0
REM options -cpp -mtune=generic -march=x86-64 -g -O0
REM seed -656097686 -1053637629 -1965849828 -24433305 -1217098230 1445468980 -495436656 2061208505 1095007453 959834697 783008356 19803663 -84870332 -2087914530 -958856686 -1432249774 1997577480 -1038482658 534437936 56544622 -1867743532 2043266927 789279994 -1824239499 1846722478 -1612615847 1355727647 -288431468 -637980275 649029833 1697962782 1099503375 -487104451
REM
CELL 1.54180   50.00000   50.00000   50.00000   90.00000   90.00000   90.00000
LATT -1
SFAC C  
C      1  0.5124390000000  0.4596980000000  0.5097660000000 1.0
C      1  0.5074750000000  0.4787060000000  0.4609940000000 1.0
C      1  0.4896080000000  0.5286360000000  0.4583500000000 1.0
C      1  0.5077080000000  0.5533260000000  0.5323510000000 1.0
C      1  0.4816960000000  0.4822760000000  0.5503380000000 1.0
C      1  0.5003480000000  0.5437520000000  0.5077460000000 1.0
C      1  0.5180550000000  0.5303740000000  0.4595100000000 1.0
C      1  0.5001890000000  0.4523100000000  0.4598040000000 1.0
C      1  0.5264890000000  0.4580180000000  0.5327700000000 1.0
C      1  0.4956440000000  0.5035830000000  0.5413470000000 1.0
C      1  0.5016550000000  0.5416100000000  0.4809980000000 1.0
C      1  0.5040720000000  0.4747080000000  0.5352050000000 1.0
C      1  0.5121530000000  0.4587980000000  0.4827530000000 1.0
C      1  0.5060640000000  0.5047340000000  0.4544920000000 1.0
C      1  0.4958200000000  0.5294710000000  0.5335760000000 1.0
END
