TITL C-199719-9389-4 -0.0488044880715711 125000 -645.108033186262 0 0 94 (C1) n - 1
REM
REM in /rds/project/t2_vol4/rds-t2-cs072/BORA/CARBON/from-Arr/AIRSS/Generating-Clusters/GAP-ML-2020/Higher-Symm/SD-CG/HFTN-CG
REM
REM
REM
REM
REM
REM ./C.cell (b20cbc046b6831c77cfcea5457e17084)
REM AIRSS Version 0.9.1 bugfix July 2018 build 013d7b7c2542+ Fri, 06 Jul 2018 19:26:36 +0100
REM compiler GCC version 9.3.0
REM options -cpp -mtune=generic -march=x86-64 -g -O0
REM seed -375958445 354662167 -528039639 1063677386 501590763 934057037 965542203 357114665 -2104578915 621996980 88127974 -401818961 1522703367 -825334527 378842686 -1913192497 131728426 -1950970951 -1095009513 1601792739 -75501350 839817074 -813846206 -749321262 1868934399 -2018999567 1073558254 185814116 -1538686302 -507516944 -705140473 1172459749 442152809
REM
CELL 1.54180   50.00000   50.00000   50.00000   90.00000   90.00000   90.00000
LATT -1
SFAC C  
C      1  0.5394240000000  0.4812050000000  0.4761870000000 1.0
C      1  0.5394880000000  0.5194870000000  0.4853890000000 1.0
C      1  0.5381430000000  0.5306630000000  0.5134100000000 1.0
C      1  0.5387690000000  0.5018010000000  0.5241190000000 1.0
C      1  0.5391050000000  0.4694400000000  0.5039260000000 1.0
C      1  0.4904800000000  0.5389630000000  0.5670350000000 1.0
C      1  0.4963720000000  0.4427270000000  0.5650090000000 1.0
C      1  0.4897230000000  0.4268560000000  0.4666460000000 1.0
C      1  0.4894290000000  0.5097160000000  0.4170970000000 1.0
C      1  0.4910010000000  0.5787990000000  0.4819490000000 1.0
C      1  0.4943360000000  0.4429640000000  0.5146900000000 1.0
C      1  0.4934330000000  0.4749180000000  0.4519850000000 1.0
C      1  0.4953900000000  0.5327340000000  0.4600790000000 1.0
C      1  0.4947870000000  0.5626230000000  0.5244030000000 1.0
C      1  0.4968800000000  0.4892600000000  0.5526860000000 1.0
C      1  0.5351550000000  0.5803780000000  0.5072690000000 1.0
C      1  0.5327960000000  0.5160840000000  0.5730010000000 1.0
C      1  0.5361090000000  0.4313370000000  0.5385510000000 1.0
C      1  0.5308470000000  0.4420000000000  0.4466820000000 1.0
C      1  0.5329740000000  0.5305600000000  0.4291950000000 1.0
C      1  0.5337020000000  0.5598170000000  0.5523950000000 1.0
C      1  0.5378720000000  0.4679790000000  0.5703180000000 1.0
C      1  0.5316630000000  0.4213590000000  0.4910540000000 1.0
C      1  0.5321120000000  0.4835760000000  0.4232040000000 1.0
C      1  0.5327150000000  0.5656270000000  0.4614700000000 1.0
C      1  0.5460040000000  0.4630420000000  0.4357250000000 1.0
C      1  0.5468730000000  0.5464940000000  0.4470480000000 1.0
C      1  0.5480890000000  0.5683600000000  0.5292860000000 1.0
C      1  0.5490460000000  0.4932180000000  0.5691490000000 1.0
C      1  0.5478080000000  0.4274710000000  0.5135980000000 1.0
C      1  0.5628200000000  0.4745750000000  0.4577360000000 1.0
C      1  0.5620200000000  0.5298530000000  0.4664900000000 1.0
C      1  0.5643170000000  0.5451910000000  0.5192520000000 1.0
C      1  0.5627030000000  0.4963530000000  0.5431990000000 1.0
C      1  0.5639110000000  0.4518360000000  0.5075720000000 1.0
C      1  0.4707840000000  0.4801120000000  0.5402450000000 1.0
C      1  0.4664520000000  0.4526510000000  0.5233370000000 1.0
C      1  0.4689160000000  0.4899280000000  0.4620660000000 1.0
C      1  0.4691740000000  0.5197900000000  0.4697720000000 1.0
C      1  0.4688490000000  0.5511950000000  0.5137880000000 1.0
C      1  0.4418800000000  0.4366450000000  0.4812480000000 1.0
C      1  0.4427740000000  0.4954390000000  0.4325080000000 1.0
C      1  0.4435700000000  0.5595390000000  0.4743420000000 1.0
C      1  0.4386720000000  0.5408660000000  0.5502330000000 1.0
C      1  0.4470730000000  0.4618040000000  0.5656200000000 1.0
C      1  0.5686000000000  0.4663410000000  0.5344310000000 1.0
C      1  0.5666440000000  0.4518080000000  0.4772740000000 1.0
C      1  0.5669970000000  0.5040510000000  0.4498260000000 1.0
C      1  0.5687250000000  0.5497520000000  0.4893220000000 1.0
C      1  0.5683780000000  0.5267090000000  0.5423920000000 1.0
C      1  0.4243390000000  0.4885630000000  0.4784980000000 1.0
C      1  0.4236160000000  0.5166780000000  0.4817540000000 1.0
C      1  0.4190640000000  0.5269330000000  0.5077370000000 1.0
C      1  0.4315240000000  0.4918030000000  0.5250910000000 1.0
C      1  0.4272880000000  0.4747390000000  0.5035390000000 1.0
C      1  0.5088690000000  0.4840560000000  0.4760370000000 1.0
C      1  0.5104130000000  0.5135490000000  0.4799120000000 1.0
C      1  0.5110740000000  0.5384340000000  0.5170570000000 1.0
C      1  0.5083150000000  0.4930490000000  0.5243530000000 1.0
C      1  0.5082880000000  0.4701490000000  0.5052460000000 1.0
C      1  0.4618280000000  0.5371300000000  0.5674740000000 1.0
C      1  0.4687790000000  0.4432720000000  0.5697530000000 1.0
C      1  0.4617830000000  0.4287870000000  0.4634900000000 1.0
C      1  0.4616350000000  0.5113550000000  0.4196840000000 1.0
C      1  0.4628760000000  0.5764010000000  0.4827060000000 1.0
C      1  0.5484800000000  0.5067380000000  0.4278250000000 1.0
C      1  0.5487230000000  0.5707420000000  0.4843960000000 1.0
C      1  0.5477760000000  0.5368400000000  0.5611480000000 1.0
C      1  0.5522290000000  0.4510870000000  0.5522620000000 1.0
C      1  0.5462540000000  0.4322010000000  0.4688560000000 1.0
C      1  0.5065040000000  0.5817000000000  0.5063670000000 1.0
C      1  0.5045460000000  0.5144580000000  0.5691690000000 1.0
C      1  0.5077890000000  0.4341720000000  0.5402560000000 1.0
C      1  0.5026730000000  0.4451590000000  0.4494870000000 1.0
C      1  0.5047770000000  0.5276490000000  0.4321410000000 1.0
C      1  0.4408380000000  0.5230600000000  0.4346410000000 1.0
C      1  0.4450410000000  0.5649500000000  0.5043830000000 1.0
C      1  0.4443680000000  0.5163160000000  0.5618180000000 1.0
C      1  0.4525650000000  0.4400710000000  0.5479840000000 1.0
C      1  0.4437920000000  0.4491220000000  0.4565270000000 1.0
C      1  0.5049740000000  0.5586760000000  0.5515440000000 1.0
C      1  0.5097950000000  0.4671370000000  0.5683890000000 1.0
C      1  0.5030340000000  0.4242850000000  0.4921320000000 1.0
C      1  0.5039620000000  0.4871080000000  0.4266120000000 1.0
C      1  0.5044890000000  0.5616550000000  0.4642460000000 1.0
C      1  0.4414420000000  0.5321300000000  0.4634520000000 1.0
C      1  0.4298620000000  0.5482110000000  0.5228080000000 1.0
C      1  0.4445440000000  0.4880580000000  0.5506430000000 1.0
C      1  0.4440920000000  0.4527130000000  0.5044600000000 1.0
C      1  0.4420950000000  0.4788440000000  0.4571850000000 1.0
C      1  0.4692470000000  0.5240030000000  0.5007640000000 1.0
C      1  0.4970530000000  0.5160050000000  0.5077910000000 1.0
C      1  0.4437130000000  0.5130920000000  0.5106610000000 1.0
C      1  0.5498370000000  0.4961480000000  0.4982820000000 1.0
END
