TITL C-19930-5-6 -0.134981409938485 125000 -638.872194857083 0 0 90 (C5) n - 1
REM
REM in /rds/project/t2_vol4/rds-t2-cs072/BORA/CARBON/from-Arr/AIRSS/Generating-Clusters/GAP-ML-2020/Higher-Symm/SD-CG/HFTN-CG
REM
REM
REM
REM
REM
REM ./C.cell (b20cbc046b6831c77cfcea5457e17084)
REM AIRSS Version 0.9.1 bugfix July 2018 build 013d7b7c2542+ Fri, 06 Jul 2018 19:26:36 +0100
REM compiler GCC version 9.3.0
REM options -cpp -mtune=generic -march=x86-64 -g -O0
REM seed -690647766 1571332890 -122572880 -20291220 2020012947 -604182082 -1952732497 1148877575 -101347544 -1442174818 2089791552 -572382693 592393631 2016043968 -2068996416 2081269814 -711778822 902527311 -1566649027 1919424067 -247163694 -1331585408 -1767403306 -1404362672 -1098109689 -584609659 1274262592 -1107064554 -40684051 -1561304537 1604575959 -1792207663 -270067447
REM
CELL 1.54180   50.00000   50.00000   50.00000   90.00000   90.00000   90.00000
LATT -1
SFAC C  
C      1  0.5618260000000  0.5132720000000  0.5551960000000 1.0
C      1  0.5317090000000  0.4452870000000  0.5551930000000 1.0
C      1  0.4577450000000  0.4529220000000  0.5551670000000 1.0
C      1  0.4421500000000  0.5256250000000  0.5551540000000 1.0
C      1  0.5064760000000  0.5629230000000  0.5551720000000 1.0
C      1  0.4545770000000  0.5626720000000  0.5290560000000 1.0
C      1  0.5455590000000  0.5625590000000  0.5290870000000 1.0
C      1  0.5735660000000  0.4759960000000  0.5291060000000 1.0
C      1  0.4998940000000  0.4226100000000  0.5290870000000 1.0
C      1  0.4263550000000  0.4761790000000  0.5290560000000 1.0
C      1  0.4329180000000  0.5373620000000  0.4874240000000 1.0
C      1  0.5148080000000  0.5753470000000  0.4874470000000 1.0
C      1  0.5762400000000  0.5092030000000  0.4874750000000 1.0
C      1  0.5323160000000  0.4303390000000  0.4874690000000 1.0
C      1  0.4437380000000  0.4477420000000  0.4874370000000 1.0
C      1  0.4823420000000  0.5358880000000  0.4928250000000 1.0
C      1  0.5286780000000  0.5278860000000  0.4928410000000 1.0
C      1  0.5353850000000  0.4813450000000  0.4928490000000 1.0
C      1  0.4931950000000  0.4605840000000  0.4928370000000 1.0
C      1  0.4604120000000  0.4942940000000  0.4928220000000 1.0
C      1  0.4997760000000  0.4472610000000  0.4492290000000 1.0
C      1  0.4497900000000  0.4839290000000  0.4492090000000 1.0
C      1  0.4692170000000  0.5427980000000  0.4492090000000 1.0
C      1  0.5312080000000  0.5425150000000  0.4492300000000 1.0
C      1  0.5500950000000  0.4834700000000  0.4492430000000 1.0
C      1  0.4760240000000  0.4973950000000  0.5162250000000 1.0
C      1  0.4901080000000  0.5219930000000  0.5162270000000 1.0
C      1  0.5178550000000  0.5162000000000  0.5162370000000 1.0
C      1  0.5209190000000  0.4880210000000  0.5162410000000 1.0
C      1  0.4950660000000  0.4763990000000  0.5162340000000 1.0
C      1  0.5012760000000  0.5774830000000  0.5313120000000 1.0
C      1  0.5740750000000  0.5227220000000  0.5313420000000 1.0
C      1  0.5444900000000  0.4365640000000  0.5313410000000 1.0
C      1  0.4534070000000  0.4380770000000  0.5313100000000 1.0
C      1  0.4266990000000  0.5251700000000  0.5312920000000 1.0
C      1  0.4839780000000  0.4525690000000  0.5663470000000 1.0
C      1  0.4499170000000  0.5005640000000  0.5663300000000 1.0
C      1  0.4850380000000  0.5477900000000  0.5663370000000 1.0
C      1  0.5408050000000  0.5289810000000  0.5663580000000 1.0
C      1  0.5401500000000  0.4701320000000  0.5663640000000 1.0
C      1  0.5803170000000  0.5000390000000  0.5143480000000 1.0
C      1  0.5248520000000  0.4236220000000  0.5143380000000 1.0
C      1  0.4350350000000  0.4527590000000  0.5143040000000 1.0
C      1  0.4349910000000  0.5471830000000  0.5142940000000 1.0
C      1  0.5247800000000  0.5764040000000  0.5143210000000 1.0
C      1  0.4317220000000  0.5065520000000  0.4895040000000 1.0
C      1  0.4851360000000  0.5669630000000  0.4895160000000 1.0
C      1  0.5590960000000  0.5348320000000  0.4895440000000 1.0
C      1  0.5513930000000  0.4545630000000  0.4895500000000 1.0
C      1  0.4726710000000  0.4370850000000  0.4895250000000 1.0
C      1  0.4750560000000  0.4940630000000  0.4668580000000 1.0
C      1  0.4866570000000  0.5218960000000  0.4668580000000 1.0
C      1  0.5167120000000  0.5194650000000  0.4668690000000 1.0
C      1  0.5236880000000  0.4901290000000  0.4668740000000 1.0
C      1  0.4979430000000  0.4744290000000  0.4668670000000 1.0
C      1  0.5154040000000  0.5664560000000  0.4599120000000 1.0
C      1  0.5679770000000  0.5058960000000  0.4599360000000 1.0
C      1  0.5266260000000  0.4371820000000  0.4599290000000 1.0
C      1  0.4484980000000  0.4552750000000  0.4599010000000 1.0
C      1  0.4415620000000  0.5351710000000  0.4598900000000 1.0
C      1  0.4767010000000  0.5760140000000  0.5169150000000 1.0
C      1  0.5650880000000  0.5456440000000  0.5169490000000 1.0
C      1  0.5635170000000  0.4521980000000  0.5169580000000 1.0
C      1  0.4741600000000  0.4248160000000  0.5169310000000 1.0
C      1  0.4205050000000  0.5013380000000  0.5169040000000 1.0
C      1  0.5508880000000  0.4547210000000  0.4591920000000 1.0
C      1  0.4726760000000  0.4376210000000  0.4591670000000 1.0
C      1  0.4322440000000  0.5067210000000  0.4591460000000 1.0
C      1  0.4854680000000  0.5665270000000  0.4591580000000 1.0
C      1  0.5587940000000  0.5343890000000  0.4591860000000 1.0
C      1  0.5043980000000  0.4363180000000  0.5542390000000 1.0
C      1  0.4407760000000  0.4761250000000  0.5542130000000 1.0
C      1  0.4589740000000  0.5489340000000  0.5542120000000 1.0
C      1  0.5338430000000  0.5541260000000  0.5542370000000 1.0
C      1  0.5619170000000  0.4845260000000  0.5542530000000 1.0
C      1  0.5244990000000  0.5350420000000  0.4208120000000 1.0
C      1  0.5409240000000  0.4875480000000  0.4208220000000 1.0
C      1  0.5008300000000  0.4572500000000  0.4208120000000 1.0
C      1  0.4596260000000  0.4860200000000  0.4207950000000 1.0
C      1  0.4742540000000  0.5340970000000  0.4207950000000 1.0
C      1  0.5253360000000  0.4663150000000  0.4126090000000 1.0
C      1  0.4758220000000  0.4655160000000  0.4125920000000 1.0
C      1  0.4597620000000  0.5123610000000  0.4125820000000 1.0
C      1  0.4993510000000  0.5421100000000  0.4125920000000 1.0
C      1  0.5398780000000  0.5136520000000  0.4126090000000 1.0
C      1  0.4924690000000  0.4768980000000  0.5779730000000 1.0
C      1  0.4756750000000  0.5000040000000  0.5779650000000 1.0
C      1  0.4924610000000  0.5231160000000  0.5779680000000 1.0
C      1  0.5196280000000  0.5142940000000  0.5779780000000 1.0
C      1  0.5196340000000  0.4857300000000  0.5779810000000 1.0
END
