TITL C-19930-9392-8 -0.24502932296659 125000 -607.829829433627 0 0 89 (C1) n - 1
REM
REM in /rds/project/t2_vol4/rds-t2-cs072/BORA/CARBON/from-Arr/AIRSS/Generating-Clusters/GAP-ML-2020/Higher-Symm/SD-CG/HFTN-CG
REM
REM
REM
REM
REM
REM ./C.cell (b20cbc046b6831c77cfcea5457e17084)
REM AIRSS Version 0.9.1 bugfix July 2018 build 013d7b7c2542+ Fri, 06 Jul 2018 19:26:36 +0100
REM compiler GCC version 9.3.0
REM options -cpp -mtune=generic -march=x86-64 -g -O0
REM seed 358956492 86153095 -802410553 -53797724 1844157832 1868112113 -1351887855 994056639 -1824841093 2016556450 291567921 -557271826 137242303 -648433966 -1565142527 -1204173203 -1083407693 -625575813 -27122058 -1778011010 -1091054360 -1202357391 26531933 -1756204029 1428557771 302347993 -981997198 -1248679125 452542433 1522805291 1274331197 -366031982 -2125069559
REM
CELL 1.54180   50.00000   50.00000   50.00000   90.00000   90.00000   90.00000
LATT -1
SFAC C  
C      1  0.5275680000000  0.4528330000000  0.4311340000000 1.0
C      1  0.4505850000000  0.4732770000000  0.4304940000000 1.0
C      1  0.4717820000000  0.5489360000000  0.4299950000000 1.0
C      1  0.5485720000000  0.5283870000000  0.4304270000000 1.0
C      1  0.4718410000000  0.4529140000000  0.4314210000000 1.0
C      1  0.5488880000000  0.4731150000000  0.4299760000000 1.0
C      1  0.5274150000000  0.5489040000000  0.4306370000000 1.0
C      1  0.4507890000000  0.5285770000000  0.4298010000000 1.0
C      1  0.5494860000000  0.4323860000000  0.5207220000000 1.0
C      1  0.4289910000000  0.4511730000000  0.5196960000000 1.0
C      1  0.4523150000000  0.5685570000000  0.5209750000000 1.0
C      1  0.5692940000000  0.5495540000000  0.5199830000000 1.0
C      1  0.4501560000000  0.4321530000000  0.5202760000000 1.0
C      1  0.5707420000000  0.4515490000000  0.5201350000000 1.0
C      1  0.5471770000000  0.5673320000000  0.5196660000000 1.0
C      1  0.4294460000000  0.5499570000000  0.5210850000000 1.0
C      1  0.5781440000000  0.5419430000000  0.4945120000000 1.0
C      1  0.5415750000000  0.4267630000000  0.4951330000000 1.0
C      1  0.4216170000000  0.4588290000000  0.4941210000000 1.0
C      1  0.4522700000000  0.5688660000000  0.4920910000000 1.0
C      1  0.4298740000000  0.5495880000000  0.4915030000000 1.0
C      1  0.4594670000000  0.4247140000000  0.4955170000000 1.0
C      1  0.5759300000000  0.4579810000000  0.4938100000000 1.0
C      1  0.5401200000000  0.5765520000000  0.4947760000000 1.0
C      1  0.4377470000000  0.5277230000000  0.5362340000000 1.0
C      1  0.5253270000000  0.5588670000000  0.5362290000000 1.0
C      1  0.5649020000000  0.4732740000000  0.5380370000000 1.0
C      1  0.4710900000000  0.4408740000000  0.5374000000000 1.0
C      1  0.5616020000000  0.5282140000000  0.5371300000000 1.0
C      1  0.4745050000000  0.5590350000000  0.5357710000000 1.0
C      1  0.4345390000000  0.4726480000000  0.5382710000000 1.0
C      1  0.5282650000000  0.4413800000000  0.5372870000000 1.0
C      1  0.5355250000000  0.4861400000000  0.5785660000000 1.0
C      1  0.4859930000000  0.4650020000000  0.5784020000000 1.0
C      1  0.4640910000000  0.5137530000000  0.5781140000000 1.0
C      1  0.5136490000000  0.5341870000000  0.5780360000000 1.0
C      1  0.4642380000000  0.4858720000000  0.5782750000000 1.0
C      1  0.5140050000000  0.4650930000000  0.5787600000000 1.0
C      1  0.5354980000000  0.5140400000000  0.5780870000000 1.0
C      1  0.4858270000000  0.5341310000000  0.5782090000000 1.0
C      1  0.4609000000000  0.5143390000000  0.5220770000000 1.0
C      1  0.5145450000000  0.5333340000000  0.5227320000000 1.0
C      1  0.5425850000000  0.4859980000000  0.5224490000000 1.0
C      1  0.4785540000000  0.4664850000000  0.5239060000000 1.0
C      1  0.5387090000000  0.5148210000000  0.5225330000000 1.0
C      1  0.4852770000000  0.5329700000000  0.5225470000000 1.0
C      1  0.4565660000000  0.4854550000000  0.5225240000000 1.0
C      1  0.5205170000000  0.4671380000000  0.5237800000000 1.0
C      1  0.4748870000000  0.5602500000000  0.4777020000000 1.0
C      1  0.5642900000000  0.5268260000000  0.4774180000000 1.0
C      1  0.5246360000000  0.4395350000000  0.4792330000000 1.0
C      1  0.4349880000000  0.4744740000000  0.4769110000000 1.0
C      1  0.5246920000000  0.5628630000000  0.4780630000000 1.0
C      1  0.4379310000000  0.5265850000000  0.4769320000000 1.0
C      1  0.4747460000000  0.4388220000000  0.4791820000000 1.0
C      1  0.5634870000000  0.4740230000000  0.4764510000000 1.0
C      1  0.5134900000000  0.5350680000000  0.4087810000000 1.0
C      1  0.5346520000000  0.4869090000000  0.4084780000000 1.0
C      1  0.4858570000000  0.4663760000000  0.4093840000000 1.0
C      1  0.4646510000000  0.5144550000000  0.4081180000000 1.0
C      1  0.4859430000000  0.5351310000000  0.4083230000000 1.0
C      1  0.4646560000000  0.4869110000000  0.4086660000000 1.0
C      1  0.5133840000000  0.4663430000000  0.4092390000000 1.0
C      1  0.5346760000000  0.5144800000000  0.4085950000000 1.0
C      1  0.4623670000000  0.5147780000000  0.4901520000000 1.0
C      1  0.5152860000000  0.5351700000000  0.4897940000000 1.0
C      1  0.5377350000000  0.4861280000000  0.4890470000000 1.0
C      1  0.4843810000000  0.4659370000000  0.4920070000000 1.0
C      1  0.5379190000000  0.5157500000000  0.4899850000000 1.0
C      1  0.4854410000000  0.5344560000000  0.4900940000000 1.0
C      1  0.4612070000000  0.4853240000000  0.4894360000000 1.0
C      1  0.5145530000000  0.4665860000000  0.4919720000000 1.0
C      1  0.4355840000000  0.4864460000000  0.4502140000000 1.0
C      1  0.4850040000000  0.5618130000000  0.4511480000000 1.0
C      1  0.5636110000000  0.5154320000000  0.4502810000000 1.0
C      1  0.5142320000000  0.4398330000000  0.4521290000000 1.0
C      1  0.5639420000000  0.4860220000000  0.4497760000000 1.0
C      1  0.5139560000000  0.5626110000000  0.4510860000000 1.0
C      1  0.4366790000000  0.5157920000000  0.4505090000000 1.0
C      1  0.4853230000000  0.4396430000000  0.4521250000000 1.0
C      1  0.4671610000000  0.4471000000000  0.5644230000000 1.0
C      1  0.4471290000000  0.5322950000000  0.5626240000000 1.0
C      1  0.5309850000000  0.5525120000000  0.5628900000000 1.0
C      1  0.5535950000000  0.4683840000000  0.5638630000000 1.0
C      1  0.5327000000000  0.4475680000000  0.5642740000000 1.0
C      1  0.5528230000000  0.5328880000000  0.5632810000000 1.0
C      1  0.4685960000000  0.5520790000000  0.5625890000000 1.0
C      1  0.4461240000000  0.4678730000000  0.5640460000000 1.0
C      1  0.4994520000000  0.4782310000000  0.5379510000000 1.0
END
