TITL C-19938-9977-5 -0.00695700716758333 125000 -509.576202637601 0 0 74 (C1) n - 1
REM
REM in /rds/project/t2_vol4/rds-t2-cs072/BORA/CARBON/from-Arr/AIRSS/Generating-Clusters/GAP-ML-2020/Higher-Symm/SD-CG/HFTN-CG
REM
REM
REM
REM
REM
REM ./C.cell (b20cbc046b6831c77cfcea5457e17084)
REM AIRSS Version 0.9.1 bugfix July 2018 build 013d7b7c2542+ Fri, 06 Jul 2018 19:26:36 +0100
REM compiler GCC version 9.3.0
REM options -cpp -mtune=generic -march=x86-64 -g -O0
REM seed -1579878624 2139932928 506036442 -834000002 -1315195322 -1706049331 -650371 757489819 966901667 -54274998 82269025 907897578 -1354850500 47194270 -953023083 1605285534 2110800781 70850750 -810699427 -908435031 -400755339 893604853 -1992935045 641715067 809376535 1398210521 -711060752 -871192349 1628899110 -164356282 1280997463 -50558440 -863490648
REM
CELL 1.54180   50.00000   50.00000   50.00000   90.00000   90.00000   90.00000
LATT -1
SFAC C  
C      1  0.5393350000000  0.5132470000000  0.4893550000000 1.0
C      1  0.4360600000000  0.5213460000000  0.4698190000000 1.0
C      1  0.4962720000000  0.4590670000000  0.5679450000000 1.0
C      1  0.4776670000000  0.5595240000000  0.4590390000000 1.0
C      1  0.5471260000000  0.5076400000000  0.5534560000000 1.0
C      1  0.5180490000000  0.4704480000000  0.4731530000000 1.0
C      1  0.4681400000000  0.4991670000000  0.4387880000000 1.0
C      1  0.4674530000000  0.4758600000000  0.4544030000000 1.0
C      1  0.5245650000000  0.4474550000000  0.5265230000000 1.0
C      1  0.4932800000000  0.4234620000000  0.5035840000000 1.0
C      1  0.5282440000000  0.5259560000000  0.5670200000000 1.0
C      1  0.5572030000000  0.4499420000000  0.4719440000000 1.0
C      1  0.5403040000000  0.4804660000000  0.5492270000000 1.0
C      1  0.4971120000000  0.4943380000000  0.5084800000000 1.0
C      1  0.4814200000000  0.4688010000000  0.5021050000000 1.0
C      1  0.5141900000000  0.5609180000000  0.5261450000000 1.0
C      1  0.4697420000000  0.5231300000000  0.5653020000000 1.0
C      1  0.5304690000000  0.4404900000000  0.4763300000000 1.0
C      1  0.4500670000000  0.5212410000000  0.4453400000000 1.0
C      1  0.5229940000000  0.4591570000000  0.5560880000000 1.0
C      1  0.5214730000000  0.4285740000000  0.5020280000000 1.0
C      1  0.4700750000000  0.4236120000000  0.4878490000000 1.0
C      1  0.4485870000000  0.4427170000000  0.4946610000000 1.0
C      1  0.5417380000000  0.5734120000000  0.4894560000000 1.0
C      1  0.4563810000000  0.4610550000000  0.5428080000000 1.0
C      1  0.5108700000000  0.4283660000000  0.4554240000000 1.0
C      1  0.4320800000000  0.4480330000000  0.4740270000000 1.0
C      1  0.5422950000000  0.5260020000000  0.4389330000000 1.0
C      1  0.4892470000000  0.5182760000000  0.4331630000000 1.0
C      1  0.5421220000000  0.4718370000000  0.5200560000000 1.0
C      1  0.4990540000000  0.5815240000000  0.5082430000000 1.0
C      1  0.4483860000000  0.5078060000000  0.5537930000000 1.0
C      1  0.4526110000000  0.4660700000000  0.5140960000000 1.0
C      1  0.4335710000000  0.4955020000000  0.4814870000000 1.0
C      1  0.4591350000000  0.5653030000000  0.4800370000000 1.0
C      1  0.5122130000000  0.5140820000000  0.5863000000000 1.0
C      1  0.5636410000000  0.5158220000000  0.5311630000000 1.0
C      1  0.4956430000000  0.4971870000000  0.5369430000000 1.0
C      1  0.4551770000000  0.4815200000000  0.5617130000000 1.0
C      1  0.5522070000000  0.5002290000000  0.4460990000000 1.0
C      1  0.4883550000000  0.5403210000000  0.5179280000000 1.0
C      1  0.5574360000000  0.5667650000000  0.4675200000000 1.0
C      1  0.5403040000000  0.5573480000000  0.5123730000000 1.0
C      1  0.5607710000000  0.4991490000000  0.4724270000000 1.0
C      1  0.5120890000000  0.5441120000000  0.5514280000000 1.0
C      1  0.5131870000000  0.4430740000000  0.4327550000000 1.0
C      1  0.4630710000000  0.5563920000000  0.5219640000000 1.0
C      1  0.4883040000000  0.4637470000000  0.4725910000000 1.0
C      1  0.4410610000000  0.5390120000000  0.5149880000000 1.0
C      1  0.4699750000000  0.5771120000000  0.5042800000000 1.0
C      1  0.4417640000000  0.4721790000000  0.4663350000000 1.0
C      1  0.5136560000000  0.5275590000000  0.4751910000000 1.0
C      1  0.5513580000000  0.5305620000000  0.5101290000000 1.0
C      1  0.4808050000000  0.4475720000000  0.5472280000000 1.0
C      1  0.4925850000000  0.5198620000000  0.4949200000000 1.0
C      1  0.5678940000000  0.4729490000000  0.4815410000000 1.0
C      1  0.5144800000000  0.5150650000000  0.4470490000000 1.0
C      1  0.4401700000000  0.5436890000000  0.4870550000000 1.0
C      1  0.4369220000000  0.4911440000000  0.5090470000000 1.0
C      1  0.5819650000000  0.4965180000000  0.5225290000000 1.0
C      1  0.4861090000000  0.5070590000000  0.5843180000000 1.0
C      1  0.4942550000000  0.4467680000000  0.5214230000000 1.0
C      1  0.4381690000000  0.5130640000000  0.5274030000000 1.0
C      1  0.5138960000000  0.5794620000000  0.4841330000000 1.0
C      1  0.5702480000000  0.4751100000000  0.5105930000000 1.0
C      1  0.4793680000000  0.4802550000000  0.5782750000000 1.0
C      1  0.5261760000000  0.4853810000000  0.4472470000000 1.0
C      1  0.4860420000000  0.4344640000000  0.4681240000000 1.0
C      1  0.5206380000000  0.4659400000000  0.4254540000000 1.0
C      1  0.4900760000000  0.5265040000000  0.5439470000000 1.0
C      1  0.4710220000000  0.5401130000000  0.4400140000000 1.0
C      1  0.5250680000000  0.4874640000000  0.4979460000000 1.0
C      1  0.5046710000000  0.5581860000000  0.4675210000000 1.0
C      1  0.5519110000000  0.5475170000000  0.4520010000000 1.0
END
