TITL C-19518-9033-9 -0.0805015539275152 125000 -522.125198511972 0 0 76 (C1) n - 1
REM
REM in /rds/project/t2_vol4/rds-t2-cs072/BORA/CARBON/from-Arr/AIRSS/Generating-Clusters/GAP-ML-2020/Higher-Symm/SD-CG/HFTN-CG
REM
REM
REM
REM
REM
REM ./C.cell (b20cbc046b6831c77cfcea5457e17084)
REM AIRSS Version 0.9.1 bugfix July 2018 build 013d7b7c2542+ Fri, 06 Jul 2018 19:26:36 +0100
REM compiler GCC version 9.3.0
REM options -cpp -mtune=generic -march=x86-64 -g -O0
REM seed 1265963280 1972099351 -1228305672 469046694 -1321091874 2099345811 1386605589 222696364 1883684221 -921920763 -827519930 1040227371 -2097910509 38526900 -1047106477 1333546915 1428883834 1579660443 633108480 1889111778 -496292763 -1012275636 405729520 -1626207251 -1789600341 2038024975 -720231835 1652128776 1847910377 835122692 168474414 -1513076093 436296046
REM
CELL 1.54180   50.00000   50.00000   50.00000   90.00000   90.00000   90.00000
LATT -1
SFAC C  
C      1  0.4659370000000  0.5527000000000  0.5697360000000 1.0
C      1  0.5653140000000  0.4779170000000  0.5494550000000 1.0
C      1  0.5608000000000  0.5758410000000  0.4591210000000 1.0
C      1  0.5307530000000  0.4538930000000  0.5760610000000 1.0
C      1  0.5400850000000  0.5544310000000  0.4192560000000 1.0
C      1  0.4719910000000  0.4508200000000  0.4339370000000 1.0
C      1  0.4242450000000  0.5333040000000  0.5527910000000 1.0
C      1  0.4321640000000  0.4727080000000  0.4527350000000 1.0
C      1  0.5799150000000  0.5336490000000  0.4403750000000 1.0
C      1  0.4397330000000  0.4246560000000  0.4616690000000 1.0
C      1  0.4518390000000  0.5651110000000  0.5244270000000 1.0
C      1  0.5476910000000  0.4347720000000  0.5334170000000 1.0
C      1  0.5482840000000  0.4775800000000  0.5710610000000 1.0
C      1  0.4717580000000  0.5659080000000  0.5455650000000 1.0
C      1  0.5801890000000  0.5563020000000  0.4599510000000 1.0
C      1  0.4426850000000  0.5348330000000  0.5735630000000 1.0
C      1  0.5604630000000  0.5325730000000  0.4209370000000 1.0
C      1  0.4534140000000  0.4736830000000  0.4346340000000 1.0
C      1  0.5306920000000  0.4333700000000  0.5577720000000 1.0
C      1  0.4643740000000  0.4260650000000  0.4433750000000 1.0
C      1  0.5398500000000  0.5748250000000  0.4377620000000 1.0
C      1  0.4281150000000  0.4485270000000  0.4692480000000 1.0
C      1  0.5657730000000  0.4551320000000  0.5301770000000 1.0
C      1  0.4282870000000  0.5503160000000  0.5288000000000 1.0
C      1  0.4215980000000  0.5090330000000  0.5370670000000 1.0
C      1  0.5247800000000  0.4305210000000  0.5165240000000 1.0
C      1  0.5200570000000  0.5339060000000  0.4211520000000 1.0
C      1  0.5669490000000  0.4965520000000  0.5273230000000 1.0
C      1  0.5787240000000  0.5150950000000  0.4623110000000 1.0
C      1  0.4310810000000  0.4891230000000  0.4766490000000 1.0
C      1  0.4731260000000  0.5629480000000  0.5040100000000 1.0
C      1  0.4547430000000  0.4115190000000  0.4817120000000 1.0
C      1  0.5397560000000  0.5769450000000  0.4789150000000 1.0
C      1  0.4947240000000  0.4696050000000  0.4369070000000 1.0
C      1  0.4817400000000  0.5304500000000  0.5774830000000 1.0
C      1  0.5072600000000  0.4715250000000  0.5776420000000 1.0
C      1  0.5073690000000  0.4302790000000  0.5405770000000 1.0
C      1  0.4248800000000  0.5264030000000  0.5137980000000 1.0
C      1  0.5393870000000  0.5130050000000  0.4225630000000 1.0
C      1  0.4935490000000  0.5635380000000  0.5254430000000 1.0
C      1  0.5197730000000  0.5759830000000  0.4584910000000 1.0
C      1  0.4800150000000  0.4131060000000  0.4635320000000 1.0
C      1  0.5664520000000  0.4739340000000  0.5079030000000 1.0
C      1  0.4294680000000  0.4652390000000  0.4938280000000 1.0
C      1  0.5789610000000  0.5367130000000  0.4809090000000 1.0
C      1  0.4756620000000  0.4923670000000  0.4347630000000 1.0
C      1  0.5246820000000  0.4944800000000  0.5731020000000 1.0
C      1  0.4594570000000  0.5118700000000  0.5796010000000 1.0
C      1  0.5179910000000  0.4744390000000  0.4523080000000 1.0
C      1  0.4464320000000  0.5115660000000  0.4835270000000 1.0
C      1  0.4699860000000  0.4240510000000  0.5025500000000 1.0
C      1  0.5076170000000  0.5268260000000  0.4482040000000 1.0
C      1  0.4837730000000  0.4682510000000  0.5615370000000 1.0
C      1  0.4894490000000  0.5156410000000  0.5543780000000 1.0
C      1  0.5517610000000  0.5031930000000  0.4715980000000 1.0
C      1  0.5527820000000  0.5196480000000  0.5210220000000 1.0
C      1  0.4472410000000  0.4907570000000  0.5324910000000 1.0
C      1  0.5299080000000  0.5512370000000  0.4931380000000 1.0
C      1  0.5186500000000  0.4379960000000  0.4900580000000 1.0
C      1  0.4792550000000  0.5494650000000  0.4801820000000 1.0
C      1  0.4806310000000  0.5163670000000  0.4477140000000 1.0
C      1  0.4942960000000  0.4241780000000  0.4854050000000 1.0
C      1  0.4446140000000  0.4645090000000  0.5181780000000 1.0
C      1  0.5300010000000  0.5018020000000  0.4498770000000 1.0
C      1  0.4681440000000  0.4925670000000  0.5560210000000 1.0
C      1  0.5169790000000  0.5146170000000  0.5552310000000 1.0
C      1  0.5068370000000  0.5501570000000  0.4693510000000 1.0
C      1  0.5183540000000  0.5510150000000  0.5204920000000 1.0
C      1  0.4834490000000  0.4458630000000  0.5434830000000 1.0
C      1  0.5521850000000  0.5291710000000  0.4936150000000 1.0
C      1  0.4498310000000  0.5124770000000  0.5110230000000 1.0
C      1  0.5509840000000  0.4769390000000  0.4848580000000 1.0
C      1  0.4648470000000  0.5273780000000  0.4685710000000 1.0
C      1  0.5296970000000  0.4602020000000  0.4749080000000 1.0
C      1  0.5308710000000  0.5298820000000  0.5358770000000 1.0
C      1  0.4642140000000  0.4436930000000  0.5226340000000 1.0
END
