TITL C-19920-9324-7 -105.513007497723 125000 -441.636795939248 0 0 66 (C1) n - 1
REM
REM in /rds/project/t2_vol4/rds-t2-cs072/BORA/CARBON/from-Arr/AIRSS/Generating-Clusters/GAP-ML-2020/Higher-Symm/SD-CG/HFTN-CG
REM
REM
REM
REM
REM
REM ./C.cell (b20cbc046b6831c77cfcea5457e17084)
REM AIRSS Version 0.9.1 bugfix July 2018 build 013d7b7c2542+ Fri, 06 Jul 2018 19:26:36 +0100
REM compiler GCC version 9.3.0
REM options -cpp -mtune=generic -march=x86-64 -g -O0
REM seed 1349817959 227157955 -728494925 -185766735 -2076173102 1753973722 -1408013822 -1611633739 -1769707031 2075497569 -1563709204 -787565777 -705798805 -1266533495 1802798240 1858801995 606298899 1819948250 -495965008 -408818367 -1956504077 -539119249 1580175996 1100158143 -916079433 -433578666 -1936222588 855814063 -402953274 -1798592703 1747400179 723415833 464422817
REM
CELL 1.54180   50.00000   50.00000   50.00000   90.00000   90.00000   90.00000
LATT -1
SFAC C  
C      1  0.5441240000000  0.4607420000000  0.5632110000000 1.0
C      1  0.5364270000000  0.4255940000000  0.4993970000000 1.0
C      1  0.5393200000000  0.4596670000000  0.4358100000000 1.0
C      1  0.5403520000000  0.5320340000000  0.4343510000000 1.0
C      1  0.5391860000000  0.5715770000000  0.4968620000000 1.0
C      1  0.5392170000000  0.5327530000000  0.5632970000000 1.0
C      1  0.4689010000000  0.4677100000000  0.5634860000000 1.0
C      1  0.4591260000000  0.4309780000000  0.5008120000000 1.0
C      1  0.4629060000000  0.4669420000000  0.4388730000000 1.0
C      1  0.4637560000000  0.5400680000000  0.4380680000000 1.0
C      1  0.4639740000000  0.5756550000000  0.5029140000000 1.0
C      1  0.4621590000000  0.5366400000000  0.5640090000000 1.0
C      1  0.4433690000000  0.5611440000000  0.4991250000000 1.0
C      1  0.4406520000000  0.5334720000000  0.5492610000000 1.0
C      1  0.4597820000000  0.4827620000000  0.5399620000000 1.0
C      1  0.4395270000000  0.4483040000000  0.4996310000000 1.0
C      1  0.4421420000000  0.4758330000000  0.4507910000000 1.0
C      1  0.4432350000000  0.5318560000000  0.4505770000000 1.0
C      1  0.5463440000000  0.5447010000000  0.4992190000000 1.0
C      1  0.5519860000000  0.5192090000000  0.5439350000000 1.0
C      1  0.5525330000000  0.4696530000000  0.5387160000000 1.0
C      1  0.5562390000000  0.4417580000000  0.4989700000000 1.0
C      1  0.5602300000000  0.4653180000000  0.4500280000000 1.0
C      1  0.5618280000000  0.5235170000000  0.4470990000000 1.0
C      1  0.5729800000000  0.4812680000000  0.5215690000000 1.0
C      1  0.5730080000000  0.4660810000000  0.4971040000000 1.0
C      1  0.5724570000000  0.4798130000000  0.4710400000000 1.0
C      1  0.5711990000000  0.5104120000000  0.4706640000000 1.0
C      1  0.5678070000000  0.5242080000000  0.4968740000000 1.0
C      1  0.5706420000000  0.5099580000000  0.5214820000000 1.0
C      1  0.4360290000000  0.4919760000000  0.5229880000000 1.0
C      1  0.4311540000000  0.4760050000000  0.4992120000000 1.0
C      1  0.4298140000000  0.4902180000000  0.4731330000000 1.0
C      1  0.4297480000000  0.5199690000000  0.4732110000000 1.0
C      1  0.4296340000000  0.5355490000000  0.4989090000000 1.0
C      1  0.4309500000000  0.5206300000000  0.5250690000000 1.0
C      1  0.5221560000000  0.5309560000000  0.5092580000000 1.0
C      1  0.5276050000000  0.5086010000000  0.5293490000000 1.0
C      1  0.5283960000000  0.4783190000000  0.5227150000000 1.0
C      1  0.5253670000000  0.4739350000000  0.4928440000000 1.0
C      1  0.5201680000000  0.4954510000000  0.4738950000000 1.0
C      1  0.5175350000000  0.5228830000000  0.4817840000000 1.0
C      1  0.4776230000000  0.5254520000000  0.5141590000000 1.0
C      1  0.4811580000000  0.5039720000000  0.5331350000000 1.0
C      1  0.4813670000000  0.4755740000000  0.5206780000000 1.0
C      1  0.4801330000000  0.4703570000000  0.4926240000000 1.0
C      1  0.4794560000000  0.4934820000000  0.4759060000000 1.0
C      1  0.4787400000000  0.5198210000000  0.4859980000000 1.0
C      1  0.4921590000000  0.5415680000000  0.4424240000000 1.0
C      1  0.4919310000000  0.5724400000000  0.5090050000000 1.0
C      1  0.4858630000000  0.5401490000000  0.5748040000000 1.0
C      1  0.4955750000000  0.4605700000000  0.5610200000000 1.0
C      1  0.4820850000000  0.4187260000000  0.4999520000000 1.0
C      1  0.4917620000000  0.4697610000000  0.4369050000000 1.0
C      1  0.5161760000000  0.5394620000000  0.4278190000000 1.0
C      1  0.5168760000000  0.5834270000000  0.5018130000000 1.0
C      1  0.5106900000000  0.5293770000000  0.5669200000000 1.0
C      1  0.5205040000000  0.4566940000000  0.5729280000000 1.0
C      1  0.5079770000000  0.4277530000000  0.4945890000000 1.0
C      1  0.5146600000000  0.4571700000000  0.4276880000000 1.0
C      1  0.4957990000000  0.5362580000000  0.4699250000000 1.0
C      1  0.4975180000000  0.5458280000000  0.5175890000000 1.0
C      1  0.5037740000000  0.4648520000000  0.5336130000000 1.0
C      1  0.5044430000000  0.4546180000000  0.4874490000000 1.0
C      1  0.4985960000000  0.4897070000000  0.4554050000000 1.0
C      1  0.5051840000000  0.5088650000000  0.5481480000000 1.0
END
