TITL C-199747-9303-3 73.476480833707 125000 -711.837329680501 0 0 101 (C1) n - 1
REM
REM in /rds/project/t2_vol4/rds-t2-cs072/BORA/CARBON/from-Arr/AIRSS/Generating-Clusters/GAP-ML-2020/Higher-Symm/SD-CG/HFTN-CG
REM
REM
REM
REM
REM
REM ./C.cell (b20cbc046b6831c77cfcea5457e17084)
REM AIRSS Version 0.9.1 bugfix July 2018 build 013d7b7c2542+ Fri, 06 Jul 2018 19:26:36 +0100
REM compiler GCC version 9.3.0
REM options -cpp -mtune=generic -march=x86-64 -g -O0
REM seed 540480718 -1636229309 -71254899 1888767084 -486409132 302298644 1008390733 1720167754 -365985565 940927291 -167580610 -2142412543 -1495186823 -917021949 -875904737 109750890 -1899286290 -1550010308 290755555 237361115 1746654392 -1006752307 657965707 -793662251 501138102 -1073764050 -1339666860 -785708232 150356734 -237254097 -1237962978 -198517291 -1705366616
REM
CELL 1.54180   50.00000   50.00000   50.00000   90.00000   90.00000   90.00000
LATT -1
SFAC C  
C      1  0.4677370000000  0.4499630000000  0.4329120000000 1.0
C      1  0.4303420000000  0.4451710000000  0.4688040000000 1.0
C      1  0.4267790000000  0.4445690000000  0.5233500000000 1.0
C      1  0.4595250000000  0.4486970000000  0.5637900000000 1.0
C      1  0.5101590000000  0.4515540000000  0.5760400000000 1.0
C      1  0.5548820000000  0.4549970000000  0.5536880000000 1.0
C      1  0.5760630000000  0.4553670000000  0.5043600000000 1.0
C      1  0.5614100000000  0.4534880000000  0.4552290000000 1.0
C      1  0.5190260000000  0.4518410000000  0.4267110000000 1.0
C      1  0.4339360000000  0.4341330000000  0.4962170000000 1.0
C      1  0.4475700000000  0.4337940000000  0.5411370000000 1.0
C      1  0.4863530000000  0.4387570000000  0.5658790000000 1.0
C      1  0.5317960000000  0.4396940000000  0.5614240000000 1.0
C      1  0.5600660000000  0.4454170000000  0.5264460000000 1.0
C      1  0.5653990000000  0.4425060000000  0.4814300000000 1.0
C      1  0.5386500000000  0.4395470000000  0.4441120000000 1.0
C      1  0.4940690000000  0.4388660000000  0.4330320000000 1.0
C      1  0.4528340000000  0.4348070000000  0.4532640000000 1.0
C      1  0.4819420000000  0.5806670000000  0.4627530000000 1.0
C      1  0.4611730000000  0.5801840000000  0.4839140000000 1.0
C      1  0.4620840000000  0.5823140000000  0.5122990000000 1.0
C      1  0.4847110000000  0.5924490000000  0.5231660000000 1.0
C      1  0.5039090000000  0.5825120000000  0.5394030000000 1.0
C      1  0.5303220000000  0.5826210000000  0.5291740000000 1.0
C      1  0.5423860000000  0.5834890000000  0.5018300000000 1.0
C      1  0.5348500000000  0.5823470000000  0.4747670000000 1.0
C      1  0.5097130000000  0.5816750000000  0.4590960000000 1.0
C      1  0.4970010000000  0.4566800000000  0.4701000000000 1.0
C      1  0.4738870000000  0.4668230000000  0.4798880000000 1.0
C      1  0.4609730000000  0.4504800000000  0.4977310000000 1.0
C      1  0.4706900000000  0.4654980000000  0.5184820000000 1.0
C      1  0.4921820000000  0.4543820000000  0.5304340000000 1.0
C      1  0.5120200000000  0.4715480000000  0.5339320000000 1.0
C      1  0.5327260000000  0.4691490000000  0.5144050000000 1.0
C      1  0.5291040000000  0.4575480000000  0.4904190000000 1.0
C      1  0.5179100000000  0.4739860000000  0.4715090000000 1.0
C      1  0.4450470000000  0.5008000000000  0.4979150000000 1.0
C      1  0.4626910000000  0.4931600000000  0.5216150000000 1.0
C      1  0.4858060000000  0.5107720000000  0.5214020000000 1.0
C      1  0.5093870000000  0.5000330000000  0.5308540000000 1.0
C      1  0.5356270000000  0.4998860000000  0.5152130000000 1.0
C      1  0.5321990000000  0.5174510000000  0.4919130000000 1.0
C      1  0.5134530000000  0.5011470000000  0.4754950000000 1.0
C      1  0.4876270000000  0.5122520000000  0.4785530000000 1.0
C      1  0.4651870000000  0.4940060000000  0.4759110000000 1.0
C      1  0.5576010000000  0.5373840000000  0.4551640000000 1.0
C      1  0.5169470000000  0.5358880000000  0.4296010000000 1.0
C      1  0.4669900000000  0.5352350000000  0.4351430000000 1.0
C      1  0.4359340000000  0.5367680000000  0.4711860000000 1.0
C      1  0.4360640000000  0.5391420000000  0.5243170000000 1.0
C      1  0.4579800000000  0.5321430000000  0.5648240000000 1.0
C      1  0.5047970000000  0.5375920000000  0.5698840000000 1.0
C      1  0.5523020000000  0.5389720000000  0.5505390000000 1.0
C      1  0.5721250000000  0.5391800000000  0.5055400000000 1.0
C      1  0.5693290000000  0.5254430000000  0.5312320000000 1.0
C      1  0.5633290000000  0.5237140000000  0.4808490000000 1.0
C      1  0.5417720000000  0.5221920000000  0.4359640000000 1.0
C      1  0.4913890000000  0.5225170000000  0.4252470000000 1.0
C      1  0.4453540000000  0.5206900000000  0.4486880000000 1.0
C      1  0.4340800000000  0.5274990000000  0.4981900000000 1.0
C      1  0.4387340000000  0.5204600000000  0.5471090000000 1.0
C      1  0.4816200000000  0.5200090000000  0.5751820000000 1.0
C      1  0.5317080000000  0.5258960000000  0.5669740000000 1.0
C      1  0.5551980000000  0.4833330000000  0.5561230000000 1.0
C      1  0.5775650000000  0.4833790000000  0.5034130000000 1.0
C      1  0.5630450000000  0.4820590000000  0.4532490000000 1.0
C      1  0.5191520000000  0.4802610000000  0.4236330000000 1.0
C      1  0.4671670000000  0.4786820000000  0.4308510000000 1.0
C      1  0.4260370000000  0.4730640000000  0.4683860000000 1.0
C      1  0.4223570000000  0.4725630000000  0.5235800000000 1.0
C      1  0.4584390000000  0.4774420000000  0.5662610000000 1.0
C      1  0.5098230000000  0.4801260000000  0.5794080000000 1.0
C      1  0.5721470000000  0.4960300000000  0.4778420000000 1.0
C      1  0.5437160000000  0.4943110000000  0.4339800000000 1.0
C      1  0.4919800000000  0.4934590000000  0.4239390000000 1.0
C      1  0.4477290000000  0.4917400000000  0.4509030000000 1.0
C      1  0.4229160000000  0.4828140000000  0.4960070000000 1.0
C      1  0.4416240000000  0.4913040000000  0.5439540000000 1.0
C      1  0.4825920000000  0.4916600000000  0.5764090000000 1.0
C      1  0.5343280000000  0.4966470000000  0.5715270000000 1.0
C      1  0.5641510000000  0.4975860000000  0.5290400000000 1.0
C      1  0.4975350000000  0.4259450000000  0.4598760000000 1.0
C      1  0.4707220000000  0.4176690000000  0.4697270000000 1.0
C      1  0.4610830000000  0.4194030000000  0.4976530000000 1.0
C      1  0.4674640000000  0.4164620000000  0.5263970000000 1.0
C      1  0.4930420000000  0.4256100000000  0.5394590000000 1.0
C      1  0.5227260000000  0.4218250000000  0.5395700000000 1.0
C      1  0.5416920000000  0.4236500000000  0.5185570000000 1.0
C      1  0.5402080000000  0.4283360000000  0.4888560000000 1.0
C      1  0.5263690000000  0.4209540000000  0.4635570000000 1.0
C      1  0.4504020000000  0.5632100000000  0.5308300000000 1.0
C      1  0.4652990000000  0.5577270000000  0.5547320000000 1.0
C      1  0.4935230000000  0.5618100000000  0.5579660000000 1.0
C      1  0.5506250000000  0.5645310000000  0.5383640000000 1.0
C      1  0.5629430000000  0.5647830000000  0.5110090000000 1.0
C      1  0.5463530000000  0.5628110000000  0.4561880000000 1.0
C      1  0.5212100000000  0.5616060000000  0.4409050000000 1.0
C      1  0.4662130000000  0.5615610000000  0.4463320000000 1.0
C      1  0.4456180000000  0.5625290000000  0.4672750000000 1.0
C      1  0.5149080000000  0.5389020000000  0.5013280000000 1.0
C      1  0.4887750000000  0.5305140000000  0.5012750000000 1.0
END
