TITL C-193868-2176-5 -0.178020733707927 125000 -684.909178773622 0 0 98 (C1) n - 1
REM
REM in /rds/project/t2_vol4/rds-t2-cs072/BORA/CARBON/from-Arr/AIRSS/Generating-Clusters/GAP-ML-2020/Higher-Symm/SD-CG/HFTN-CG
REM
REM
REM
REM
REM
REM ./C.cell (b20cbc046b6831c77cfcea5457e17084)
REM AIRSS Version 0.9.1 bugfix July 2018 build 013d7b7c2542+ Fri, 06 Jul 2018 19:26:36 +0100
REM compiler GCC version 9.3.0
REM options -cpp -mtune=generic -march=x86-64 -g -O0
REM seed 1978552111 1843311894 594842264 1166161285 -507265255 -1647367724 -1729540694 -384836936 1591968897 -1138652946 -2026296435 1278105113 -1728832833 1538224617 172154766 356490945 1751974942 -1251130381 97419285 1348666818 -1642732461 1579965161 -1051277020 923750921 -1235023227 1128586752 1270744492 1995507613 -1530856130 -1955204751 1647383598 -182768982 -1038915705
REM
CELL 1.54180   50.00000   50.00000   50.00000   90.00000   90.00000   90.00000
LATT -1
SFAC C  
C      1  0.5629310000000  0.5679980000000  0.4807400000000 1.0
C      1  0.4861420000000  0.5960110000000  0.4782060000000 1.0
C      1  0.4182800000000  0.5482200000000  0.4796680000000 1.0
C      1  0.4131780000000  0.4645700000000  0.4804670000000 1.0
C      1  0.4707170000000  0.4070470000000  0.4780190000000 1.0
C      1  0.5522410000000  0.4237700000000  0.4805890000000 1.0
C      1  0.5969100000000  0.4920070000000  0.4778450000000 1.0
C      1  0.4242870000000  0.4734690000000  0.5378410000000 1.0
C      1  0.4734510000000  0.4245270000000  0.5376190000000 1.0
C      1  0.5425210000000  0.4322460000000  0.5376260000000 1.0
C      1  0.5796200000000  0.4907930000000  0.5376790000000 1.0
C      1  0.5567750000000  0.5564370000000  0.5377600000000 1.0
C      1  0.4912530000000  0.5790980000000  0.5371720000000 1.0
C      1  0.4321810000000  0.5427300000000  0.5377220000000 1.0
C      1  0.5112080000000  0.4122790000000  0.5112590000000 1.0
C      1  0.5774610000000  0.4542980000000  0.5109750000000 1.0
C      1  0.5833290000000  0.5304080000000  0.5113310000000 1.0
C      1  0.5274930000000  0.5856680000000  0.5110050000000 1.0
C      1  0.4516230000000  0.5741810000000  0.5109730000000 1.0
C      1  0.4102970000000  0.5079320000000  0.5115910000000 1.0
C      1  0.4382340000000  0.4343650000000  0.5110500000000 1.0
C      1  0.4610440000000  0.3928890000000  0.4996160000000 1.0
C      1  0.5584500000000  0.4036920000000  0.4989380000000 1.0
C      1  0.6129650000000  0.4856000000000  0.4993520000000 1.0
C      1  0.5811430000000  0.5783870000000  0.4991660000000 1.0
C      1  0.4887610000000  0.6133270000000  0.4995800000000 1.0
C      1  0.4049330000000  0.5623150000000  0.4994480000000 1.0
C      1  0.3929260000000  0.4634530000000  0.4995560000000 1.0
C      1  0.4060020000000  0.4804680000000  0.5162650000000 1.0
C      1  0.4573740000000  0.4144620000000  0.5159230000000 1.0
C      1  0.5391080000000  0.4136660000000  0.5153820000000 1.0
C      1  0.5927730000000  0.4773040000000  0.5157590000000 1.0
C      1  0.5757750000000  0.5572830000000  0.5155690000000 1.0
C      1  0.5015170000000  0.5952690000000  0.5156180000000 1.0
C      1  0.4272000000000  0.5607990000000  0.5153470000000 1.0
C      1  0.5574120000000  0.4763780000000  0.5474590000000 1.0
C      1  0.5544430000000  0.5303770000000  0.5487440000000 1.0
C      1  0.5102600000000  0.5607870000000  0.5470460000000 1.0
C      1  0.4583230000000  0.5459810000000  0.5481370000000 1.0
C      1  0.4378340000000  0.4961500000000  0.5481490000000 1.0
C      1  0.4643520000000  0.4494650000000  0.5471040000000 1.0
C      1  0.5176520000000  0.4403630000000  0.5485810000000 1.0
C      1  0.4394010000000  0.4512670000000  0.5337660000000 1.0
C      1  0.5003720000000  0.4218970000000  0.5355350000000 1.0
C      1  0.5610680000000  0.4517200000000  0.5339320000000 1.0
C      1  0.5762920000000  0.5176510000000  0.5355910000000 1.0
C      1  0.5335920000000  0.5700570000000  0.5338540000000 1.0
C      1  0.4659000000000  0.5699220000000  0.5349400000000 1.0
C      1  0.4234740000000  0.5170620000000  0.5351170000000 1.0
C      1  0.4395230000000  0.4911770000000  0.4452120000000 1.0
C      1  0.4662570000000  0.4433260000000  0.4416840000000 1.0
C      1  0.5211280000000  0.4431850000000  0.4453270000000 1.0
C      1  0.5619240000000  0.4798390000000  0.4417230000000 1.0
C      1  0.5507350000000  0.5335870000000  0.4453640000000 1.0
C      1  0.5062460000000  0.5657430000000  0.4416100000000 1.0
C      1  0.4560660000000  0.5439950000000  0.4441320000000 1.0
C      1  0.5007460000000  0.4180250000000  0.4838860000000 1.0
C      1  0.5677050000000  0.4507230000000  0.4830420000000 1.0
C      1  0.5800340000000  0.5191410000000  0.4838330000000 1.0
C      1  0.5331700000000  0.5771280000000  0.4831390000000 1.0
C      1  0.4630750000000  0.5741700000000  0.4834100000000 1.0
C      1  0.4177250000000  0.5156850000000  0.4839530000000 1.0
C      1  0.4365770000000  0.4440920000000  0.4829640000000 1.0
C      1  0.5441260000000  0.4697770000000  0.4792770000000 1.0
C      1  0.5531780000000  0.5005570000000  0.4793830000000 1.0
C      1  0.5195050000000  0.5500240000000  0.4791190000000 1.0
C      1  0.4876840000000  0.5519860000000  0.4789950000000 1.0
C      1  0.4472330000000  0.5185070000000  0.4792360000000 1.0
C      1  0.4601800000000  0.4631110000000  0.4790560000000 1.0
C      1  0.4883340000000  0.4481780000000  0.4793760000000 1.0
C      1  0.5254810000000  0.4232690000000  0.4672370000000 1.0
C      1  0.5833060000000  0.4705120000000  0.4629690000000 1.0
C      1  0.5693630000000  0.5421220000000  0.4672410000000 1.0
C      1  0.5104200000000  0.5880150000000  0.4631510000000 1.0
C      1  0.4426260000000  0.5606110000000  0.4661230000000 1.0
C      1  0.4175880000000  0.4904050000000  0.4665530000000 1.0
C      1  0.4526690000000  0.4247010000000  0.4630590000000 1.0
C      1  0.4689370000000  0.5099830000000  0.4959910000000 1.0
C      1  0.4727190000000  0.4832340000000  0.4977310000000 1.0
C      1  0.4971130000000  0.4697210000000  0.4976480000000 1.0
C      1  0.5226040000000  0.4780910000000  0.4986440000000 1.0
C      1  0.5307500000000  0.5046680000000  0.4982630000000 1.0
C      1  0.5161080000000  0.5270720000000  0.4982860000000 1.0
C      1  0.4884600000000  0.5285340000000  0.4972470000000 1.0
C      1  0.5317850000000  0.4871320000000  0.5568080000000 1.0
C      1  0.5298990000000  0.5167370000000  0.5572210000000 1.0
C      1  0.5054910000000  0.5335870000000  0.5565550000000 1.0
C      1  0.4769980000000  0.5251980000000  0.5567140000000 1.0
C      1  0.4658840000000  0.4977210000000  0.5565820000000 1.0
C      1  0.4805070000000  0.4719550000000  0.5564810000000 1.0
C      1  0.5097960000000  0.4672290000000  0.5570540000000 1.0
C      1  0.5257600000000  0.5460040000000  0.4486190000000 1.0
C      1  0.4829900000000  0.5514600000000  0.4472700000000 1.0
C      1  0.4503750000000  0.5171970000000  0.4491490000000 1.0
C      1  0.4563720000000  0.4692980000000  0.4484250000000 1.0
C      1  0.4931510000000  0.4473120000000  0.4478310000000 1.0
C      1  0.5386500000000  0.4648350000000  0.4487940000000 1.0
C      1  0.5525690000000  0.5053950000000  0.4480170000000 1.0
END
