TITL C-193883-2065-6 -9.60721013615896 125000 -184.06069114253 0 0 29 (C1) n - 1
REM
REM in /rds/project/t2_vol4/rds-t2-cs072/BORA/CARBON/from-Arr/AIRSS/Generating-Clusters/GAP-ML-2020/Higher-Symm/SD-CG/HFTN-CG
REM
REM
REM
REM
REM
REM ./C.cell (b20cbc046b6831c77cfcea5457e17084)
REM AIRSS Version 0.9.1 bugfix July 2018 build 013d7b7c2542+ Fri, 06 Jul 2018 19:26:36 +0100
REM compiler GCC version 9.3.0
REM options -cpp -mtune=generic -march=x86-64 -g -O0
REM seed -1755871516 133571412 -2034818438 -614470457 254510373 -1496035721 1131501148 1467364205 1607511526 -144738842 940507726 1078512328 -695134263 54709711 1487131901 1607995547 1443593919 -131656765 -937119899 1359947463 99932564 -944538799 -976933638 -98504625 -1805854973 -352631303 -998073576 -977299257 -1070665400 -634109088 -1985342962 -1267456174 -1436028757
REM
CELL 1.54180   50.00000   50.00000   50.00000   90.00000   90.00000   90.00000
LATT -1
SFAC C  
C      1  0.5164220000000  0.5336740000000  0.4468130000000 1.0
C      1  0.4725830000000  0.5329660000000  0.4627990000000 1.0
C      1  0.4679660000000  0.4882840000000  0.4560810000000 1.0
C      1  0.4972970000000  0.4603560000000  0.4529190000000 1.0
C      1  0.5207950000000  0.4895610000000  0.4412890000000 1.0
C      1  0.4965450000000  0.5146960000000  0.5079320000000 1.0
C      1  0.4724030000000  0.4843760000000  0.5133720000000 1.0
C      1  0.5102180000000  0.4677080000000  0.5053020000000 1.0
C      1  0.5497540000000  0.4883250000000  0.4892160000000 1.0
C      1  0.5332080000000  0.5312700000000  0.4964220000000 1.0
C      1  0.4914740000000  0.5104670000000  0.5900480000000 1.0
C      1  0.4782080000000  0.5147660000000  0.5640010000000 1.0
C      1  0.4663460000000  0.4887060000000  0.5688040000000 1.0
C      1  0.4945700000000  0.4810740000000  0.5787460000000 1.0
C      1  0.5078040000000  0.4928890000000  0.5998120000000 1.0
C      1  0.5077230000000  0.5377100000000  0.4952220000000 1.0
C      1  0.4693910000000  0.5084260000000  0.5014360000000 1.0
C      1  0.4835410000000  0.4662580000000  0.4956850000000 1.0
C      1  0.5304740000000  0.4696400000000  0.4857140000000 1.0
C      1  0.5401310000000  0.5113130000000  0.4800400000000 1.0
C      1  0.4985570000000  0.5347770000000  0.4666540000000 1.0
C      1  0.4644160000000  0.5099180000000  0.4736650000000 1.0
C      1  0.4755360000000  0.4628710000000  0.4698400000000 1.0
C      1  0.5234410000000  0.4660620000000  0.4580330000000 1.0
C      1  0.5317300000000  0.5122470000000  0.4523300000000 1.0
C      1  0.4917270000000  0.4858010000000  0.4391650000000 1.0
C      1  0.5031050000000  0.4978890000000  0.4797490000000 1.0
C      1  0.5016720000000  0.4924250000000  0.5520410000000 1.0
C      1  0.5032520000000  0.4908980000000  0.5244250000000 1.0
END
