TITL C-19930-5-1 27.279448239947 125000 -433.208438621456 0 0 64 (C1) n - 1
REM
REM in /rds/project/t2_vol4/rds-t2-cs072/BORA/CARBON/from-Arr/AIRSS/Generating-Clusters/GAP-ML-2020/Higher-Symm/SD-CG/HFTN-CG
REM
REM
REM
REM
REM
REM ./C.cell (b20cbc046b6831c77cfcea5457e17084)
REM AIRSS Version 0.9.1 bugfix July 2018 build 013d7b7c2542+ Fri, 06 Jul 2018 19:26:36 +0100
REM compiler GCC version 9.3.0
REM options -cpp -mtune=generic -march=x86-64 -g -O0
REM seed 1171914760 -1373886951 -1663773015 -338844674 1068741052 -1428653710 -449279534 7615916 577398168 976429980 -1738393311 -1680944612 -44864292 1026839984 -145892778 914258713 633166170 1593878148 1214377084 -1987240396 697841615 -2103235622 1655986236 1090819268 1005213632 -1491461745 -1393950169 399856199 -1765070932 454770892 -1237461558 428724575 74491944
REM
CELL 1.54180   50.00000   50.00000   50.00000   90.00000   90.00000   90.00000
LATT -1
SFAC C  
C      1  0.5402820000000  0.4687860000000  0.5620470000000 1.0
C      1  0.5381620000000  0.5658630000000  0.4964370000000 1.0
C      1  0.5384520000000  0.4610480000000  0.4455280000000 1.0
C      1  0.5186650000000  0.4532860000000  0.5515680000000 1.0
C      1  0.5177200000000  0.5646070000000  0.5160880000000 1.0
C      1  0.5173920000000  0.4778730000000  0.4367260000000 1.0
C      1  0.4688090000000  0.5533590000000  0.5130170000000 1.0
C      1  0.4712320000000  0.4836890000000  0.4472670000000 1.0
C      1  0.4705820000000  0.4619000000000  0.5455090000000 1.0
C      1  0.4551010000000  0.5332100000000  0.4711700000000 1.0
C      1  0.4532040000000  0.4568940000000  0.4895060000000 1.0
C      1  0.4568330000000  0.5071770000000  0.5493000000000 1.0
C      1  0.5463470000000  0.4510370000000  0.5105180000000 1.0
C      1  0.5494850000000  0.5299160000000  0.5359140000000 1.0
C      1  0.5460780000000  0.5141370000000  0.4551990000000 1.0
C      1  0.5460700000000  0.5404190000000  0.4641450000000 1.0
C      1  0.5471680000000  0.4469990000000  0.4831750000000 1.0
C      1  0.5496950000000  0.5089790000000  0.5539830000000 1.0
C      1  0.5585450000000  0.4757760000000  0.5186920000000 1.0
C      1  0.5624090000000  0.5238730000000  0.5081530000000 1.0
C      1  0.5616770000000  0.4956530000000  0.4733280000000 1.0
C      1  0.4843600000000  0.4599870000000  0.4857730000000 1.0
C      1  0.4870950000000  0.5045280000000  0.5443840000000 1.0
C      1  0.4856250000000  0.5327090000000  0.4758330000000 1.0
C      1  0.4423480000000  0.4617770000000  0.5398680000000 1.0
C      1  0.4413430000000  0.5446730000000  0.5187050000000 1.0
C      1  0.4442210000000  0.4875280000000  0.4503810000000 1.0
C      1  0.4813330000000  0.5268860000000  0.5057640000000 1.0
C      1  0.4796730000000  0.4889850000000  0.4760730000000 1.0
C      1  0.4807130000000  0.4823000000000  0.5241600000000 1.0
C      1  0.5228810000000  0.5410110000000  0.5303750000000 1.0
C      1  0.5205280000000  0.5025630000000  0.4496110000000 1.0
C      1  0.5205310000000  0.4515140000000  0.5236460000000 1.0
C      1  0.4380050000000  0.4676100000000  0.5120550000000 1.0
C      1  0.4392570000000  0.5178690000000  0.5300550000000 1.0
C      1  0.4374960000000  0.5127390000000  0.4635660000000 1.0
C      1  0.4935990000000  0.4626620000000  0.5628120000000 1.0
C      1  0.4915510000000  0.5692800000000  0.5038600000000 1.0
C      1  0.4914080000000  0.4654220000000  0.4397520000000 1.0
C      1  0.5575100000000  0.5454930000000  0.4905300000000 1.0
C      1  0.5587620000000  0.4674000000000  0.4649550000000 1.0
C      1  0.5595450000000  0.4821000000000  0.5458290000000 1.0
C      1  0.5024800000000  0.4704080000000  0.5084570000000 1.0
C      1  0.5040290000000  0.5191080000000  0.5226000000000 1.0
C      1  0.5029940000000  0.5069140000000  0.4737330000000 1.0
C      1  0.4973600000000  0.4477360000000  0.4626830000000 1.0
C      1  0.5006130000000  0.4908140000000  0.5663290000000 1.0
C      1  0.4977620000000  0.5593670000000  0.4764570000000 1.0
C      1  0.4487510000000  0.4818640000000  0.5574310000000 1.0
C      1  0.4458800000000  0.5496570000000  0.4921600000000 1.0
C      1  0.4418950000000  0.4646680000000  0.4664340000000 1.0
C      1  0.5286880000000  0.4949440000000  0.5690430000000 1.0
C      1  0.5254340000000  0.5601470000000  0.4707180000000 1.0
C      1  0.5252870000000  0.4421930000000  0.4642190000000 1.0
C      1  0.5471980000000  0.4977210000000  0.5013900000000 1.0
C      1  0.6338170000000  0.4956690000000  0.4985440000000 1.0
C      1  0.4667730000000  0.4999560000000  0.5021720000000 1.0
C      1  0.4186360000000  0.5051670000000  0.4849800000000 1.0
C      1  0.5158740000000  0.4986370000000  0.5014670000000 1.0
C      1  0.4364050000000  0.4975590000000  0.5076550000000 1.0
C      1  0.3922680000000  0.4985730000000  0.4824450000000 1.0
C      1  0.3667730000000  0.4953060000000  0.4811810000000 1.0
C      1  0.6091610000000  0.5013550000000  0.4938780000000 1.0
C      1  0.5847770000000  0.5092410000000  0.4877160000000 1.0
END
