TITL C-19524-706-1 0.0235674313172912 125000 -481.812650631573 0 0 72 (C1) n - 1
REM
REM in /rds/project/t2_vol4/rds-t2-cs072/BORA/CARBON/from-Arr/AIRSS/Generating-Clusters/GAP-ML-2020/Higher-Symm/SD-CG/HFTN-CG
REM
REM
REM
REM
REM
REM ./C.cell (b20cbc046b6831c77cfcea5457e17084)
REM AIRSS Version 0.9.1 bugfix July 2018 build 013d7b7c2542+ Fri, 06 Jul 2018 19:26:36 +0100
REM compiler GCC version 9.3.0
REM options -cpp -mtune=generic -march=x86-64 -g -O0
REM seed 2034181957 -1324678477 -770558707 -566523326 -337016416 -1006566596 -1809207348 -2120249510 -2006401426 -734153853 2080829707 698757629 -1916194743 -757819820 1807556459 1203264838 -35153473 -2108254652 1941773959 344908559 1192375966 -1316470410 564541294 215945423 1205140626 -1015601094 -1590349265 1692439847 -1045272508 -148949465 -1418427508 -983498610 1827174970
REM
CELL 1.54180   50.00000   50.00000   50.00000   90.00000   90.00000   90.00000
LATT -1
SFAC C  
C      1  0.5540230000000  0.5140050000000  0.5316630000000 1.0
C      1  0.5359380000000  0.5119380000000  0.4469910000000 1.0
C      1  0.4431100000000  0.5146600000000  0.4645960000000 1.0
C      1  0.4721450000000  0.5152120000000  0.5513440000000 1.0
C      1  0.4451580000000  0.5161050000000  0.5384120000000 1.0
C      1  0.4635600000000  0.5159730000000  0.4435940000000 1.0
C      1  0.5551990000000  0.5120520000000  0.4692950000000 1.0
C      1  0.5277110000000  0.5127890000000  0.5458940000000 1.0
C      1  0.5353230000000  0.5813090000000  0.5535630000000 1.0
C      1  0.5528540000000  0.5763750000000  0.4662690000000 1.0
C      1  0.4669580000000  0.5831050000000  0.4553800000000 1.0
C      1  0.4496320000000  0.5809780000000  0.5289240000000 1.0
C      1  0.4682880000000  0.5847220000000  0.5461330000000 1.0
C      1  0.4488390000000  0.5808820000000  0.4732930000000 1.0
C      1  0.5346130000000  0.5761140000000  0.4480970000000 1.0
C      1  0.5534040000000  0.5815270000000  0.5353060000000 1.0
C      1  0.5307180000000  0.4871100000000  0.4387050000000 1.0
C      1  0.4401850000000  0.4878870000000  0.4727090000000 1.0
C      1  0.4873650000000  0.4881330000000  0.5554270000000 1.0
C      1  0.5544830000000  0.4888970000000  0.5153110000000 1.0
C      1  0.4768470000000  0.4903580000000  0.4413470000000 1.0
C      1  0.5605090000000  0.4879140000000  0.4846630000000 1.0
C      1  0.5172640000000  0.4876340000000  0.5579500000000 1.0
C      1  0.4413910000000  0.4905890000000  0.5276560000000 1.0
C      1  0.4450960000000  0.4419140000000  0.4846040000000 1.0
C      1  0.4862800000000  0.4401990000000  0.5552270000000 1.0
C      1  0.5544430000000  0.4393380000000  0.5162020000000 1.0
C      1  0.5166750000000  0.4420330000000  0.4469970000000 1.0
C      1  0.5556120000000  0.4391300000000  0.4871100000000 1.0
C      1  0.5154060000000  0.4396920000000  0.5547430000000 1.0
C      1  0.4458750000000  0.4429810000000  0.5146690000000 1.0
C      1  0.4872230000000  0.4433390000000  0.4457690000000 1.0
C      1  0.4468780000000  0.5331960000000  0.5151970000000 1.0
C      1  0.5155910000000  0.5365890000000  0.5550480000000 1.0
C      1  0.5458720000000  0.5310510000000  0.4885220000000 1.0
C      1  0.4844830000000  0.5352230000000  0.4451680000000 1.0
C      1  0.5553090000000  0.5359490000000  0.5153780000000 1.0
C      1  0.4872540000000  0.5380270000000  0.5563940000000 1.0
C      1  0.4466580000000  0.5322480000000  0.4866280000000 1.0
C      1  0.5132700000000  0.5307060000000  0.4503170000000 1.0
C      1  0.4673150000000  0.4629670000000  0.4429430000000 1.0
C      1  0.4493140000000  0.4644240000000  0.5339810000000 1.0
C      1  0.5305840000000  0.4633050000000  0.5517240000000 1.0
C      1  0.5554840000000  0.4623560000000  0.4721080000000 1.0
C      1  0.5363660000000  0.4626790000000  0.4491120000000 1.0
C      1  0.5512280000000  0.4632490000000  0.5302650000000 1.0
C      1  0.4715830000000  0.4634310000000  0.5543850000000 1.0
C      1  0.4452110000000  0.4619400000000  0.4633880000000 1.0
C      1  0.5353430000000  0.4174450000000  0.4857740000000 1.0
C      1  0.4860570000000  0.4216480000000  0.4657880000000 1.0
C      1  0.4659220000000  0.4213800000000  0.5148200000000 1.0
C      1  0.5150430000000  0.4177550000000  0.5349360000000 1.0
C      1  0.4657630000000  0.4211100000000  0.4850490000000 1.0
C      1  0.5158660000000  0.4196290000000  0.4661020000000 1.0
C      1  0.5346300000000  0.4169630000000  0.5157200000000 1.0
C      1  0.4850110000000  0.4184330000000  0.5348540000000 1.0
C      1  0.4663050000000  0.4888230000000  0.5121600000000 1.0
C      1  0.5106630000000  0.5092780000000  0.5202380000000 1.0
C      1  0.5193130000000  0.5169220000000  0.4942680000000 1.0
C      1  0.4883600000000  0.4922010000000  0.4687670000000 1.0
C      1  0.5259160000000  0.4906480000000  0.5033780000000 1.0
C      1  0.4855330000000  0.5015720000000  0.5273440000000 1.0
C      1  0.4670840000000  0.4854010000000  0.4856080000000 1.0
C      1  0.5016680000000  0.5159610000000  0.4734400000000 1.0
C      1  0.5166790000000  0.5606570000000  0.5373860000000 1.0
C      1  0.5363380000000  0.5594240000000  0.4860630000000 1.0
C      1  0.4846680000000  0.5596700000000  0.4624180000000 1.0
C      1  0.4653780000000  0.5566760000000  0.5152700000000 1.0
C      1  0.4864810000000  0.5609720000000  0.5371170000000 1.0
C      1  0.4643600000000  0.5558790000000  0.4858830000000 1.0
C      1  0.5148090000000  0.5583440000000  0.4631870000000 1.0
C      1  0.5382820000000  0.5609730000000  0.5160290000000 1.0
END
