TITL C-19931-9405-8 -63.4786710968181 125000 -415.643574994739 0 0 63 (Cs) n - 1
REM
REM in /rds/project/t2_vol4/rds-t2-cs072/BORA/CARBON/from-Arr/AIRSS/Generating-Clusters/GAP-ML-2020/Higher-Symm/SD-CG/HFTN-CG
REM
REM
REM
REM
REM
REM ./C.cell (b20cbc046b6831c77cfcea5457e17084)
REM AIRSS Version 0.9.1 bugfix July 2018 build 013d7b7c2542+ Fri, 06 Jul 2018 19:26:36 +0100
REM compiler GCC version 9.3.0
REM options -cpp -mtune=generic -march=x86-64 -g -O0
REM seed 1221201773 -1419036302 2029969120 601201960 -1982681711 -1828721152 661277011 2044329193 -1249202760 1915216769 -489949219 365787353 925883406 287782306 -447055030 -66669988 2109237286 716332166 -37948774 846955687 -28237658 33380563 -740515549 1811333317 -468441464 -264315981 1505488039 1212406269 516913016 -181280062 1119298558 -1975455976 1720377209
REM
CELL 1.54180   50.00000   50.00000   50.00000   90.00000   90.00000   90.00000
LATT -1
SFAC C  
C      1  0.5372580000000  0.4625010000000  0.5359930000000 1.0
C      1  0.4962920000000  0.4705500000000  0.5577740000000 1.0
C      1  0.4730880000000  0.4487900000000  0.5183080000000 1.0
C      1  0.4472170000000  0.4647640000000  0.4848390000000 1.0
C      1  0.4839510000000  0.4651540000000  0.4472200000000 1.0
C      1  0.5181920000000  0.4492690000000  0.4721190000000 1.0
C      1  0.5579710000000  0.4712060000000  0.4946100000000 1.0
C      1  0.4906320000000  0.4855940000000  0.5809320000000 1.0
C      1  0.4470430000000  0.4863380000000  0.5331660000000 1.0
C      1  0.4243170000000  0.4782620000000  0.4758810000000 1.0
C      1  0.4743100000000  0.4787930000000  0.4246840000000 1.0
C      1  0.5320350000000  0.4872410000000  0.4461290000000 1.0
C      1  0.5808310000000  0.4865530000000  0.4885620000000 1.0
C      1  0.5541780000000  0.4799250000000  0.5526970000000 1.0
C      1  0.4934730000000  0.5166340000000  0.5541730000000 1.0
C      1  0.4450680000000  0.5252520000000  0.5335430000000 1.0
C      1  0.4482640000000  0.5117740000000  0.4833790000000 1.0
C      1  0.4820290000000  0.5121330000000  0.4488010000000 1.0
C      1  0.5319610000000  0.5261750000000  0.4445590000000 1.0
C      1  0.5538260000000  0.5172760000000  0.4923660000000 1.0
C      1  0.5383990000000  0.5148260000000  0.5376500000000 1.0
C      1  0.5501710000000  0.4499230000000  0.5114530000000 1.0
C      1  0.5131640000000  0.4495290000000  0.5493500000000 1.0
C      1  0.4908070000000  0.4396170000000  0.5373470000000 1.0
C      1  0.4609000000000  0.4402880000000  0.4929220000000 1.0
C      1  0.4735910000000  0.4249120000000  0.4734320000000 1.0
C      1  0.4926110000000  0.4406250000000  0.4604470000000 1.0
C      1  0.5377420000000  0.4401160000000  0.4892830000000 1.0
C      1  0.4876180000000  0.5345210000000  0.4673500000000 1.0
C      1  0.5178570000000  0.5370750000000  0.4686100000000 1.0
C      1  0.5332940000000  0.5375820000000  0.4945830000000 1.0
C      1  0.5226300000000  0.5354810000000  0.5224660000000 1.0
C      1  0.4949890000000  0.5371750000000  0.5338100000000 1.0
C      1  0.4686620000000  0.5365520000000  0.5189900000000 1.0
C      1  0.4667080000000  0.5342990000000  0.4887640000000 1.0
C      1  0.4676790000000  0.4866070000000  0.4896150000000 1.0
C      1  0.4889870000000  0.4868330000000  0.4677940000000 1.0
C      1  0.5177900000000  0.4797920000000  0.4719330000000 1.0
C      1  0.5341390000000  0.4903930000000  0.4949260000000 1.0
C      1  0.5229520000000  0.4884420000000  0.5222930000000 1.0
C      1  0.4958410000000  0.4899860000000  0.5341460000000 1.0
C      1  0.4725760000000  0.4793120000000  0.5182360000000 1.0
C      1  0.4866190000000  0.5655950000000  0.4680570000000 1.0
C      1  0.5143390000000  0.5681260000000  0.4723020000000 1.0
C      1  0.5303740000000  0.5682870000000  0.4955860000000 1.0
C      1  0.5223260000000  0.5671400000000  0.5224980000000 1.0
C      1  0.4956030000000  0.5679180000000  0.5311940000000 1.0
C      1  0.4719460000000  0.5676750000000  0.5157150000000 1.0
C      1  0.4670680000000  0.5653870000000  0.4880780000000 1.0
C      1  0.5127800000000  0.5049400000000  0.5752890000000 1.0
C      1  0.4507670000000  0.5053210000000  0.5550110000000 1.0
C      1  0.4217130000000  0.5026990000000  0.4938330000000 1.0
C      1  0.4560090000000  0.4980080000000  0.4387720000000 1.0
C      1  0.5168040000000  0.5058670000000  0.4297690000000 1.0
C      1  0.5707410000000  0.5076480000000  0.4696860000000 1.0
C      1  0.5650350000000  0.5014020000000  0.5348860000000 1.0
C      1  0.4919410000000  0.5034450000000  0.4219140000000 1.0
C      1  0.5537640000000  0.5064150000000  0.4495350000000 1.0
C      1  0.5755170000000  0.5056060000000  0.5110420000000 1.0
C      1  0.5364100000000  0.5010980000000  0.5642000000000 1.0
C      1  0.4713030000000  0.5065920000000  0.5715180000000 1.0
C      1  0.4301320000000  0.5049460000000  0.5185270000000 1.0
C      1  0.4377650000000  0.4978150000000  0.4574560000000 1.0
END
