TITL C-19931-24-3 -13.1280541322143 125000 -274.396748476007 0 0 41 (D3) n - 1
REM
REM in /rds/project/t2_vol4/rds-t2-cs072/BORA/CARBON/from-Arr/AIRSS/Generating-Clusters/GAP-ML-2020/Higher-Symm/SD-CG/HFTN-CG
REM
REM
REM
REM
REM
REM ./C.cell (b20cbc046b6831c77cfcea5457e17084)
REM AIRSS Version 0.9.1 bugfix July 2018 build 013d7b7c2542+ Fri, 06 Jul 2018 19:26:36 +0100
REM compiler GCC version 9.3.0
REM options -cpp -mtune=generic -march=x86-64 -g -O0
REM seed -1156923791 -1016353199 1642571949 1495913918 1579429646 -747825092 81632426 826008555 1078493404 -1249394558 356405735 -2131675499 -1659507054 305863383 -303563081 746568550 785751350 -1675371890 1834109358 -517620828 -1398067525 1574615698 2082509735 -1811375442 -1979769539 -1669785448 1580291289 120615703 -1872994551 -1019000537 -2078487167 1941039786 323053009
REM
CELL 1.54180   50.00000   50.00000   50.00000   90.00000   90.00000   90.00000
LATT -1
SFAC C  
C      1  0.5204610000000  0.5643200000000  0.5146880000000 1.0
C      1  0.5204720000000  0.4551040000000  0.5468650000000 1.0
C      1  0.5204480000000  0.4818470000000  0.4361930000000 1.0
C      1  0.4772510000000  0.4365270000000  0.5147040000000 1.0
C      1  0.4772530000000  0.5457460000000  0.5468690000000 1.0
C      1  0.4772310000000  0.5189930000000  0.4362000000000 1.0
C      1  0.4527970000000  0.4506400000000  0.5087710000000 1.0
C      1  0.4527820000000  0.5170770000000  0.4513960000000 1.0
C      1  0.4527990000000  0.5335460000000  0.5376200000000 1.0
C      1  0.5449130000000  0.5502070000000  0.5087470000000 1.0
C      1  0.5449030000000  0.4837640000000  0.4513790000000 1.0
C      1  0.5449220000000  0.4673030000000  0.5376040000000 1.0
C      1  0.4847680000000  0.4976790000000  0.5522740000000 1.0
C      1  0.4847530000000  0.4558790000000  0.4703720000000 1.0
C      1  0.4847500000000  0.5477080000000  0.4751220000000 1.0
C      1  0.5129600000000  0.5031720000000  0.5522680000000 1.0
C      1  0.5129410000000  0.5449640000000  0.4703610000000 1.0
C      1  0.5129460000000  0.4531350000000  0.4751210000000 1.0
C      1  0.5290030000000  0.4610140000000  0.4530470000000 1.0
C      1  0.5290070000000  0.5601390000000  0.4882170000000 1.0
C      1  0.5290240000000  0.4801190000000  0.5564770000000 1.0
C      1  0.4686830000000  0.5398270000000  0.4530560000000 1.0
C      1  0.4686940000000  0.4407060000000  0.4882350000000 1.0
C      1  0.4687050000000  0.5207320000000  0.5564870000000 1.0
C      1  0.4558440000000  0.4785410000000  0.5170200000000 1.0
C      1  0.4558340000000  0.4959820000000  0.4714340000000 1.0
C      1  0.4558400000000  0.5267400000000  0.5093310000000 1.0
C      1  0.5418690000000  0.5223060000000  0.5170000000000 1.0
C      1  0.5418600000000  0.5048610000000  0.4714160000000 1.0
C      1  0.5418700000000  0.4741070000000  0.5093160000000 1.0
C      1  0.4785050000000  0.4778880000000  0.5337810000000 1.0
C      1  0.4784900000000  0.4817910000000  0.4624800000000 1.0
C      1  0.4784960000000  0.5415870000000  0.5015110000000 1.0
C      1  0.5192150000000  0.5229610000000  0.5337700000000 1.0
C      1  0.5192000000000  0.5190510000000  0.4624700000000 1.0
C      1  0.5192110000000  0.4592580000000  0.5015060000000 1.0
C      1  0.4988600000000  0.4567330000000  0.5244800000000 1.0
C      1  0.4988560000000  0.5441150000000  0.5244760000000 1.0
C      1  0.4988420000000  0.5004200000000  0.4488030000000 1.0
C      1  0.4501500000000  0.5004210000000  0.4992630000000 1.0
C      1  0.5475550000000  0.5004250000000  0.4992430000000 1.0
END
