TITL C-19919-9948-6 -0.0189869679400409 125000 -489.063862763367 0 0 69 (C3) n - 1
REM
REM in /rds/project/t2_vol4/rds-t2-cs072/BORA/CARBON/from-Arr/AIRSS/Generating-Clusters/GAP-ML-2020/Higher-Symm/SD-CG/HFTN-CG
REM
REM
REM
REM
REM
REM ./C.cell (b20cbc046b6831c77cfcea5457e17084)
REM AIRSS Version 0.9.1 bugfix July 2018 build 013d7b7c2542+ Fri, 06 Jul 2018 19:26:36 +0100
REM compiler GCC version 9.3.0
REM options -cpp -mtune=generic -march=x86-64 -g -O0
REM seed 1770176219 556443951 -1327630776 -1751611004 -1343788997 -169912913 -1482922924 -1524382527 -1186696276 1700575126 1963757750 -1768953648 -1985867251 539496873 -1510835632 -1604835083 1381070467 -1456800771 -1037745852 -700458155 1372584647 1761352701 929006696 -101744080 1195943222 531522030 -2055293591 1420937061 -1209245556 45399886 1638871472 -1125787578 -3157474
REM
CELL 1.54180   50.00000   50.00000   50.00000   90.00000   90.00000   90.00000
LATT -1
SFAC C  
C      1  0.5184150000000  0.5615630000000  0.4705360000000 1.0
C      1  0.5441690000000  0.4532520000000  0.4706580000000 1.0
C      1  0.4374930000000  0.4851040000000  0.4705360000000 1.0
C      1  0.4721950000000  0.4364440000000  0.4897720000000 1.0
C      1  0.4588830000000  0.5558510000000  0.4896500000000 1.0
C      1  0.5689480000000  0.5076760000000  0.4897910000000 1.0
C      1  0.4675710000000  0.5540330000000  0.4631660000000 1.0
C      1  0.5630860000000  0.5010450000000  0.4632980000000 1.0
C      1  0.4694390000000  0.4448200000000  0.4632680000000 1.0
C      1  0.4788810000000  0.5118810000000  0.4876670000000 1.0
C      1  0.5208750000000  0.5123420000000  0.4877040000000 1.0
C      1  0.5002770000000  0.4757430000000  0.4877190000000 1.0
C      1  0.5250240000000  0.5451250000000  0.5570660000000 1.0
C      1  0.5264470000000  0.4558020000000  0.5571490000000 1.0
C      1  0.4483800000000  0.4992310000000  0.5570410000000 1.0
C      1  0.4540740000000  0.5301910000000  0.4526500000000 1.0
C      1  0.5492090000000  0.5246480000000  0.4527390000000 1.0
C      1  0.4968410000000  0.4450300000000  0.4527660000000 1.0
C      1  0.5268090000000  0.5665180000000  0.5172590000000 1.0
C      1  0.5441650000000  0.4435350000000  0.5173880000000 1.0
C      1  0.4289810000000  0.4899950000000  0.5172440000000 1.0
C      1  0.5026110000000  0.4295950000000  0.4934280000000 1.0
C      1  0.4377360000000  0.5329370000000  0.4932760000000 1.0
C      1  0.5596710000000  0.5374490000000  0.4933780000000 1.0
C      1  0.4330820000000  0.5188100000000  0.5177070000000 1.0
C      1  0.5497110000000  0.5485590000000  0.5177810000000 1.0
C      1  0.5171600000000  0.4326810000000  0.5178600000000 1.0
C      1  0.5562940000000  0.4576450000000  0.4961780000000 1.0
C      1  0.4351810000000  0.4724230000000  0.4960590000000 1.0
C      1  0.5085360000000  0.5699210000000  0.4960330000000 1.0
C      1  0.4397460000000  0.4782440000000  0.5408790000000 1.0
C      1  0.5111990000000  0.5630850000000  0.5408630000000 1.0
C      1  0.5489470000000  0.4587840000000  0.5409920000000 1.0
C      1  0.5604240000000  0.4842420000000  0.5353830000000 1.0
C      1  0.4560670000000  0.4555720000000  0.5353190000000 1.0
C      1  0.4834170000000  0.5602830000000  0.5352460000000 1.0
C      1  0.5456740000000  0.5474250000000  0.4697010000000 1.0
C      1  0.5182980000000  0.4367130000000  0.4697790000000 1.0
C      1  0.4361070000000  0.5157780000000  0.4696340000000 1.0
C      1  0.5003390000000  0.4731450000000  0.4541600000000 1.0
C      1  0.4766700000000  0.5131050000000  0.4541020000000 1.0
C      1  0.5231110000000  0.5136230000000  0.4541420000000 1.0
C      1  0.5499660000000  0.5061290000000  0.5510570000000 1.0
C      1  0.4802170000000  0.4536960000000  0.5510450000000 1.0
C      1  0.4696830000000  0.5403170000000  0.5509550000000 1.0
C      1  0.5001340000000  0.5275820000000  0.4430200000000 1.0
C      1  0.5239400000000  0.4860570000000  0.4430790000000 1.0
C      1  0.4760750000000  0.4862030000000  0.4430380000000 1.0
C      1  0.5231790000000  0.4868490000000  0.4979440000000 1.0
C      1  0.4770250000000  0.4865010000000  0.4979040000000 1.0
C      1  0.4998010000000  0.5266450000000  0.4978870000000 1.0
C      1  0.4958760000000  0.5535230000000  0.4551780000000 1.0
C      1  0.5485090000000  0.4767820000000  0.4552950000000 1.0
C      1  0.4557330000000  0.4695710000000  0.4552210000000 1.0
C      1  0.4532570000000  0.4500630000000  0.5069390000000 1.0
C      1  0.4801100000000  0.5654530000000  0.5068560000000 1.0
C      1  0.5666140000000  0.4845030000000  0.5070070000000 1.0
C      1  0.5474030000000  0.5339660000000  0.5429070000000 1.0
C      1  0.5056240000000  0.4419920000000  0.5429550000000 1.0
C      1  0.4468620000000  0.5241610000000  0.5428280000000 1.0
C      1  0.5122420000000  0.5252360000000  0.5723510000000 1.0
C      1  0.5155810000000  0.4768260000000  0.5723980000000 1.0
C      1  0.4719880000000  0.4981390000000  0.5723410000000 1.0
C      1  0.5135180000000  0.4912730000000  0.4142620000000 1.0
C      1  0.4858640000000  0.4926020000000  0.4142370000000 1.0
C      1  0.5008420000000  0.5158870000000  0.4142290000000 1.0
C      1  0.5285780000000  0.5014960000000  0.5707240000000 1.0
C      1  0.4868580000000  0.4745470000000  0.5707130000000 1.0
C      1  0.4843790000000  0.5241530000000  0.5706650000000 1.0
END
