TITL C-19534-9319-3 -52.3589386993056 125000 -310.433787491303 0 0 48 (C1) n - 1
REM
REM in /rds/project/t2_vol4/rds-t2-cs072/BORA/CARBON/from-Arr/AIRSS/Generating-Clusters/GAP-ML-2020/Higher-Symm/SD-CG/HFTN-CG
REM
REM
REM
REM
REM
REM ./C.cell (b20cbc046b6831c77cfcea5457e17084)
REM AIRSS Version 0.9.1 bugfix July 2018 build 013d7b7c2542+ Fri, 06 Jul 2018 19:26:36 +0100
REM compiler GCC version 9.3.0
REM options -cpp -mtune=generic -march=x86-64 -g -O0
REM seed 680037741 1565188186 -1168509386 716007437 1436397387 1667279499 -1912678536 1794870059 1324179656 969666195 -405362047 -366936422 -836204573 -875181650 -1484488541 1631669635 1998175847 34637638 1086075867 -2093865885 127668856 23031339 2043840004 -1226577051 1147119484 513693233 -39500924 -1015518258 2007556323 -620353335 5680852 -1745072432 1406770144
REM
CELL 1.54180   50.00000   50.00000   50.00000   90.00000   90.00000   90.00000
LATT -1
SFAC C  
C      1  0.5305840000000  0.4581240000000  0.5137590000000 1.0
C      1  0.5085730000000  0.4573130000000  0.5326800000000 1.0
C      1  0.4799990000000  0.4531330000000  0.5308040000000 1.0
C      1  0.4636170000000  0.4488270000000  0.5087170000000 1.0
C      1  0.4661960000000  0.4490420000000  0.4797870000000 1.0
C      1  0.4863580000000  0.4513250000000  0.4608100000000 1.0
C      1  0.5148910000000  0.4538410000000  0.4630020000000 1.0
C      1  0.5334470000000  0.4561950000000  0.4848700000000 1.0
C      1  0.5197960000000  0.4893200000000  0.5690770000000 1.0
C      1  0.4667680000000  0.4861870000000  0.5622040000000 1.0
C      1  0.4321550000000  0.4839950000000  0.5204590000000 1.0
C      1  0.4375510000000  0.4859900000000  0.4655980000000 1.0
C      1  0.4785390000000  0.4868000000000  0.4325680000000 1.0
C      1  0.5326610000000  0.4880100000000  0.4375000000000 1.0
C      1  0.5676020000000  0.4893060000000  0.4795570000000 1.0
C      1  0.5635790000000  0.4901680000000  0.5327700000000 1.0
C      1  0.4831900000000  0.5261690000000  0.5377740000000 1.0
C      1  0.4651130000000  0.5223240000000  0.5136990000000 1.0
C      1  0.4685320000000  0.5221650000000  0.4836530000000 1.0
C      1  0.4916370000000  0.5239420000000  0.4645730000000 1.0
C      1  0.5215460000000  0.5261700000000  0.4683230000000 1.0
C      1  0.5408220000000  0.5289490000000  0.4916510000000 1.0
C      1  0.5365870000000  0.5305660000000  0.5205940000000 1.0
C      1  0.5121430000000  0.5295960000000  0.5404620000000 1.0
C      1  0.4666840000000  0.4613810000000  0.5552670000000 1.0
C      1  0.4363580000000  0.4603330000000  0.5069540000000 1.0
C      1  0.4392630000000  0.4611050000000  0.4774060000000 1.0
C      1  0.4769120000000  0.4608900000000  0.4347670000000 1.0
C      1  0.5264800000000  0.4627950000000  0.4377940000000 1.0
C      1  0.5603560000000  0.4646750000000  0.4780130000000 1.0
C      1  0.5543360000000  0.4680870000000  0.5255670000000 1.0
C      1  0.5155610000000  0.4673930000000  0.5579910000000 1.0
C      1  0.4459930000000  0.5089810000000  0.4709380000000 1.0
C      1  0.4839280000000  0.5106270000000  0.4394660000000 1.0
C      1  0.5340210000000  0.5120020000000  0.4460180000000 1.0
C      1  0.5653850000000  0.5145320000000  0.4842540000000 1.0
C      1  0.5514930000000  0.5143030000000  0.5403770000000 1.0
C      1  0.5289410000000  0.5137510000000  0.5588540000000 1.0
C      1  0.4707240000000  0.5113870000000  0.5600420000000 1.0
C      1  0.4414180000000  0.5072760000000  0.5204920000000 1.0
C      1  0.4690950000000  0.5543250000000  0.4843330000000 1.0
C      1  0.4902510000000  0.5556740000000  0.4669920000000 1.0
C      1  0.5176240000000  0.5578420000000  0.4696290000000 1.0
C      1  0.5348650000000  0.5606860000000  0.4909650000000 1.0
C      1  0.5317550000000  0.5611550000000  0.5187330000000 1.0
C      1  0.5096740000000  0.5602500000000  0.5363160000000 1.0
C      1  0.4820960000000  0.5579530000000  0.5325630000000 1.0
C      1  0.4649010000000  0.5551430000000  0.5113790000000 1.0
END
