TITL C-19939-237-5 -0.0495793012567293 125000 -123.941115284472 0 0 20 (C4h) n - 1
REM
REM in /rds/project/t2_vol4/rds-t2-cs072/BORA/CARBON/from-Arr/AIRSS/Generating-Clusters/GAP-ML-2020/Higher-Symm/SD-CG/HFTN-CG
REM
REM
REM
REM
REM
REM ./C.cell (b20cbc046b6831c77cfcea5457e17084)
REM AIRSS Version 0.9.1 bugfix July 2018 build 013d7b7c2542+ Fri, 06 Jul 2018 19:26:36 +0100
REM compiler GCC version 9.3.0
REM options -cpp -mtune=generic -march=x86-64 -g -O0
REM seed 1354858599 1446030349 878982913 -288100066 -369252726 833276775 -1706956556 -1888607068 314532458 1763518048 953668983 -1768009190 2130662540 -799258757 126603756 1307626518 -1600404392 710472444 -464084286 -1844603476 -1546594816 812770259 -248597850 1954159870 216209989 1371832576 150577044 -474686952 -1307202045 -952039235 -1364453593 -836142702 1611329430
REM
CELL 1.54180   50.00000   50.00000   50.00000   90.00000   90.00000   90.00000
LATT -1
SFAC C  
C      1  0.5066660000000  0.4428900000000  0.5068060000000 1.0
C      1  0.5573920000000  0.5062270000000  0.4961290000000 1.0
C      1  0.5136000000000  0.5710730000000  0.4907540000000 1.0
C      1  0.4284220000000  0.5140220000000  0.5026620000000 1.0
C      1  0.4864000000000  0.4289270000000  0.5096860000000 1.0
C      1  0.4426080000000  0.4937730000000  0.5043110000000 1.0
C      1  0.4933340000000  0.5571100000000  0.4936350000000 1.0
C      1  0.5715780000000  0.4859780000000  0.4977780000000 1.0
C      1  0.5090930000000  0.4797350000000  0.4777920000000 1.0
C      1  0.5159800000000  0.5073790000000  0.4740170000000 1.0
C      1  0.4881280000000  0.5144200000000  0.4747740000000 1.0
C      1  0.4812420000000  0.4867760000000  0.4785480000000 1.0
C      1  0.4840200000000  0.4926210000000  0.5264230000000 1.0
C      1  0.4909070000000  0.5202650000000  0.5226480000000 1.0
C      1  0.5187580000000  0.5132240000000  0.5218920000000 1.0
C      1  0.5118720000000  0.4855800000000  0.5256660000000 1.0
C      1  0.5170260000000  0.4676090000000  0.5031870000000 1.0
C      1  0.5324580000000  0.5167020000000  0.4962970000000 1.0
C      1  0.4829740000000  0.5323910000000  0.4972540000000 1.0
C      1  0.4675420000000  0.4832980000000  0.5041430000000 1.0
END
