TITL C-199748-9568-7 -0.122697691901494 125000 -82.0401739036694 0 0 13 (Cs) n - 1
REM
REM in /rds/project/t2_vol4/rds-t2-cs072/BORA/CARBON/from-Arr/AIRSS/Generating-Clusters/GAP-ML-2020/Higher-Symm/SD-CG/HFTN-CG
REM
REM
REM
REM
REM
REM ./C.cell (b20cbc046b6831c77cfcea5457e17084)
REM AIRSS Version 0.9.1 bugfix July 2018 build 013d7b7c2542+ Fri, 06 Jul 2018 19:26:36 +0100
REM compiler GCC version 9.3.0
REM options -cpp -mtune=generic -march=x86-64 -g -O0
REM seed -694255556 -243907358 -146060793 -1958720209 1998770076 -1883596417 274998926 1407321425 -849401284 685227418 986032862 -685115660 609829514 2027472641 -2125873592 -1636384299 2139293281 -1545911403 -1444758706 -718782309 -1719467195 1033528994 -444352343 -1807771817 -1004890640 -623794511 1845136791 445262313 -2048409407 1705647164 529825286 -373863127 1739642153
REM
CELL 1.54180   50.00000   50.00000   50.00000   90.00000   90.00000   90.00000
LATT -1
SFAC C  
C      1  0.4786680000000  0.4546330000000  0.5002880000000 1.0
C      1  0.4868170000000  0.4811140000000  0.5436860000000 1.0
C      1  0.4872630000000  0.5313600000000  0.5323840000000 1.0
C      1  0.4793970000000  0.5368430000000  0.4817960000000 1.0
C      1  0.4764210000000  0.4893300000000  0.4624500000000 1.0
C      1  0.4890740000000  0.4726650000000  0.4824970000000 1.0
C      1  0.4829190000000  0.4649210000000  0.5239170000000 1.0
C      1  0.4869460000000  0.5068210000000  0.5406280000000 1.0
C      1  0.4835640000000  0.5375920000000  0.5075710000000 1.0
C      1  0.4894300000000  0.5127570000000  0.4734790000000 1.0
C      1  0.5086160000000  0.4951580000000  0.4896280000000 1.0
C      1  0.5348950000000  0.4960030000000  0.4944250000000 1.0
C      1  0.5580220000000  0.4980260000000  0.5043310000000 1.0
END
