TITL C-19935-57-8 38.6017688933103 125000 -1022.41408146175 0 0 145 (C5) n - 1
REM
REM in /rds/project/t2_vol4/rds-t2-cs072/BORA/CARBON/from-Arr/AIRSS/Generating-Clusters/GAP-ML-2020/Higher-Symm/SD-CG/HFTN-CG
REM
REM
REM
REM
REM
REM ./C.cell (b20cbc046b6831c77cfcea5457e17084)
REM AIRSS Version 0.9.1 bugfix July 2018 build 013d7b7c2542+ Fri, 06 Jul 2018 19:26:36 +0100
REM compiler GCC version 9.3.0
REM options -cpp -mtune=generic -march=x86-64 -g -O0
REM seed 1875893500 1294888461 794806407 791300401 20858560 -377845289 -128612587 1019486886 721423560 -1931491650 -1854777625 88892152 -740428078 -1715409827 86103834 1765961338 -1170206876 -1610519234 -1675539692 -1909214229 180752054 -1460827980 -525756596 134843484 -420006337 -921524837 1673240041 756611260 -511178903 -1025353263 -695328508 -136302253 -1056100792
REM
CELL 1.54180   50.00000   50.00000   50.00000   90.00000   90.00000   90.00000
LATT -1
SFAC C  
C      1  0.5691130000000  0.5320570000000  0.5375250000000 1.0
C      1  0.4856660000000  0.5320740000000  0.5773190000000 1.0
C      1  0.4220320000000  0.5320680000000  0.5102520000000 1.0
C      1  0.4661530000000  0.5320480000000  0.4290090000000 1.0
C      1  0.5570540000000  0.5320410000000  0.4458640000000 1.0
C      1  0.5041300000000  0.5726630000000  0.4744670000000 1.0
C      1  0.5255530000000  0.5726650000000  0.4960210000000 1.0
C      1  0.5116730000000  0.5726720000000  0.5230550000000 1.0
C      1  0.4816730000000  0.5726740000000  0.5182090000000 1.0
C      1  0.4770120000000  0.5726690000000  0.4881800000000 1.0
C      1  0.4798400000000  0.5338120000000  0.4602960000000 1.0
C      1  0.5315270000000  0.5338080000000  0.4685500000000 1.0
C      1  0.5396500000000  0.5338170000000  0.5202570000000 1.0
C      1  0.4929830000000  0.5338270000000  0.5439610000000 1.0
C      1  0.4560190000000  0.5338240000000  0.5069030000000 1.0
C      1  0.4847000000000  0.4175560000000  0.5425380000000 1.0
C      1  0.4548250000000  0.4175510000000  0.4986140000000 1.0
C      1  0.4873670000000  0.4175400000000  0.4566270000000 1.0
C      1  0.5373550000000  0.4175380000000  0.4746020000000 1.0
C      1  0.5357070000000  0.4175480000000  0.5276980000000 1.0
C      1  0.5323300000000  0.4259220000000  0.5565350000000 1.0
C      1  0.4562300000000  0.4259290000000  0.5482350000000 1.0
C      1  0.4406070000000  0.4259160000000  0.4732960000000 1.0
C      1  0.5070520000000  0.4259010000000  0.4352800000000 1.0
C      1  0.5637390000000  0.4259050000000  0.4867250000000 1.0
C      1  0.5146330000000  0.5116940000000  0.4787030000000 1.0
C      1  0.5247750000000  0.5116980000000  0.5073330000000 1.0
C      1  0.5006800000000  0.5117040000000  0.5258260000000 1.0
C      1  0.4756470000000  0.5117040000000  0.5086250000000 1.0
C      1  0.4842710000000  0.5116970000000  0.4795020000000 1.0
C      1  0.5948060000000  0.4787890000000  0.4989540000000 1.0
C      1  0.5302940000000  0.4788140000000  0.5898480000000 1.0
C      1  0.4239130000000  0.4788190000000  0.5565810000000 1.0
C      1  0.4226790000000  0.4787980000000  0.4451260000000 1.0
C      1  0.5282970000000  0.4787800000000  0.4095110000000 1.0
C      1  0.4988930000000  0.5131370000000  0.5949030000000 1.0
C      1  0.4093990000000  0.5131340000000  0.5282700000000 1.0
C      1  0.4451150000000  0.5131100000000  0.4225660000000 1.0
C      1  0.5566820000000  0.5130980000000  0.4238690000000 1.0
C      1  0.5899190000000  0.5131140000000  0.5303790000000 1.0
C      1  0.5141550000000  0.5287680000000  0.4123880000000 1.0
C      1  0.5876950000000  0.5287730000000  0.4863810000000 1.0
C      1  0.5400480000000  0.5287960000000  0.5791880000000 1.0
C      1  0.4370610000000  0.5288050000000  0.5625520000000 1.0
C      1  0.4210570000000  0.5287870000000  0.4594640000000 1.0
C      1  0.4843820000000  0.4890690000000  0.5977290000000 1.0
C      1  0.4022300000000  0.4890630000000  0.5153490000000 1.0
C      1  0.4551910000000  0.4890370000000  0.4117610000000 1.0
C      1  0.5700750000000  0.4890270000000  0.4301190000000 1.0
C      1  0.5881160000000  0.4890470000000  0.5450530000000 1.0
C      1  0.4916030000000  0.3974590000000  0.5227850000000 1.0
C      1  0.4757460000000  0.3974570000000  0.4990800000000 1.0
C      1  0.4933910000000  0.3974500000000  0.4766730000000 1.0
C      1  0.5201530000000  0.3974490000000  0.4865310000000 1.0
C      1  0.5190480000000  0.3974550000000  0.5150290000000 1.0
C      1  0.4895210000000  0.4456040000000  0.5229130000000 1.0
C      1  0.4749760000000  0.4456010000000  0.4971270000000 1.0
C      1  0.4950050000000  0.4455940000000  0.4753260000000 1.0
C      1  0.5219290000000  0.4455930000000  0.4876380000000 1.0
C      1  0.5185390000000  0.4455990000000  0.5170480000000 1.0
C      1  0.4775390000000  0.6043320000000  0.4560800000000 1.0
C      1  0.5348190000000  0.6043280000000  0.4650410000000 1.0
C      1  0.5439970000000  0.6043370000000  0.5222870000000 1.0
C      1  0.4923890000000  0.6043480000000  0.5487050000000 1.0
C      1  0.4513160000000  0.6043450000000  0.5077880000000 1.0
C      1  0.5014850000000  0.4678900000000  0.5872790000000 1.0
C      1  0.4174550000000  0.4678880000000  0.5283910000000 1.0
C      1  0.4474950000000  0.4678660000000  0.4302760000000 1.0
C      1  0.5500900000000  0.4678540000000  0.4285260000000 1.0
C      1  0.5834570000000  0.4678690000000  0.5255590000000 1.0
C      1  0.5040700000000  0.4245890000000  0.5641000000000 1.0
C      1  0.4403030000000  0.4245880000000  0.5236970000000 1.0
C      1  0.4590230000000  0.4245720000000  0.4505660000000 1.0
C      1  0.5343600000000  0.4245630000000  0.4457710000000 1.0
C      1  0.5622010000000  0.4245730000000  0.5159390000000 1.0
C      1  0.5621990000000  0.5200570000000  0.5644220000000 1.0
C      1  0.4579490000000  0.5200720000000  0.5790570000000 1.0
C      1  0.4118160000000  0.5200590000000  0.4844330000000 1.0
C      1  0.4875530000000  0.5200370000000  0.4113160000000 1.0
C      1  0.5804950000000  0.5200350000000  0.4607530000000 1.0
C      1  0.4909420000000  0.4440080000000  0.4184300000000 1.0
C      1  0.5747840000000  0.4440080000000  0.4661920000000 1.0
C      1  0.5552690000000  0.4440280000000  0.5606900000000 1.0
C      1  0.4593650000000  0.4440410000000  0.5713320000000 1.0
C      1  0.4196080000000  0.4440290000000  0.4834100000000 1.0
C      1  0.5002020000000  0.5612770000000  0.5781990000000 1.0
C      1  0.4256840000000  0.5612750000000  0.5243420000000 1.0
C      1  0.4538780000000  0.5612560000000  0.4368290000000 1.0
C      1  0.5458200000000  0.5612450000000  0.4366000000000 1.0
C      1  0.5744500000000  0.5612590000000  0.5239720000000 1.0
C      1  0.5121190000000  0.4896690000000  0.5410690000000 1.0
C      1  0.4646870000000  0.4896710000000  0.5242190000000 1.0
C      1  0.4660550000000  0.4896610000000  0.4739020000000 1.0
C      1  0.5143320000000  0.4896530000000  0.4596550000000 1.0
C      1  0.5428010000000  0.4896580000000  0.5011660000000 1.0
C      1  0.5332270000000  0.5073630000000  0.4096600000000 1.0
C      1  0.5961850000000  0.5073740000000  0.5036820000000 1.0
C      1  0.5262200000000  0.5073980000000  0.5926140000000 1.0
C      1  0.4200210000000  0.5074030000000  0.5535540000000 1.0
C      1  0.4243510000000  0.5073810000000  0.4404830000000 1.0
C      1  0.4421290000000  0.4784800000000  0.5134740000000 1.0
C      1  0.4693050000000  0.4784650000000  0.4491300000000 1.0
C      1  0.5388970000000  0.4784580000000  0.4550930000000 1.0
C      1  0.5547310000000  0.4784690000000  0.5231210000000 1.0
C      1  0.4949260000000  0.4784830000000  0.5592020000000 1.0
C      1  0.5069880000000  0.5488550000000  0.4562800000000 1.0
C      1  0.5437350000000  0.5488580000000  0.4931240000000 1.0
C      1  0.5200500000000  0.5488690000000  0.5394570000000 1.0
C      1  0.4686640000000  0.5488740000000  0.5312500000000 1.0
C      1  0.4605920000000  0.5488650000000  0.4798430000000 1.0
C      1  0.5297070000000  0.4696150000000  0.5304750000000 1.0
C      1  0.4802000000000  0.4696220000000  0.5376770000000 1.0
C      1  0.4580510000000  0.4696160000000  0.4928190000000 1.0
C      1  0.4938700000000  0.4696050000000  0.4578920000000 1.0
C      1  0.5381550000000  0.4696050000000  0.4811650000000 1.0
C      1  0.5184000000000  0.5981870000000  0.5360760000000 1.0
C      1  0.4713660000000  0.5981910000000  0.5286230000000 1.0
C      1  0.4639190000000  0.5981830000000  0.4815890000000 1.0
C      1  0.5063500000000  0.5981740000000  0.4599720000000 1.0
C      1  0.5400210000000  0.5981770000000  0.4936470000000 1.0
C      1  0.5568830000000  0.4419180000000  0.4416290000000 1.0
C      1  0.5730980000000  0.4419340000000  0.5360760000000 1.0
C      1  0.4882850000000  0.4419520000000  0.5806820000000 1.0
C      1  0.4196520000000  0.4419470000000  0.5138040000000 1.0
C      1  0.4620490000000  0.4419260000000  0.4278640000000 1.0
C      1  0.4334880000000  0.5842510000000  0.5136070000000 1.0
C      1  0.4664970000000  0.5842330000000  0.4409280000000 1.0
C      1  0.5458200000000  0.5842260000000  0.4498620000000 1.0
C      1  0.5618340000000  0.5842390000000  0.5280630000000 1.0
C      1  0.4924090000000  0.5842550000000  0.5674600000000 1.0
C      1  0.5731310000000  0.5509860000000  0.4959630000000 1.0
C      1  0.5264330000000  0.5510050000000  0.5682920000000 1.0
C      1  0.4432140000000  0.5510100000000  0.5462310000000 1.0
C      1  0.4384790000000  0.5509940000000  0.4602670000000 1.0
C      1  0.5187720000000  0.5509790000000  0.4292000000000 1.0
C      1  0.4117810000000  0.4697540000000  0.4702740000000 1.0
C      1  0.5010130000000  0.4697320000000  0.4069200000000 1.0
C      1  0.5888410000000  0.4697350000000  0.4722070000000 1.0
C      1  0.5538890000000  0.4697580000000  0.5759110000000 1.0
C      1  0.4444600000000  0.4697710000000  0.5747170000000 1.0
C      1  0.5704310000000  0.4922720000000  0.5667030000000 1.0
C      1  0.4583270000000  0.4922890000000  0.5875980000000 1.0
C      1  0.4038120000000  0.4922760000000  0.4874380000000 1.0
C      1  0.4822250000000  0.4922510000000  0.4046400000000 1.0
C      1  0.5852010000000  0.4922490000000  0.4536290000000 1.0
END
