TITL C-19937-9173-6 -64.7411666816961 125000 -311.908987819189 0 0 46 (Cs) n - 1
REM
REM in /rds/project/t2_vol4/rds-t2-cs072/BORA/CARBON/from-Arr/AIRSS/Generating-Clusters/GAP-ML-2020/Higher-Symm/SD-CG/HFTN-CG
REM
REM
REM
REM
REM
REM ./C.cell (b20cbc046b6831c77cfcea5457e17084)
REM AIRSS Version 0.9.1 bugfix July 2018 build 013d7b7c2542+ Fri, 06 Jul 2018 19:26:36 +0100
REM compiler GCC version 9.3.0
REM options -cpp -mtune=generic -march=x86-64 -g -O0
REM seed -871479705 1499733371 1851875630 -47756776 1895607739 1719218235 1566589482 329369161 -1056943144 -1570546723 -922299417 -1595416964 -1549590340 908910391 -2010433745 1535912019 490684213 1648495884 1525109984 -1732393023 -1681503131 1278950277 1677666161 247380869 1763444049 1957111265 1483465270 -2101616863 -1401166626 -295684574 1956539769 441099143 554098557
REM
CELL 1.54180   50.00000   50.00000   50.00000   90.00000   90.00000   90.00000
LATT -1
SFAC C  
C      1  0.5216170000000  0.4616620000000  0.5577620000000 1.0
C      1  0.5269680000000  0.5359340000000  0.4415150000000 1.0
C      1  0.5199280000000  0.4586630000000  0.4436670000000 1.0
C      1  0.5286580000000  0.5389340000000  0.5556450000000 1.0
C      1  0.5706210000000  0.4823380000000  0.5152470000000 1.0
C      1  0.5723970000000  0.5094950000000  0.4826970000000 1.0
C      1  0.5701530000000  0.4815060000000  0.4835710000000 1.0
C      1  0.5728690000000  0.5103330000000  0.5145830000000 1.0
C      1  0.4860620000000  0.5180380000000  0.5545310000000 1.0
C      1  0.4819880000000  0.4871400000000  0.4459470000000 1.0
C      1  0.4844400000000  0.5151580000000  0.4449850000000 1.0
C      1  0.4836040000000  0.4900090000000  0.5551130000000 1.0
C      1  0.4791300000000  0.5333080000000  0.4667270000000 1.0
C      1  0.4748430000000  0.4738090000000  0.5319150000000 1.0
C      1  0.4800970000000  0.5350250000000  0.5320320000000 1.0
C      1  0.4739290000000  0.4721870000000  0.4702130000000 1.0
C      1  0.4466190000000  0.4597140000000  0.4746560000000 1.0
C      1  0.4530050000000  0.5389030000000  0.5254030000000 1.0
C      1  0.4474230000000  0.4611410000000  0.5289440000000 1.0
C      1  0.4522440000000  0.5375500000000  0.4739420000000 1.0
C      1  0.4503050000000  0.4864140000000  0.4855630000000 1.0
C      1  0.4411530000000  0.5151680000000  0.5150400000000 1.0
C      1  0.4507640000000  0.4872290000000  0.5165450000000 1.0
C      1  0.4407210000000  0.5144020000000  0.4858820000000 1.0
C      1  0.5048650000000  0.4769610000000  0.4304890000000 1.0
C      1  0.5109080000000  0.5237090000000  0.5693680000000 1.0
C      1  0.5069360000000  0.4806380000000  0.5704010000000 1.0
C      1  0.5088320000000  0.5200230000000  0.4291420000000 1.0
C      1  0.5508230000000  0.5294140000000  0.4842600000000 1.0
C      1  0.5464830000000  0.4656010000000  0.5144410000000 1.0
C      1  0.5512420000000  0.5301590000000  0.5126150000000 1.0
C      1  0.5460610000000  0.4648520000000  0.4859670000000 1.0
C      1  0.4368550000000  0.4390310000000  0.4891360000000 1.0
C      1  0.4431430000000  0.5616450000000  0.5119900000000 1.0
C      1  0.4372510000000  0.4397330000000  0.5158650000000 1.0
C      1  0.4427650000000  0.5609730000000  0.4864270000000 1.0
C      1  0.4972290000000  0.4656640000000  0.4868020000000 1.0
C      1  0.5020260000000  0.5375420000000  0.5133780000000 1.0
C      1  0.4976460000000  0.4664050000000  0.5150100000000 1.0
C      1  0.5016000000000  0.5367840000000  0.4845670000000 1.0
C      1  0.5216820000000  0.4616430000000  0.4716500000000 1.0
C      1  0.5283140000000  0.5370850000000  0.5276180000000 1.0
C      1  0.5225410000000  0.4631660000000  0.5296220000000 1.0
C      1  0.5274560000000  0.5355600000000  0.4695990000000 1.0
C      1  0.5136530000000  0.4974000000000  0.4131930000000 1.0
C      1  0.5162170000000  0.5019510000000  0.5863320000000 1.0
END
