TITL C-19527-27-3 -0.00884248109628869 125000 -65.4453719299702 0 0 10 (D(inf)h) n - 1
REM
REM in /rds/project/t2_vol4/rds-t2-cs072/BORA/CARBON/from-Arr/AIRSS/Generating-Clusters/GAP-ML-2020/Higher-Symm/SD-CG/HFTN-CG
REM
REM
REM
REM
REM
REM ./C.cell (b20cbc046b6831c77cfcea5457e17084)
REM AIRSS Version 0.9.1 bugfix July 2018 build 013d7b7c2542+ Fri, 06 Jul 2018 19:26:36 +0100
REM compiler GCC version 9.3.0
REM options -cpp -mtune=generic -march=x86-64 -g -O0
REM seed 1261432740 1908830086 1798580237 1701335309 -107901478 -2052490194 1479099283 -1934412526 -1734280678 131829610 1124292721 -709755581 160659134 1482823837 2050295510 1339499128 -1912939183 -1816810149 -14298238 96341217 707944038 -961475912 -1097202834 1206162643 -1480372340 -1226813439 -97756138 1135684024 -22036375 1292093372 -840308916 1878103714 -1246545083
REM
CELL 1.54180   50.00000   50.00000   50.00000   90.00000   90.00000   90.00000
LATT -1
SFAC C  
C      1  0.5000550000000  0.5638280000000  0.5016490000000 1.0
C      1  0.5000550000000  0.4101620000000  0.5016490000000 1.0
C      1  0.5000550000000  0.5386030000000  0.5016490000000 1.0
C      1  0.5000550000000  0.3846120000000  0.5016490000000 1.0
C      1  0.5000550000000  0.4361720000000  0.5016490000000 1.0
C      1  0.5000550000000  0.5898380000000  0.5016490000000 1.0
C      1  0.5000550000000  0.6153880000000  0.5016490000000 1.0
C      1  0.5000550000000  0.5126250000000  0.5016490000000 1.0
C      1  0.5000550000000  0.4613970000000  0.5016490000000 1.0
C      1  0.5000550000000  0.4873750000000  0.5016490000000 1.0
END
