TITL C-19523-9811-9 0.0131638601233424 125000 -664.442909500579 0 0 98 (C4h) n - 1
REM
REM in /rds/project/t2_vol4/rds-t2-cs072/BORA/CARBON/from-Arr/AIRSS/Generating-Clusters/GAP-ML-2020/Higher-Symm/SD-CG/HFTN-CG
REM
REM
REM
REM
REM
REM ./C.cell (b20cbc046b6831c77cfcea5457e17084)
REM AIRSS Version 0.9.1 bugfix July 2018 build 013d7b7c2542+ Fri, 06 Jul 2018 19:26:36 +0100
REM compiler GCC version 9.3.0
REM options -cpp -mtune=generic -march=x86-64 -g -O0
REM seed -1624009181 960456771 1738612785 -1384472759 1908653834 1567458010 1644597351 299415274 -1669910385 327349491 -1814156573 -1736186115 -1407105176 121527148 1854121927 -157260921 -1515951180 -1711989127 1983026156 737366040 -2053532429 -1355473443 -43882984 -232709270 855115825 -975970447 214405834 -1249005194 -9024852 674788786 2079265144 1107467852 -557644968
REM
CELL 1.54180   50.00000   50.00000   50.00000   90.00000   90.00000   90.00000
LATT -1
SFAC C  
C      1  0.4174440000000  0.5330170000000  0.5430150000000 1.0
C      1  0.5435340000000  0.5330050000000  0.5826300000000 1.0
C      1  0.5831480000000  0.5330470000000  0.4565400000000 1.0
C      1  0.4570580000000  0.5330590000000  0.4169260000000 1.0
C      1  0.4174440000000  0.4659420000000  0.5429930000000 1.0
C      1  0.5435340000000  0.4659300000000  0.5826080000000 1.0
C      1  0.5831490000000  0.4659720000000  0.4565180000000 1.0
C      1  0.4570590000000  0.4659840000000  0.4169040000000 1.0
C      1  0.5222600000000  0.4828730000000  0.5865890000000 1.0
C      1  0.5871240000000  0.4829090000000  0.4777970000000 1.0
C      1  0.4783320000000  0.4829300000000  0.4129340000000 1.0
C      1  0.4134690000000  0.4828930000000  0.5217250000000 1.0
C      1  0.5222600000000  0.5160590000000  0.5866000000000 1.0
C      1  0.5871240000000  0.5160950000000  0.4778080000000 1.0
C      1  0.4783320000000  0.5161160000000  0.4129450000000 1.0
C      1  0.4134690000000  0.5160790000000  0.5217360000000 1.0
C      1  0.4467760000000  0.5493970000000  0.4943500000000 1.0
C      1  0.4948630000000  0.5493780000000  0.5533030000000 1.0
C      1  0.5538150000000  0.5493940000000  0.5052160000000 1.0
C      1  0.5057290000000  0.5494130000000  0.4462640000000 1.0
C      1  0.4467770000000  0.4495940000000  0.4943170000000 1.0
C      1  0.4948640000000  0.4495760000000  0.5532700000000 1.0
C      1  0.5538160000000  0.4495920000000  0.5051830000000 1.0
C      1  0.5057300000000  0.4496110000000  0.4462310000000 1.0
C      1  0.5542790000000  0.4837260000000  0.5414530000000 1.0
C      1  0.5419880000000  0.4837570000000  0.4457790000000 1.0
C      1  0.4463130000000  0.4837520000000  0.4580700000000 1.0
C      1  0.4586050000000  0.4837210000000  0.5537450000000 1.0
C      1  0.5542790000000  0.5152360000000  0.5414630000000 1.0
C      1  0.5419870000000  0.5152680000000  0.4457890000000 1.0
C      1  0.4463130000000  0.5152630000000  0.4580810000000 1.0
C      1  0.4586050000000  0.5152310000000  0.5537550000000 1.0
C      1  0.4697430000000  0.5285830000000  0.5008450000000 1.0
C      1  0.5013650000000  0.5285740000000  0.5303300000000 1.0
C      1  0.5308490000000  0.5285850000000  0.4987080000000 1.0
C      1  0.4992270000000  0.5285940000000  0.4692230000000 1.0
C      1  0.4697430000000  0.4704040000000  0.5008260000000 1.0
C      1  0.5013650000000  0.4703950000000  0.5303110000000 1.0
C      1  0.5308500000000  0.4704060000000  0.4986880000000 1.0
C      1  0.4992280000000  0.4704150000000  0.4692040000000 1.0
C      1  0.4614580000000  0.5758810000000  0.5020040000000 1.0
C      1  0.5025080000000  0.5758690000000  0.5386290000000 1.0
C      1  0.5391330000000  0.5758830000000  0.4975790000000 1.0
C      1  0.4980830000000  0.5758950000000  0.4609540000000 1.0
C      1  0.4614600000000  0.4231060000000  0.5019540000000 1.0
C      1  0.5025090000000  0.4230940000000  0.5385790000000 1.0
C      1  0.5391340000000  0.4231080000000  0.4975290000000 1.0
C      1  0.4980850000000  0.4231200000000  0.4609040000000 1.0
C      1  0.4753340000000  0.4847040000000  0.5269030000000 1.0
C      1  0.5274370000000  0.4847050000000  0.5247240000000 1.0
C      1  0.5252580000000  0.4847220000000  0.4726210000000 1.0
C      1  0.4731550000000  0.4847210000000  0.4748000000000 1.0
C      1  0.4753340000000  0.5142660000000  0.5269130000000 1.0
C      1  0.5274370000000  0.5142680000000  0.5247340000000 1.0
C      1  0.5252580000000  0.5142850000000  0.4726310000000 1.0
C      1  0.4731550000000  0.5142840000000  0.4748090000000 1.0
C      1  0.4766920000000  0.4853180000000  0.5769170000000 1.0
C      1  0.5774510000000  0.4853360000000  0.5233660000000 1.0
C      1  0.5239010000000  0.4853690000000  0.4226070000000 1.0
C      1  0.4231410000000  0.4853500000000  0.4761580000000 1.0
C      1  0.4766920000000  0.5136200000000  0.5769260000000 1.0
C      1  0.5774510000000  0.5136390000000  0.5233760000000 1.0
C      1  0.5239000000000  0.5136710000000  0.4226160000000 1.0
C      1  0.4231410000000  0.5136530000000  0.4761670000000 1.0
C      1  0.4517240000000  0.4412170000000  0.4648280000000 1.0
C      1  0.4653770000000  0.4411900000000  0.5483200000000 1.0
C      1  0.5488690000000  0.4411950000000  0.5346670000000 1.0
C      1  0.5352160000000  0.4412230000000  0.4511750000000 1.0
C      1  0.4517230000000  0.5577940000000  0.4648660000000 1.0
C      1  0.4653760000000  0.5577660000000  0.5483580000000 1.0
C      1  0.5488680000000  0.5577710000000  0.5347050000000 1.0
C      1  0.5352150000000  0.5577990000000  0.4512130000000 1.0
C      1  0.5019800000000  0.5300020000000  0.4217800000000 1.0
C      1  0.4222990000000  0.5299770000000  0.4980930000000 1.0
C      1  0.4986120000000  0.5299510000000  0.5777730000000 1.0
C      1  0.5782930000000  0.5299770000000  0.5014610000000 1.0
C      1  0.5019810000000  0.4690380000000  0.4217600000000 1.0
C      1  0.4223000000000  0.4690120000000  0.4980730000000 1.0
C      1  0.4986130000000  0.4689870000000  0.5777530000000 1.0
C      1  0.5782930000000  0.4690120000000  0.5014410000000 1.0
C      1  0.4422910000000  0.5394300000000  0.5522440000000 1.0
C      1  0.5527600000000  0.5394290000000  0.5577850000000 1.0
C      1  0.5583010000000  0.5394650000000  0.4473160000000 1.0
C      1  0.4478320000000  0.5394660000000  0.4417750000000 1.0
C      1  0.4422910000000  0.4595240000000  0.5522180000000 1.0
C      1  0.5527610000000  0.4595230000000  0.5577590000000 1.0
C      1  0.5583020000000  0.4595590000000  0.4472890000000 1.0
C      1  0.4478320000000  0.4595600000000  0.4417480000000 1.0
C      1  0.4740660000000  0.5771260000000  0.5282740000000 1.0
C      1  0.5287780000000  0.5771270000000  0.5260220000000 1.0
C      1  0.5265250000000  0.5771450000000  0.4713100000000 1.0
C      1  0.4718130000000  0.5771440000000  0.4735630000000 1.0
C      1  0.4740670000000  0.4218430000000  0.5282230000000 1.0
C      1  0.5287790000000  0.4218450000000  0.5259710000000 1.0
C      1  0.5265270000000  0.4218630000000  0.4712590000000 1.0
C      1  0.4718150000000  0.4218610000000  0.4735120000000 1.0
C      1  0.5002970000000  0.4606920000000  0.4997540000000 1.0
C      1  0.5002960000000  0.5382970000000  0.4997790000000 1.0
END
