TITL C-193880-2069-4 -0.108941032910695 125000 -963.165728572933 0 0 136 (C1) n - 1
REM
REM in /rds/project/t2_vol4/rds-t2-cs072/BORA/CARBON/from-Arr/AIRSS/Generating-Clusters/GAP-ML-2020/Higher-Symm/SD-CG/HFTN-CG
REM
REM
REM
REM
REM
REM ./C.cell (b20cbc046b6831c77cfcea5457e17084)
REM AIRSS Version 0.9.1 bugfix July 2018 build 013d7b7c2542+ Fri, 06 Jul 2018 19:26:36 +0100
REM compiler GCC version 9.3.0
REM options -cpp -mtune=generic -march=x86-64 -g -O0
REM seed 948663293 -80479057 -1298766624 387353481 -1167337996 67619848 -475005667 2031234980 -161553894 1546720035 -900094425 2087814979 1861053117 128085462 1865130934 -1131032778 351332434 229375583 -1938664992 419271120 -1385923208 186521146 -1358069887 -1617594008 -2111294340 600157181 -966697660 -1944988430 -2047070695 1848671276 -1850016385 121979005 -1080039095
REM
CELL 1.54180   50.00000   50.00000   50.00000   90.00000   90.00000   90.00000
LATT -1
SFAC C  
C      1  0.4633350000000  0.4188970000000  0.4759570000000 1.0
C      1  0.5439520000000  0.4267800000000  0.5449890000000 1.0
C      1  0.4625720000000  0.5914840000000  0.5141560000000 1.0
C      1  0.5333640000000  0.5079830000000  0.4704670000000 1.0
C      1  0.5828560000000  0.5258460000000  0.4467860000000 1.0
C      1  0.4304120000000  0.4517130000000  0.5354310000000 1.0
C      1  0.4778580000000  0.4868420000000  0.4059050000000 1.0
C      1  0.4825850000000  0.5351490000000  0.6132220000000 1.0
C      1  0.5795160000000  0.4380980000000  0.5110580000000 1.0
C      1  0.5778820000000  0.4522910000000  0.4559350000000 1.0
C      1  0.4085610000000  0.4921820000000  0.4774480000000 1.0
C      1  0.6009800000000  0.4911470000000  0.4693770000000 1.0
C      1  0.5784990000000  0.5124510000000  0.5425090000000 1.0
C      1  0.4895640000000  0.5852950000000  0.4833300000000 1.0
C      1  0.5161790000000  0.4201220000000  0.5461150000000 1.0
C      1  0.4207790000000  0.4809240000000  0.5022510000000 1.0
C      1  0.4938060000000  0.5101550000000  0.6108670000000 1.0
C      1  0.5606130000000  0.5382550000000  0.4312320000000 1.0
C      1  0.4730910000000  0.4927980000000  0.4905460000000 1.0
C      1  0.4924780000000  0.5584270000000  0.4171700000000 1.0
C      1  0.4773410000000  0.4918960000000  0.5960600000000 1.0
C      1  0.5475280000000  0.5529290000000  0.5790800000000 1.0
C      1  0.4474790000000  0.5282230000000  0.5042040000000 1.0
C      1  0.4161800000000  0.5356150000000  0.4619040000000 1.0
C      1  0.5526950000000  0.5281230000000  0.5392940000000 1.0
C      1  0.4497090000000  0.5268300000000  0.5825130000000 1.0
C      1  0.5487590000000  0.5041950000000  0.4940090000000 1.0
C      1  0.3891270000000  0.5262650000000  0.5023850000000 1.0
C      1  0.5286300000000  0.5360510000000  0.5898010000000 1.0
C      1  0.5040860000000  0.5847590000000  0.4570710000000 1.0
C      1  0.4983710000000  0.4691140000000  0.5280330000000 1.0
C      1  0.4647850000000  0.4458950000000  0.4352360000000 1.0
C      1  0.5544460000000  0.4440570000000  0.4411520000000 1.0
C      1  0.4333680000000  0.4956020000000  0.4349100000000 1.0
C      1  0.4495960000000  0.5000330000000  0.5084610000000 1.0
C      1  0.5264910000000  0.4801720000000  0.5308710000000 1.0
C      1  0.5569420000000  0.5124640000000  0.4170490000000 1.0
C      1  0.4473980000000  0.5610390000000  0.5517350000000 1.0
C      1  0.5397950000000  0.5753110000000  0.5300350000000 1.0
C      1  0.5404220000000  0.4101430000000  0.4959630000000 1.0
C      1  0.4912850000000  0.4424360000000  0.4263070000000 1.0
C      1  0.4982880000000  0.4660330000000  0.4081780000000 1.0
C      1  0.4548260000000  0.4202330000000  0.5034750000000 1.0
C      1  0.4259570000000  0.5564690000000  0.4787730000000 1.0
C      1  0.4942300000000  0.4932040000000  0.5126950000000 1.0
C      1  0.5141840000000  0.5216620000000  0.4042160000000 1.0
C      1  0.5493030000000  0.5559140000000  0.5509070000000 1.0
C      1  0.5959820000000  0.5196020000000  0.4715720000000 1.0
C      1  0.4277850000000  0.4518470000000  0.4638160000000 1.0
C      1  0.5346130000000  0.4841790000000  0.5994310000000 1.0
C      1  0.4226090000000  0.4532650000000  0.4914210000000 1.0
C      1  0.5344450000000  0.4604220000000  0.5838000000000 1.0
C      1  0.5529400000000  0.4474610000000  0.5639320000000 1.0
C      1  0.4603490000000  0.5943640000000  0.4850130000000 1.0
C      1  0.5183100000000  0.5479230000000  0.4157350000000 1.0
C      1  0.5065170000000  0.4253990000000  0.4445840000000 1.0
C      1  0.4562750000000  0.4814830000000  0.4248240000000 1.0
C      1  0.4173010000000  0.4935970000000  0.5524110000000 1.0
C      1  0.4307550000000  0.5251750000000  0.4391660000000 1.0
C      1  0.4756720000000  0.5570890000000  0.4825250000000 1.0
C      1  0.5663030000000  0.4917590000000  0.5569370000000 1.0
C      1  0.4638220000000  0.5002130000000  0.5356350000000 1.0
C      1  0.4975380000000  0.5587900000000  0.5495900000000 1.0
C      1  0.5408380000000  0.4588200000000  0.4916580000000 1.0
C      1  0.4488740000000  0.5715020000000  0.4702300000000 1.0
C      1  0.6001540000000  0.4809760000000  0.5161440000000 1.0
C      1  0.4359170000000  0.4821140000000  0.5708410000000 1.0
C      1  0.5324650000000  0.5771900000000  0.4550490000000 1.0
C      1  0.4863490000000  0.5146660000000  0.4023720000000 1.0
C      1  0.4270010000000  0.5506360000000  0.5075260000000 1.0
C      1  0.5787180000000  0.5004410000000  0.4320660000000 1.0
C      1  0.5185990000000  0.4642630000000  0.4779310000000 1.0
C      1  0.4740130000000  0.4743850000000  0.5490760000000 1.0
C      1  0.5426040000000  0.4804790000000  0.5075900000000 1.0
C      1  0.5254570000000  0.4741930000000  0.4086520000000 1.0
C      1  0.4978610000000  0.4338380000000  0.5629860000000 1.0
C      1  0.5020890000000  0.4159930000000  0.5209110000000 1.0
C      1  0.4209240000000  0.4790350000000  0.4553000000000 1.0
C      1  0.5059900000000  0.5082630000000  0.5588720000000 1.0
C      1  0.4740780000000  0.4246070000000  0.5244120000000 1.0
C      1  0.4506610000000  0.4561280000000  0.5557550000000 1.0
C      1  0.4945720000000  0.5400350000000  0.5234640000000 1.0
C      1  0.4845770000000  0.5758930000000  0.4375360000000 1.0
C      1  0.4894070000000  0.5132210000000  0.5337490000000 1.0
C      1  0.5946650000000  0.5092290000000  0.5200400000000 1.0
C      1  0.6025600000000  0.4721450000000  0.4897620000000 1.0
C      1  0.5877590000000  0.4588000000000  0.5300470000000 1.0
C      1  0.5460230000000  0.5297600000000  0.5110780000000 1.0
C      1  0.5120250000000  0.4078940000000  0.4953240000000 1.0
C      1  0.5388440000000  0.4661100000000  0.4321400000000 1.0
C      1  0.5566250000000  0.4222050000000  0.5187600000000 1.0
C      1  0.4696710000000  0.5469170000000  0.5085890000000 1.0
C      1  0.4822240000000  0.5103580000000  0.4672040000000 1.0
C      1  0.5337550000000  0.5018020000000  0.4046120000000 1.0
C      1  0.5184020000000  0.5377270000000  0.5045210000000 1.0
C      1  0.4935550000000  0.4452750000000  0.5130100000000 1.0
C      1  0.4509380000000  0.4991140000000  0.5876320000000 1.0
C      1  0.5680410000000  0.5474550000000  0.5014810000000 1.0
C      1  0.4950820000000  0.4918760000000  0.4488810000000 1.0
C      1  0.3992010000000  0.5185720000000  0.4775000000000 1.0
C      1  0.4151190000000  0.4748470000000  0.5309030000000 1.0
C      1  0.4912750000000  0.4816600000000  0.5727110000000 1.0
C      1  0.4484500000000  0.5676730000000  0.5235400000000 1.0
C      1  0.4487010000000  0.4332210000000  0.4553330000000 1.0
C      1  0.4938590000000  0.4211180000000  0.4725490000000 1.0
C      1  0.4497790000000  0.5441800000000  0.4281240000000 1.0
C      1  0.4570320000000  0.5684470000000  0.4423960000000 1.0
C      1  0.4944200000000  0.4500330000000  0.4845570000000 1.0
C      1  0.4329100000000  0.4364280000000  0.5110710000000 1.0
C      1  0.5911100000000  0.5294380000000  0.4981820000000 1.0
C      1  0.4141750000000  0.5224930000000  0.5478710000000 1.0
C      1  0.5481480000000  0.5818690000000  0.4776970000000 1.0
C      1  0.4922740000000  0.5908950000000  0.5135150000000 1.0
C      1  0.5394440000000  0.5576220000000  0.4326620000000 1.0
C      1  0.5044830000000  0.5366270000000  0.5716350000000 1.0
C      1  0.4723500000000  0.5627980000000  0.5645790000000 1.0
C      1  0.4732830000000  0.4708720000000  0.4472750000000 1.0
C      1  0.5232490000000  0.5085150000000  0.6034700000000 1.0
C      1  0.5145490000000  0.5287020000000  0.4782470000000 1.0
C      1  0.5472320000000  0.4132900000000  0.4700110000000 1.0
C      1  0.5561580000000  0.5739030000000  0.5027060000000 1.0
C      1  0.5875560000000  0.4484980000000  0.4840650000000 1.0
C      1  0.4057170000000  0.5348330000000  0.5221390000000 1.0
C      1  0.4903620000000  0.5365300000000  0.4676420000000 1.0
C      1  0.4710030000000  0.4344180000000  0.5522990000000 1.0
C      1  0.4726680000000  0.5384530000000  0.4112960000000 1.0
C      1  0.5356740000000  0.4230500000000  0.4476640000000 1.0
C      1  0.5347300000000  0.5014940000000  0.5501340000000 1.0
C      1  0.5878470000000  0.4782830000000  0.4479230000000 1.0
C      1  0.5224480000000  0.4837800000000  0.4562220000000 1.0
C      1  0.5071740000000  0.4560260000000  0.5778240000000 1.0
C      1  0.5112840000000  0.5812560000000  0.5329050000000 1.0
C      1  0.4331160000000  0.5382550000000  0.5620900000000 1.0
C      1  0.5730100000000  0.4645290000000  0.5538530000000 1.0
C      1  0.4753290000000  0.5422970000000  0.5857950000000 1.0
C      1  0.4722420000000  0.4676750000000  0.4769460000000 1.0
END
