TITL C-19921-9961-3 -0.00055719497786321 125000 -293.101264014064 0 0 44 (C1) n - 1
REM
REM in /rds/project/t2_vol4/rds-t2-cs072/BORA/CARBON/from-Arr/AIRSS/Generating-Clusters/GAP-ML-2020/Higher-Symm/SD-CG/HFTN-CG
REM
REM
REM
REM
REM
REM ./C.cell (b20cbc046b6831c77cfcea5457e17084)
REM AIRSS Version 0.9.1 bugfix July 2018 build 013d7b7c2542+ Fri, 06 Jul 2018 19:26:36 +0100
REM compiler GCC version 9.3.0
REM options -cpp -mtune=generic -march=x86-64 -g -O0
REM seed 833033770 -2029509392 1186748441 1452275732 -74083044 -786624057 419262140 1601129101 -1669235976 -1375227554 -2044304462 1921014251 1202190175 -1979128151 73881730 -235580433 -36527247 -656817783 125390908 -1292359760 1556330389 -1217838230 505712751 1575750749 -2021866706 544498797 -433957075 1052702199 -291966584 -1597346537 -1499970081 33808419 1111847068
REM
CELL 1.54180   50.00000   50.00000   50.00000   90.00000   90.00000   90.00000
LATT -1
SFAC C  
C      1  0.5234400000000  0.4770090000000  0.5274070000000 1.0
C      1  0.5212360000000  0.5054290000000  0.5385560000000 1.0
C      1  0.5156680000000  0.5300490000000  0.5221380000000 1.0
C      1  0.5169010000000  0.5347910000000  0.4917170000000 1.0
C      1  0.5185690000000  0.5145660000000  0.4689360000000 1.0
C      1  0.5153360000000  0.4823720000000  0.4698970000000 1.0
C      1  0.5210470000000  0.4679220000000  0.4966360000000 1.0
C      1  0.4525080000000  0.5209280000000  0.5164390000000 1.0
C      1  0.4514430000000  0.5342500000000  0.4918500000000 1.0
C      1  0.4569890000000  0.5237670000000  0.4653900000000 1.0
C      1  0.4546920000000  0.4961640000000  0.4573450000000 1.0
C      1  0.4554360000000  0.4618170000000  0.4931020000000 1.0
C      1  0.4554000000000  0.4682970000000  0.5214950000000 1.0
C      1  0.4521100000000  0.4949970000000  0.5298290000000 1.0
C      1  0.5102700000000  0.5052830000000  0.5653570000000 1.0
C      1  0.4850420000000  0.5652270000000  0.5108490000000 1.0
C      1  0.4817300000000  0.5626400000000  0.4699200000000 1.0
C      1  0.4937840000000  0.5051970000000  0.4284530000000 1.0
C      1  0.4835890000000  0.4441810000000  0.4565280000000 1.0
C      1  0.4949200000000  0.4392180000000  0.5267030000000 1.0
C      1  0.4878490000000  0.4644580000000  0.5589710000000 1.0
C      1  0.5025090000000  0.5245880000000  0.4454720000000 1.0
C      1  0.4933160000000  0.4689500000000  0.4524600000000 1.0
C      1  0.5016000000000  0.4450680000000  0.5000180000000 1.0
C      1  0.5115780000000  0.4556560000000  0.5443350000000 1.0
C      1  0.4856770000000  0.4914790000000  0.5660070000000 1.0
C      1  0.4920020000000  0.5454980000000  0.5307030000000 1.0
C      1  0.5039440000000  0.5625700000000  0.4883750000000 1.0
C      1  0.5427550000000  0.4805190000000  0.4547350000000 1.0
C      1  0.5515330000000  0.4730080000000  0.4969120000000 1.0
C      1  0.5526490000000  0.4830770000000  0.5228030000000 1.0
C      1  0.5519080000000  0.5089570000000  0.5333380000000 1.0
C      1  0.5473050000000  0.5333600000000  0.5209920000000 1.0
C      1  0.5479330000000  0.5338100000000  0.4929660000000 1.0
C      1  0.5489600000000  0.5152320000000  0.4725940000000 1.0
C      1  0.4688790000000  0.5309420000000  0.5389400000000 1.0
C      1  0.4633300000000  0.5610860000000  0.4928330000000 1.0
C      1  0.4783590000000  0.5398950000000  0.4541400000000 1.0
C      1  0.4764330000000  0.4875240000000  0.4399140000000 1.0
C      1  0.4779440000000  0.4457640000000  0.4830260000000 1.0
C      1  0.4712760000000  0.4516580000000  0.5388560000000 1.0
C      1  0.4653560000000  0.5062630000000  0.5531250000000 1.0
C      1  0.5594010000000  0.4888740000000  0.4746290000000 1.0
C      1  0.4432620000000  0.4779110000000  0.4743700000000 1.0
END
