TITL C-19916-42-4 273.998777383847 125000 -349.052484231124 0 0 51 (C3v) n - 1
REM
REM in /rds/project/t2_vol4/rds-t2-cs072/BORA/CARBON/from-Arr/AIRSS/Generating-Clusters/GAP-ML-2020/Higher-Symm/SD-CG/HFTN-CG
REM
REM
REM
REM
REM
REM ./C.cell (b20cbc046b6831c77cfcea5457e17084)
REM AIRSS Version 0.9.1 bugfix July 2018 build 013d7b7c2542+ Fri, 06 Jul 2018 19:26:36 +0100
REM compiler GCC version 9.3.0
REM options -cpp -mtune=generic -march=x86-64 -g -O0
REM seed -1419838159 727814500 1577433898 -1727911240 536196378 -1086885577 1185193981 1249739937 1183470966 -137421813 1363665881 -287619926 -1079170296 -1688774023 1625735980 -1729088833 1791948344 -179808240 -2123378803 1243116223 542242786 -1031514920 -1398177135 1998770410 -1263034443 -1729156719 -1189155136 -1200301716 -1784182872 -775863379 -38001713 583637405 -630563076
REM
CELL 1.54180   50.00000   50.00000   50.00000   90.00000   90.00000   90.00000
LATT -1
SFAC C  
C      1  0.5325130000000  0.5467270000000  0.4729490000000 1.0
C      1  0.5325140000000  0.5000650000000  0.5539920000000 1.0
C      1  0.5325160000000  0.4532100000000  0.4730600000000 1.0
C      1  0.5325130000000  0.5467270000000  0.5270530000000 1.0
C      1  0.5325150000000  0.5000670000000  0.4460090000000 1.0
C      1  0.5325160000000  0.4532100000000  0.5269390000000 1.0
C      1  0.4360950000000  0.5247360000000  0.5143280000000 1.0
C      1  0.4360970000000  0.4752200000000  0.5142590000000 1.0
C      1  0.4360960000000  0.5000380000000  0.4714110000000 1.0
C      1  0.4360950000000  0.5247370000000  0.4856710000000 1.0
C      1  0.4360970000000  0.4752200000000  0.4857390000000 1.0
C      1  0.4360960000000  0.5000370000000  0.5285870000000 1.0
C      1  0.4841540000000  0.4756650000000  0.4307210000000 1.0
C      1  0.4841500000000  0.5721640000000  0.5135650000000 1.0
C      1  0.4841530000000  0.4521700000000  0.5557130000000 1.0
C      1  0.4841520000000  0.4756630000000  0.5692780000000 1.0
C      1  0.4841510000000  0.5721640000000  0.4864370000000 1.0
C      1  0.4841550000000  0.4521710000000  0.4442850000000 1.0
C      1  0.4666250000000  0.4729530000000  0.4849600000000 1.0
C      1  0.4666230000000  0.5265460000000  0.4840970000000 1.0
C      1  0.4666230000000  0.5004970000000  0.5309420000000 1.0
C      1  0.4666240000000  0.4729530000000  0.5150380000000 1.0
C      1  0.4666220000000  0.5265460000000  0.5159030000000 1.0
C      1  0.4666240000000  0.5004980000000  0.4690580000000 1.0
C      1  0.5326460000000  0.5714260000000  0.5135040000000 1.0
C      1  0.5326490000000  0.4525940000000  0.5551050000000 1.0
C      1  0.5326500000000  0.4759830000000  0.4313930000000 1.0
C      1  0.5326460000000  0.5714270000000  0.4864990000000 1.0
C      1  0.5326500000000  0.4525960000000  0.4448950000000 1.0
C      1  0.5326480000000  0.4759810000000  0.5686080000000 1.0
C      1  0.5082910000000  0.4452590000000  0.4860330000000 1.0
C      1  0.5082880000000  0.5394670000000  0.4595770000000 1.0
C      1  0.5082880000000  0.5152750000000  0.5543910000000 1.0
C      1  0.5082900000000  0.4452590000000  0.5139660000000 1.0
C      1  0.5082870000000  0.5394660000000  0.5404250000000 1.0
C      1  0.5082890000000  0.5152760000000  0.4456100000000 1.0
C      1  0.4835220000000  0.5005650000000  0.4445370000000 1.0
C      1  0.4835190000000  0.5477490000000  0.5282210000000 1.0
C      1  0.4835220000000  0.4516840000000  0.5272420000000 1.0
C      1  0.4835200000000  0.5005630000000  0.5554630000000 1.0
C      1  0.4835200000000  0.5477500000000  0.4717800000000 1.0
C      1  0.4835230000000  0.4516850000000  0.4727560000000 1.0
C      1  0.5471230000000  0.5246210000000  0.5146030000000 1.0
C      1  0.5471240000000  0.4750450000000  0.5140200000000 1.0
C      1  0.5471240000000  0.5003380000000  0.4713780000000 1.0
C      1  0.5471230000000  0.5246210000000  0.4853990000000 1.0
C      1  0.5471250000000  0.4750460000000  0.4859800000000 1.0
C      1  0.5471230000000  0.5003370000000  0.5286230000000 1.0
C      1  0.5082200000000  0.4595950000000  0.5699830000000 1.0
C      1  0.5082220000000  0.4595960000000  0.4300160000000 1.0
C      1  0.5082170000000  0.5808100000000  0.5000010000000 1.0
END
