TITL C-19926-184-7 0.146320234108121 125000 -454.059504529939 0 0 67 (C3) n - 1
REM
REM in /rds/project/t2_vol4/rds-t2-cs072/BORA/CARBON/from-Arr/AIRSS/Generating-Clusters/GAP-ML-2020/Higher-Symm/SD-CG/HFTN-CG
REM
REM
REM
REM
REM
REM ./C.cell (b20cbc046b6831c77cfcea5457e17084)
REM AIRSS Version 0.9.1 bugfix July 2018 build 013d7b7c2542+ Fri, 06 Jul 2018 19:26:36 +0100
REM compiler GCC version 9.3.0
REM options -cpp -mtune=generic -march=x86-64 -g -O0
REM seed -1925573849 -565590875 -2106997703 -1620167318 -1512809654 1436467870 -795626189 -1692982203 568211955 857225062 956810484 -851754887 1878050545 1534261990 -938783812 1852357377 -556640271 -1352077685 -1425412117 994133817 987192448 1222648737 527440230 -1456087069 135138596 -86002021 1311886240 -1585726507 1806287307 -80639870 1718865650 -1571798398 2120654132
REM
CELL 1.54180   50.00000   50.00000   50.00000   90.00000   90.00000   90.00000
LATT -1
SFAC C  
C      1  0.5571930000000  0.5291300000000  0.4760370000000 1.0
C      1  0.4919630000000  0.5277280000000  0.5617900000000 1.0
C      1  0.4503040000000  0.5290790000000  0.4624270000000 1.0
C      1  0.4540050000000  0.5546140000000  0.4733000000000 1.0
C      1  0.5461600000000  0.5548120000000  0.4744190000000 1.0
C      1  0.4991160000000  0.5535480000000  0.5536590000000 1.0
C      1  0.4869330000000  0.4643220000000  0.4392850000000 1.0
C      1  0.5583280000000  0.4633450000000  0.5177710000000 1.0
C      1  0.4546550000000  0.4627740000000  0.5403490000000 1.0
C      1  0.4417970000000  0.5127840000000  0.4857710000000 1.0
C      1  0.5410810000000  0.5134400000000  0.4566180000000 1.0
C      1  0.5166920000000  0.5119180000000  0.5571690000000 1.0
C      1  0.4472640000000  0.4699220000000  0.4515200000000 1.0
C      1  0.5676180000000  0.4698240000000  0.4774430000000 1.0
C      1  0.4849920000000  0.4683020000000  0.5686990000000 1.0
C      1  0.4366670000000  0.5285210000000  0.5091010000000 1.0
C      1  0.5235870000000  0.5297170000000  0.4408940000000 1.0
C      1  0.5392050000000  0.5281600000000  0.5502670000000 1.0
C      1  0.4552440000000  0.5581800000000  0.5305270000000 1.0
C      1  0.4960150000000  0.5594930000000  0.4469810000000 1.0
C      1  0.5479910000000  0.5584900000000  0.5240620000000 1.0
C      1  0.4769680000000  0.5705000000000  0.4651670000000 1.0
C      1  0.5418660000000  0.5701620000000  0.4987450000000 1.0
C      1  0.4803370000000  0.5694440000000  0.5381520000000 1.0
C      1  0.4933830000000  0.5326720000000  0.4365660000000 1.0
C      1  0.5580810000000  0.5315140000000  0.5263460000000 1.0
C      1  0.4479740000000  0.5310960000000  0.5374780000000 1.0
C      1  0.4663230000000  0.4464690000000  0.4505140000000 1.0
C      1  0.5587460000000  0.4460520000000  0.4938890000000 1.0
C      1  0.4749690000000  0.4450070000000  0.5522320000000 1.0
C      1  0.4667130000000  0.5013390000000  0.4929270000000 1.0
C      1  0.5223230000000  0.5017390000000  0.4743430000000 1.0
C      1  0.5106150000000  0.5008750000000  0.5317900000000 1.0
C      1  0.5355090000000  0.4601090000000  0.5338050000000 1.0
C      1  0.4521490000000  0.4602260000000  0.5125020000000 1.0
C      1  0.5122770000000  0.4612620000000  0.4509700000000 1.0
C      1  0.5158000000000  0.5817560000000  0.4992010000000 1.0
C      1  0.4930810000000  0.5814640000000  0.5156310000000 1.0
C      1  0.4902090000000  0.5818640000000  0.4877420000000 1.0
C      1  0.5215050000000  0.4458380000000  0.5537250000000 1.0
C      1  0.4417700000000  0.4465800000000  0.4900820000000 1.0
C      1  0.5367580000000  0.4473430000000  0.4528600000000 1.0
C      1  0.5108050000000  0.5237080000000  0.4884250000000 1.0
C      1  0.5043800000000  0.5233020000000  0.5153050000000 1.0
C      1  0.4843110000000  0.5235320000000  0.4963000000000 1.0
C      1  0.5106110000000  0.4607110000000  0.5754000000000 1.0
C      1  0.4285830000000  0.4620540000000  0.4701730000000 1.0
C      1  0.5607330000000  0.4626300000000  0.4517590000000 1.0
C      1  0.5151080000000  0.4199310000000  0.4916980000000 1.0
C      1  0.4984470000000  0.4195540000000  0.5149180000000 1.0
C      1  0.4866650000000  0.4199060000000  0.4888800000000 1.0
C      1  0.5121140000000  0.4749930000000  0.5240950000000 1.0
C      1  0.4723910000000  0.4752890000000  0.4974520000000 1.0
C      1  0.5153280000000  0.4756960000000  0.4763760000000 1.0
C      1  0.4679240000000  0.4881000000000  0.4404670000000 1.0
C      1  0.5670250000000  0.4874450000000  0.5012890000000 1.0
C      1  0.4647990000000  0.4863990000000  0.5566910000000 1.0
C      1  0.5257260000000  0.5556670000000  0.4524360000000 1.0
C      1  0.5283770000000  0.5542960000000  0.5469700000000 1.0
C      1  0.4451740000000  0.5547570000000  0.5019960000000 1.0
C      1  0.4690220000000  0.5171270000000  0.4419950000000 1.0
C      1  0.5654190000000  0.5164750000000  0.5021690000000 1.0
C      1  0.4651050000000  0.5154630000000  0.5555530000000 1.0
C      1  0.4642400000000  0.4317330000000  0.4747400000000 1.0
C      1  0.5386730000000  0.4318350000000  0.4796280000000 1.0
C      1  0.4972260000000  0.4308350000000  0.5416380000000 1.0
C      1  0.4999570000000  0.4699720000000  0.4992300000000 1.0
END
