TITL C-19527-27-9 -0.067993741709424 125000 -286.104408331852 0 0 42 (D3) n - 1
REM
REM in /rds/project/t2_vol4/rds-t2-cs072/BORA/CARBON/from-Arr/AIRSS/Generating-Clusters/GAP-ML-2020/Higher-Symm/SD-CG/HFTN-CG
REM
REM
REM
REM
REM
REM ./C.cell (b20cbc046b6831c77cfcea5457e17084)
REM AIRSS Version 0.9.1 bugfix July 2018 build 013d7b7c2542+ Fri, 06 Jul 2018 19:26:36 +0100
REM compiler GCC version 9.3.0
REM options -cpp -mtune=generic -march=x86-64 -g -O0
REM seed -1482899449 -1764931859 -1601517117 -1871539661 -1601258263 -1044720841 1663300691 673833755 425921965 1168009433 1855088663 883133384 3201807 -545048871 820814064 -351991444 1594820244 130586089 -1036996209 270921101 -934240112 1263103181 2111342419 -1912572431 794550091 -1073405714 -759056037 870835113 -1847266862 -490826957 -927095601 -1130180832 -353011382
REM
CELL 1.54180   50.00000   50.00000   50.00000   90.00000   90.00000   90.00000
LATT -1
SFAC C  
C      1  0.4310990000000  0.4864710000000  0.5030520000000 1.0
C      1  0.4314680000000  0.5099780000000  0.4880180000000 1.0
C      1  0.4324590000000  0.5112170000000  0.5158790000000 1.0
C      1  0.5688720000000  0.5134750000000  0.4961640000000 1.0
C      1  0.5675310000000  0.4881320000000  0.4845600000000 1.0
C      1  0.5685700000000  0.4907270000000  0.5123260000000 1.0
C      1  0.4471240000000  0.5160240000000  0.4656140000000 1.0
C      1  0.4497560000000  0.5262070000000  0.5319950000000 1.0
C      1  0.4465910000000  0.4636230000000  0.5076970000000 1.0
C      1  0.5503220000000  0.4791520000000  0.4643910000000 1.0
C      1  0.5525630000000  0.4781730000000  0.5315550000000 1.0
C      1  0.5536440000000  0.5368210000000  0.4987470000000 1.0
C      1  0.4756270000000  0.4681110000000  0.4678000000000 1.0
C      1  0.4792440000000  0.5457460000000  0.4888500000000 1.0
C      1  0.4790310000000  0.4886160000000  0.5455910000000 1.0
C      1  0.5218140000000  0.5270550000000  0.4620530000000 1.0
C      1  0.5201210000000  0.4530550000000  0.4937470000000 1.0
C      1  0.5241630000000  0.5174190000000  0.5419590000000 1.0
C      1  0.4736730000000  0.5264790000000  0.4680880000000 1.0
C      1  0.4757200000000  0.5166020000000  0.5393380000000 1.0
C      1  0.4721020000000  0.4598550000000  0.4952360000000 1.0
C      1  0.5240750000000  0.4692670000000  0.4701920000000 1.0
C      1  0.5271520000000  0.4888230000000  0.5393760000000 1.0
C      1  0.5272780000000  0.5389740000000  0.4877700000000 1.0
C      1  0.4587310000000  0.5580030000000  0.5028030000000 1.0
C      1  0.4571100000000  0.4722210000000  0.5496400000000 1.0
C      1  0.4538900000000  0.4746490000000  0.4519740000000 1.0
C      1  0.5416530000000  0.4427230000000  0.5077230000000 1.0
C      1  0.5462370000000  0.5341040000000  0.5421230000000 1.0
C      1  0.5423780000000  0.5183010000000  0.4457370000000 1.0
C      1  0.4460750000000  0.5547240000000  0.5248450000000 1.0
C      1  0.4427590000000  0.4559090000000  0.5360470000000 1.0
C      1  0.4411570000000  0.4957250000000  0.4448720000000 1.0
C      1  0.5558580000000  0.4489280000000  0.5281320000000 1.0
C      1  0.5594840000000  0.5483270000000  0.5254190000000 1.0
C      1  0.5546680000000  0.4963870000000  0.4406850000000 1.0
C      1  0.5022780000000  0.4750840000000  0.5338730000000 1.0
C      1  0.5001190000000  0.4829780000000  0.4614820000000 1.0
C      1  0.5037720000000  0.5417070000000  0.5044360000000 1.0
C      1  0.5000600000000  0.5293330000000  0.5302150000000 1.0
C      1  0.4970030000000  0.5115840000000  0.4596240000000 1.0
C      1  0.4967690000000  0.4593140000000  0.5103700000000 1.0
END
