TITL C-19938-9977-4 650.169955222562 125000 -602.825360822057 0 0 88 (Cs) n - 1
REM
REM in /rds/project/t2_vol4/rds-t2-cs072/BORA/CARBON/from-Arr/AIRSS/Generating-Clusters/GAP-ML-2020/Higher-Symm/SD-CG/HFTN-CG
REM
REM
REM
REM
REM
REM ./C.cell (b20cbc046b6831c77cfcea5457e17084)
REM AIRSS Version 0.9.1 bugfix July 2018 build 013d7b7c2542+ Fri, 06 Jul 2018 19:26:36 +0100
REM compiler GCC version 9.3.0
REM options -cpp -mtune=generic -march=x86-64 -g -O0
REM seed -1790598679 2127840415 1698339158 -1615271150 -1105523108 1699903263 1329920895 -1283428098 -1019093947 1898872957 -227808041 -1434948478 -1993653068 -2032804794 193173864 1860927172 -520488150 1904278115 -228572555 -1433133335 -1783635741 884871043 2128767066 1660465587 -942189561 781291850 -1688428693 1658584543 1713885727 874463708 -310040936 1246229896 -711022189
REM
CELL 1.54180   50.00000   50.00000   50.00000   90.00000   90.00000   90.00000
LATT -1
SFAC C  
C      1  0.4421740000000  0.5076830000000  0.4410550000000 1.0
C      1  0.5577870000000  0.5076810000000  0.4410160000000 1.0
C      1  0.4375300000000  0.4696350000000  0.5151420000000 1.0
C      1  0.5624790000000  0.4696330000000  0.5151010000000 1.0
C      1  0.4699350000000  0.4213560000000  0.4718170000000 1.0
C      1  0.5300440000000  0.4213550000000  0.4717970000000 1.0
C      1  0.5295640000000  0.5686440000000  0.5423980000000 1.0
C      1  0.4704660000000  0.5686450000000  0.5424170000000 1.0
C      1  0.5627540000000  0.5613310000000  0.5060660000000 1.0
C      1  0.4372520000000  0.5613330000000  0.5061080000000 1.0
C      1  0.4854360000000  0.5284950000000  0.5723580000000 1.0
C      1  0.5146120000000  0.5284950000000  0.5723480000000 1.0
C      1  0.5144500000000  0.5566420000000  0.5632520000000 1.0
C      1  0.4855940000000  0.5566430000000  0.5632620000000 1.0
C      1  0.4702720000000  0.4272260000000  0.5087190000000 1.0
C      1  0.5297320000000  0.4272250000000  0.5086990000000 1.0
C      1  0.4253930000000  0.5307610000000  0.4722950000000 1.0
C      1  0.5745900000000  0.5307590000000  0.4722460000000 1.0
C      1  0.5348710000000  0.5276810000000  0.4480410000000 1.0
C      1  0.4650950000000  0.5276820000000  0.4480640000000 1.0
C      1  0.5526450000000  0.5471210000000  0.4622910000000 1.0
C      1  0.4473320000000  0.5471220000000  0.4623260000000 1.0
C      1  0.4360420000000  0.5320380000000  0.5422790000000 1.0
C      1  0.5639870000000  0.5320360000000  0.5422360000000 1.0
C      1  0.4776580000000  0.5352470000000  0.4972190000000 1.0
C      1  0.5223410000000  0.5352460000000  0.4972040000000 1.0
C      1  0.5340430000000  0.5114260000000  0.5602090000000 1.0
C      1  0.4659970000000  0.5114260000000  0.5602320000000 1.0
C      1  0.4313700000000  0.4750960000000  0.4654030000000 1.0
C      1  0.5686060000000  0.4750940000000  0.4653580000000 1.0
C      1  0.5157710000000  0.4441670000000  0.4614550000000 1.0
C      1  0.4842020000000  0.4441670000000  0.4614660000000 1.0
C      1  0.4557030000000  0.5651100000000  0.4835640000000 1.0
C      1  0.5442880000000  0.5651090000000  0.4835350000000 1.0
C      1  0.5131140000000  0.4524730000000  0.5734900000000 1.0
C      1  0.4869330000000  0.4524730000000  0.5734980000000 1.0
C      1  0.4243300000000  0.5038190000000  0.4634710000000 1.0
C      1  0.5756460000000  0.5038160000000  0.4634210000000 1.0
C      1  0.5140280000000  0.4540190000000  0.4333820000000 1.0
C      1  0.4859260000000  0.4540200000000  0.4333910000000 1.0
C      1  0.5307550000000  0.4928840000000  0.4845980000000 1.0
C      1  0.4692350000000  0.4928850000000  0.4846190000000 1.0
C      1  0.5155220000000  0.4678670000000  0.4836070000000 1.0
C      1  0.4844660000000  0.4678680000000  0.4836180000000 1.0
C      1  0.4836170000000  0.5165560000000  0.4755000000000 1.0
C      1  0.5163670000000  0.5165550000000  0.4754890000000 1.0
C      1  0.5153940000000  0.4719700000000  0.5337310000000 1.0
C      1  0.4846280000000  0.4719700000000  0.5337420000000 1.0
C      1  0.4455260000000  0.5577140000000  0.5341310000000 1.0
C      1  0.5544980000000  0.5577130000000  0.5340950000000 1.0
C      1  0.5621230000000  0.5122470000000  0.5637480000000 1.0
C      1  0.4379190000000  0.5122490000000  0.5637890000000 1.0
C      1  0.4852450000000  0.5254860000000  0.4276300000000 1.0
C      1  0.5147080000000  0.5254850000000  0.4276200000000 1.0
C      1  0.5139630000000  0.5783190000000  0.5206340000000 1.0
C      1  0.4860530000000  0.5783190000000  0.5206440000000 1.0
C      1  0.5701190000000  0.5181710000000  0.5178420000000 1.0
C      1  0.4298940000000  0.5181730000000  0.5178890000000 1.0
C      1  0.5597380000000  0.4660490000000  0.5447400000000 1.0
C      1  0.4402900000000  0.4660500000000  0.5447800000000 1.0
C      1  0.5314510000000  0.4596020000000  0.5547650000000 1.0
C      1  0.4685840000000  0.4596030000000  0.5547860000000 1.0
C      1  0.5532320000000  0.4799470000000  0.4395810000000 1.0
C      1  0.4467270000000  0.4799490000000  0.4396160000000 1.0
C      1  0.5779770000000  0.5377840000000  0.4992410000000 1.0
C      1  0.4220230000000  0.5377870000000  0.4992920000000 1.0
C      1  0.4855590000000  0.4984490000000  0.4166000000000 1.0
C      1  0.5143860000000  0.4984490000000  0.4165910000000 1.0
C      1  0.4287820000000  0.4871050000000  0.5565970000000 1.0
C      1  0.5712550000000  0.4871030000000  0.5565500000000 1.0
C      1  0.5280130000000  0.4998940000000  0.5316270000000 1.0
C      1  0.4720080000000  0.4998950000000  0.5316460000000 1.0
C      1  0.4486880000000  0.4325330000000  0.4886150000000 1.0
C      1  0.5513030000000  0.4325310000000  0.4885810000000 1.0
C      1  0.5501740000000  0.4956610000000  0.5114460000000 1.0
C      1  0.4498340000000  0.4956620000000  0.5114790000000 1.0
C      1  0.4863190000000  0.4089970000000  0.4926600000000 1.0
C      1  0.5136740000000  0.4089960000000  0.4926500000000 1.0
C      1  0.5151400000000  0.4529140000000  0.5103140000000 1.0
C      1  0.4848660000000  0.4529140000000  0.5103240000000 1.0
C      1  0.4838020000000  0.5649050000000  0.4936910000000 1.0
C      1  0.5161960000000  0.5649050000000  0.4936810000000 1.0
C      1  0.5293060000000  0.4756820000000  0.4250170000000 1.0
C      1  0.4706430000000  0.4756830000000  0.4250360000000 1.0
C      1  0.5135840000000  0.5226710000000  0.5207080000000 1.0
C      1  0.4864300000000  0.5226720000000  0.5207170000000 1.0
C      1  0.5656210000000  0.4566210000000  0.4890350000000 1.0
C      1  0.4343710000000  0.4566230000000  0.4890790000000 1.0
END
