TITL C-19910-682-3 -30.7449103538394 125000 -908.416584908164 0 0 125 (C2v) n - 1
REM
REM in /rds/project/t2_vol4/rds-t2-cs072/BORA/CARBON/from-Arr/AIRSS/Generating-Clusters/GAP-ML-2020/Higher-Symm/SD-CG/HFTN-CG
REM
REM
REM
REM
REM
REM ./C.cell (b20cbc046b6831c77cfcea5457e17084)
REM AIRSS Version 0.9.1 bugfix July 2018 build 013d7b7c2542+ Fri, 06 Jul 2018 19:26:36 +0100
REM compiler GCC version 9.3.0
REM options -cpp -mtune=generic -march=x86-64 -g -O0
REM seed -2070169830 -1612259287 -379275785 -1767991951 -872954441 -1656194576 -1774309822 -1019592665 222737007 921269937 1319136603 -584776812 -2089903447 -1566752985 83369563 1217983561 -114900206 1514584887 863118328 -1333738115 215460828 -1606423042 -770563606 1226265914 656729747 1877802655 -587954522 500037516 1223124599 -1609459330 1719758292 2010865334 -1517878916
REM
CELL 1.54180   50.00000   50.00000   50.00000   90.00000   90.00000   90.00000
LATT -1
SFAC C  
C      1  0.4225160000000  0.5146700000000  0.5574560000000 1.0
C      1  0.4234820000000  0.4870760000000  0.4430900000000 1.0
C      1  0.5769110000000  0.5146600000000  0.5574550000000 1.0
C      1  0.5759410000000  0.4870660000000  0.4430900000000 1.0
C      1  0.4225150000000  0.5146620000000  0.4425360000000 1.0
C      1  0.4234820000000  0.4870840000000  0.5569050000000 1.0
C      1  0.5769110000000  0.5146520000000  0.4425350000000 1.0
C      1  0.5759410000000  0.4870740000000  0.5569050000000 1.0
C      1  0.5246560000000  0.5291460000000  0.4835600000000 1.0
C      1  0.5221950000000  0.4817500000000  0.5227740000000 1.0
C      1  0.4747720000000  0.5291490000000  0.4835600000000 1.0
C      1  0.4772270000000  0.4817530000000  0.5227740000000 1.0
C      1  0.5246560000000  0.5291480000000  0.5164290000000 1.0
C      1  0.5221950000000  0.4817470000000  0.4772220000000 1.0
C      1  0.4747720000000  0.5291520000000  0.5164290000000 1.0
C      1  0.4772270000000  0.4817500000000  0.4772220000000 1.0
C      1  0.5139450000000  0.5570930000000  0.4216360000000 1.0
C      1  0.5139220000000  0.4432940000000  0.5793790000000 1.0
C      1  0.4854860000000  0.5570950000000  0.4216360000000 1.0
C      1  0.4854950000000  0.4432960000000  0.5793790000000 1.0
C      1  0.5139460000000  0.5571040000000  0.5783490000000 1.0
C      1  0.5139220000000  0.4432830000000  0.4206220000000 1.0
C      1  0.4854870000000  0.5571060000000  0.5783490000000 1.0
C      1  0.4854950000000  0.4432850000000  0.4206220000000 1.0
C      1  0.4301730000000  0.4465690000000  0.5345300000000 1.0
C      1  0.4280420000000  0.5561120000000  0.4648590000000 1.0
C      1  0.5692450000000  0.4465600000000  0.5345300000000 1.0
C      1  0.5713900000000  0.5561020000000  0.4648580000000 1.0
C      1  0.4301730000000  0.4465640000000  0.4654710000000 1.0
C      1  0.4280420000000  0.5561170000000  0.5351270000000 1.0
C      1  0.5692440000000  0.4465550000000  0.4654700000000 1.0
C      1  0.5713900000000  0.5561070000000  0.5351260000000 1.0
C      1  0.4405510000000  0.4298670000000  0.4854990000000 1.0
C      1  0.4385620000000  0.5731140000000  0.5147910000000 1.0
C      1  0.5588650000000  0.4298590000000  0.4854990000000 1.0
C      1  0.5608720000000  0.5731060000000  0.5147900000000 1.0
C      1  0.4405510000000  0.4298690000000  0.5145040000000 1.0
C      1  0.4385620000000  0.5731120000000  0.4851920000000 1.0
C      1  0.5588650000000  0.4298610000000  0.5145040000000 1.0
C      1  0.5608720000000  0.5731040000000  0.4851920000000 1.0
C      1  0.4625610000000  0.4865830000000  0.4141900000000 1.0
C      1  0.4621930000000  0.5150510000000  0.5862760000000 1.0
C      1  0.5368610000000  0.4865780000000  0.4141890000000 1.0
C      1  0.5372340000000  0.5150460000000  0.5862750000000 1.0
C      1  0.4625620000000  0.4865950000000  0.5858060000000 1.0
C      1  0.4621920000000  0.5150380000000  0.4137160000000 1.0
C      1  0.5368620000000  0.4865900000000  0.5858050000000 1.0
C      1  0.5372340000000  0.5150330000000  0.4137150000000 1.0
C      1  0.4704880000000  0.4330150000000  0.5589720000000 1.0
C      1  0.4710820000000  0.5630720000000  0.4442220000000 1.0
C      1  0.5289280000000  0.4330110000000  0.5589720000000 1.0
C      1  0.5283510000000  0.5630680000000  0.4442220000000 1.0
C      1  0.4704870000000  0.4330070000000  0.4410300000000 1.0
C      1  0.4710820000000  0.5630790000000  0.5557620000000 1.0
C      1  0.5289280000000  0.4330030000000  0.4410300000000 1.0
C      1  0.5283510000000  0.5630760000000  0.5557620000000 1.0
C      1  0.4841560000000  0.5586960000000  0.5284830000000 1.0
C      1  0.4852960000000  0.4223630000000  0.4634850000000 1.0
C      1  0.5152760000000  0.5586940000000  0.5284830000000 1.0
C      1  0.5141180000000  0.4223610000000  0.4634850000000 1.0
C      1  0.4841560000000  0.5586920000000  0.4715020000000 1.0
C      1  0.4852960000000  0.4223680000000  0.5365190000000 1.0
C      1  0.5152760000000  0.5586900000000  0.4715020000000 1.0
C      1  0.5141180000000  0.4223660000000  0.5365190000000 1.0
C      1  0.5569600000000  0.4724340000000  0.5713640000000 1.0
C      1  0.5579910000000  0.5289140000000  0.4278900000000 1.0
C      1  0.4424620000000  0.4724410000000  0.5713640000000 1.0
C      1  0.4414370000000  0.5289220000000  0.4278900000000 1.0
C      1  0.5569590000000  0.4724240000000  0.4286330000000 1.0
C      1  0.5579910000000  0.5289240000000  0.5720990000000 1.0
C      1  0.4424610000000  0.4724310000000  0.4286330000000 1.0
C      1  0.4414380000000  0.5289320000000  0.5720990000000 1.0
C      1  0.5533290000000  0.4471540000000  0.5577480000000 1.0
C      1  0.5545760000000  0.5538200000000  0.4420310000000 1.0
C      1  0.4460890000000  0.4471610000000  0.5577490000000 1.0
C      1  0.4448550000000  0.5538270000000  0.4420320000000 1.0
C      1  0.5533290000000  0.4471460000000  0.4422520000000 1.0
C      1  0.5545760000000  0.5538280000000  0.5579540000000 1.0
C      1  0.4460880000000  0.4471530000000  0.4422520000000 1.0
C      1  0.4448560000000  0.5538360000000  0.5579540000000 1.0
C      1  0.3978990000000  0.5152280000000  0.4851910000000 1.0
C      1  0.3993470000000  0.4862340000000  0.5146310000000 1.0
C      1  0.6015280000000  0.5152140000000  0.4851910000000 1.0
C      1  0.6000760000000  0.4862210000000  0.5146310000000 1.0
C      1  0.3978990000000  0.5152300000000  0.5148000000000 1.0
C      1  0.3993470000000  0.4862320000000  0.4853640000000 1.0
C      1  0.6015280000000  0.5152160000000  0.5148000000000 1.0
C      1  0.6000760000000  0.4862190000000  0.4853640000000 1.0
C      1  0.4209790000000  0.4746910000000  0.4697980000000 1.0
C      1  0.4178820000000  0.5280750000000  0.5315450000000 1.0
C      1  0.5784420000000  0.4746800000000  0.4697980000000 1.0
C      1  0.5815470000000  0.5280640000000  0.5315440000000 1.0
C      1  0.4209790000000  0.4746950000000  0.5301990000000 1.0
C      1  0.4178810000000  0.5280700000000  0.4684450000000 1.0
C      1  0.5784420000000  0.4746850000000  0.5301990000000 1.0
C      1  0.5815470000000  0.5280590000000  0.4684440000000 1.0
C      1  0.5503870000000  0.4874610000000  0.4849690000000 1.0
C      1  0.5532910000000  0.5182820000000  0.5151360000000 1.0
C      1  0.4490360000000  0.4874680000000  0.4849690000000 1.0
C      1  0.4461370000000  0.5182890000000  0.5151370000000 1.0
C      1  0.5503870000000  0.4874630000000  0.5150250000000 1.0
C      1  0.5532910000000  0.5182790000000  0.4848540000000 1.0
C      1  0.4490360000000  0.4874700000000  0.5150260000000 1.0
C      1  0.4461360000000  0.5182870000000  0.4848540000000 1.0
C      1  0.5316210000000  0.4193110000000  0.5146550000000 1.0
C      1  0.5323500000000  0.5783760000000  0.4857310000000 1.0
C      1  0.4677930000000  0.4193150000000  0.5146560000000 1.0
C      1  0.4670850000000  0.5783800000000  0.4857310000000 1.0
C      1  0.5316210000000  0.4193090000000  0.4853490000000 1.0
C      1  0.5323500000000  0.5783780000000  0.5142510000000 1.0
C      1  0.4677930000000  0.4193130000000  0.4853490000000 1.0
C      1  0.4670850000000  0.5783820000000  0.5142510000000 1.0
C      1  0.4848060000000  0.5311100000000  0.4089710000000 1.0
C      1  0.4849250000000  0.4702180000000  0.5896310000000 1.0
C      1  0.5146220000000  0.5311080000000  0.4089710000000 1.0
C      1  0.5144970000000  0.4702160000000  0.5896310000000 1.0
C      1  0.4848070000000  0.5311230000000  0.5910180000000 1.0
C      1  0.4849240000000  0.4702050000000  0.4103660000000 1.0
C      1  0.5146230000000  0.5311210000000  0.5910180000000 1.0
C      1  0.5144960000000  0.4702030000000  0.4103660000000 1.0
C      1  0.4859520000000  0.5075920000000  0.4676690000000 1.0
C      1  0.4859530000000  0.5075970000000  0.5323240000000 1.0
C      1  0.5134730000000  0.5075900000000  0.4676680000000 1.0
C      1  0.5134730000000  0.5075950000000  0.5323240000000 1.0
C      1  0.4997110000000  0.4730030000000  0.4999980000000 1.0
END
