TITL C-19517-9522-6 23.3052214165257 125000 -649.226446675571 0 0 96 (C1) n - 1
REM
REM in /rds/project/t2_vol4/rds-t2-cs072/BORA/CARBON/from-Arr/AIRSS/Generating-Clusters/GAP-ML-2020/Higher-Symm/SD-CG/HFTN-CG
REM
REM
REM
REM
REM
REM ./C.cell (b20cbc046b6831c77cfcea5457e17084)
REM AIRSS Version 0.9.1 bugfix July 2018 build 013d7b7c2542+ Fri, 06 Jul 2018 19:26:36 +0100
REM compiler GCC version 9.3.0
REM options -cpp -mtune=generic -march=x86-64 -g -O0
REM seed -1048629543 -1134193126 -435692620 -1785784222 -1629979496 117471580 -1038788731 -2101526506 595126116 -96858237 -634566072 1139717969 509091568 -153973891 -379427066 -1999615248 1329211385 -2138051473 -923906208 1103660337 -1659362782 -688232752 1212056490 1088368442 -1410826631 701343353 1607778167 -2070411127 1093811608 522695686 -790866583 526415613 209729176
REM
CELL 1.54180   50.00000   50.00000   50.00000   90.00000   90.00000   90.00000
LATT -1
SFAC C  
C      1  0.4847540000000  0.5266910000000  0.4686970000000 1.0
C      1  0.5128560000000  0.5314370000000  0.4623440000000 1.0
C      1  0.5361500000000  0.5261590000000  0.4805230000000 1.0
C      1  0.5366410000000  0.5383420000000  0.5074270000000 1.0
C      1  0.5199560000000  0.5280640000000  0.5289310000000 1.0
C      1  0.4923610000000  0.5415870000000  0.5335140000000 1.0
C      1  0.4680520000000  0.5276800000000  0.5223690000000 1.0
C      1  0.4652120000000  0.5220330000000  0.4913270000000 1.0
C      1  0.4882830000000  0.4742990000000  0.4912430000000 1.0
C      1  0.5033390000000  0.5029640000000  0.4651630000000 1.0
C      1  0.5281440000000  0.4965330000000  0.4810730000000 1.0
C      1  0.5145860000000  0.4826750000000  0.5031430000000 1.0
C      1  0.5133700000000  0.4998510000000  0.5281470000000 1.0
C      1  0.4907100000000  0.4913580000000  0.5429480000000 1.0
C      1  0.4679450000000  0.4980980000000  0.5287320000000 1.0
C      1  0.4648250000000  0.4896760000000  0.5000730000000 1.0
C      1  0.4190040000000  0.5136140000000  0.4785310000000 1.0
C      1  0.4594940000000  0.5109980000000  0.4278100000000 1.0
C      1  0.5236880000000  0.5173840000000  0.4156170000000 1.0
C      1  0.5772990000000  0.5132170000000  0.4566530000000 1.0
C      1  0.5791790000000  0.5143510000000  0.5185590000000 1.0
C      1  0.5430220000000  0.5186670000000  0.5755460000000 1.0
C      1  0.4763520000000  0.5018070000000  0.5913770000000 1.0
C      1  0.4285020000000  0.5188770000000  0.5505860000000 1.0
C      1  0.4442710000000  0.4290040000000  0.4878450000000 1.0
C      1  0.4649410000000  0.4251740000000  0.4680290000000 1.0
C      1  0.4911140000000  0.4254450000000  0.4578250000000 1.0
C      1  0.5445270000000  0.4282670000000  0.4680960000000 1.0
C      1  0.5502730000000  0.4268170000000  0.4964230000000 1.0
C      1  0.5405580000000  0.4278170000000  0.5227180000000 1.0
C      1  0.4948600000000  0.4268800000000  0.5415920000000 1.0
C      1  0.4680340000000  0.4267270000000  0.5319350000000 1.0
C      1  0.5732890000000  0.4953450000000  0.5397660000000 1.0
C      1  0.5289070000000  0.4971960000000  0.5897360000000 1.0
C      1  0.4569990000000  0.4822620000000  0.5806110000000 1.0
C      1  0.4134720000000  0.5024010000000  0.5316800000000 1.0
C      1  0.4237100000000  0.4903330000000  0.4596010000000 1.0
C      1  0.4781420000000  0.4902880000000  0.4181630000000 1.0
C      1  0.5439700000000  0.4967860000000  0.4226390000000 1.0
C      1  0.5840530000000  0.4905000000000  0.4739490000000 1.0
C      1  0.4840900000000  0.5765650000000  0.4624420000000 1.0
C      1  0.5122630000000  0.5794500000000  0.4567380000000 1.0
C      1  0.5343260000000  0.5752760000000  0.4748400000000 1.0
C      1  0.5360270000000  0.5697650000000  0.5040060000000 1.0
C      1  0.5213910000000  0.5772620000000  0.5286430000000 1.0
C      1  0.4932010000000  0.5690090000000  0.5265400000000 1.0
C      1  0.4679460000000  0.5763790000000  0.5142480000000 1.0
C      1  0.4656570000000  0.5755110000000  0.4854890000000 1.0
C      1  0.5441770000000  0.4766060000000  0.5737610000000 1.0
C      1  0.4729690000000  0.4596200000000  0.5716200000000 1.0
C      1  0.4233770000000  0.4772040000000  0.5440070000000 1.0
C      1  0.4246420000000  0.4650010000000  0.4744850000000 1.0
C      1  0.4691920000000  0.4707010000000  0.4413030000000 1.0
C      1  0.5236240000000  0.4761600000000  0.4230870000000 1.0
C      1  0.5675050000000  0.4703320000000  0.4573490000000 1.0
C      1  0.5621520000000  0.4734620000000  0.5190990000000 1.0
C      1  0.5608440000000  0.5625430000000  0.4719540000000 1.0
C      1  0.5664350000000  0.5643150000000  0.5012440000000 1.0
C      1  0.5340350000000  0.5652430000000  0.5498300000000 1.0
C      1  0.4971530000000  0.5389710000000  0.5638090000000 1.0
C      1  0.4459390000000  0.5661940000000  0.5295640000000 1.0
C      1  0.4464930000000  0.5592230000000  0.4706570000000 1.0
C      1  0.4640890000000  0.5602770000000  0.4470160000000 1.0
C      1  0.5184220000000  0.5659980000000  0.4321060000000 1.0
C      1  0.4467830000000  0.4356120000000  0.5159900000000 1.0
C      1  0.4206480000000  0.4383160000000  0.4737770000000 1.0
C      1  0.4694860000000  0.4413080000000  0.4456840000000 1.0
C      1  0.5179500000000  0.4340550000000  0.4558840000000 1.0
C      1  0.5662290000000  0.4423140000000  0.4556270000000 1.0
C      1  0.5620850000000  0.4444920000000  0.5147990000000 1.0
C      1  0.5221450000000  0.4343510000000  0.5429960000000 1.0
C      1  0.4729920000000  0.4355920000000  0.5582300000000 1.0
C      1  0.4358880000000  0.4926280000000  0.5654510000000 1.0
C      1  0.4165350000000  0.4998710000000  0.5039900000000 1.0
C      1  0.4448680000000  0.4895610000000  0.4416370000000 1.0
C      1  0.5041380000000  0.4944870000000  0.4119860000000 1.0
C      1  0.5666570000000  0.4941330000000  0.4373190000000 1.0
C      1  0.5771810000000  0.4918870000000  0.5003740000000 1.0
C      1  0.5614970000000  0.4977300000000  0.5642840000000 1.0
C      1  0.5025790000000  0.4898700000000  0.5888140000000 1.0
C      1  0.4702370000000  0.5332590000000  0.4418950000000 1.0
C      1  0.5189080000000  0.5394680000000  0.4329260000000 1.0
C      1  0.5611030000000  0.5346950000000  0.4656740000000 1.0
C      1  0.5666010000000  0.5394390000000  0.5146850000000 1.0
C      1  0.5274790000000  0.5382990000000  0.5590580000000 1.0
C      1  0.4810600000000  0.5255600000000  0.5798360000000 1.0
C      1  0.4441750000000  0.5403530000000  0.5374550000000 1.0
C      1  0.4387040000000  0.5336870000000  0.4803970000000 1.0
C      1  0.5321580000000  0.4759020000000  0.5264180000000 1.0
C      1  0.5259710000000  0.4621760000000  0.5539040000000 1.0
C      1  0.4988420000000  0.4730610000000  0.5648230000000 1.0
C      1  0.4323530000000  0.4595130000000  0.5232590000000 1.0
C      1  0.4348830000000  0.4769860000000  0.4998470000000 1.0
C      1  0.4919330000000  0.4756440000000  0.4615180000000 1.0
C      1  0.5179700000000  0.4631020000000  0.4499630000000 1.0
C      1  0.5391700000000  0.4739780000000  0.4667240000000 1.0
END
