TITL C-19913-9958-2 -0.0146515433481667 125000 -236.55004334794 0 0 35 (C1) n - 1
REM
REM in /rds/project/t2_vol4/rds-t2-cs072/BORA/CARBON/from-Arr/AIRSS/Generating-Clusters/GAP-ML-2020/Higher-Symm/SD-CG/HFTN-CG
REM
REM
REM
REM
REM
REM ./C.cell (b20cbc046b6831c77cfcea5457e17084)
REM AIRSS Version 0.9.1 bugfix July 2018 build 013d7b7c2542+ Fri, 06 Jul 2018 19:26:36 +0100
REM compiler GCC version 9.3.0
REM options -cpp -mtune=generic -march=x86-64 -g -O0
REM seed 615510939 -806765258 2059883003 -1128216701 1573179967 863805562 1851701722 1515350946 1317348223 -255689512 554265973 -969382295 1611300359 -2099764414 2006340863 208932992 -817902436 1121782642 -1174723278 1870625903 980863233 302448337 -1011730810 1296955880 198070178 -650355950 -719371289 1439157313 1195089282 1479230240 -762324700 -1176599432 995783468
REM
CELL 1.54180   50.00000   50.00000   50.00000   90.00000   90.00000   90.00000
LATT -1
SFAC C  
C      1  0.5154010000000  0.4966910000000  0.4542970000000 1.0
C      1  0.4706500000000  0.5261840000000  0.4766900000000 1.0
C      1  0.4544760000000  0.5349260000000  0.4984860000000 1.0
C      1  0.4802700000000  0.4688150000000  0.4398170000000 1.0
C      1  0.4594010000000  0.4894450000000  0.5233560000000 1.0
C      1  0.5003760000000  0.5028430000000  0.5515630000000 1.0
C      1  0.4484100000000  0.4769310000000  0.5018490000000 1.0
C      1  0.5566020000000  0.5333820000000  0.5051880000000 1.0
C      1  0.5465000000000  0.5131640000000  0.4897360000000 1.0
C      1  0.5475550000000  0.4630760000000  0.4888460000000 1.0
C      1  0.4839440000000  0.4815260000000  0.5390830000000 1.0
C      1  0.4995760000000  0.5337540000000  0.4827470000000 1.0
C      1  0.5416740000000  0.4836860000000  0.5308510000000 1.0
C      1  0.4988880000000  0.4595670000000  0.5289280000000 1.0
C      1  0.4671550000000  0.4584200000000  0.4627100000000 1.0
C      1  0.5059460000000  0.4679440000000  0.4541950000000 1.0
C      1  0.5109690000000  0.5445050000000  0.5335090000000 1.0
C      1  0.4602680000000  0.5050860000000  0.4615090000000 1.0
C      1  0.4520490000000  0.4800040000000  0.4752200000000 1.0
C      1  0.5214380000000  0.5161970000000  0.4751950000000 1.0
C      1  0.4706960000000  0.5528720000000  0.5141580000000 1.0
C      1  0.4910810000000  0.5295740000000  0.5486260000000 1.0
C      1  0.5513760000000  0.4876450000000  0.5027940000000 1.0
C      1  0.4739130000000  0.4964730000000  0.4369540000000 1.0
C      1  0.5295370000000  0.5049070000000  0.5456630000000 1.0
C      1  0.4986550000000  0.5505530000000  0.5073250000000 1.0
C      1  0.4662880000000  0.5365010000000  0.5375610000000 1.0
C      1  0.5599770000000  0.5430440000000  0.5286680000000 1.0
C      1  0.4992510000000  0.5061040000000  0.4320850000000 1.0
C      1  0.4925450000000  0.4519950000000  0.4755270000000 1.0
C      1  0.4509290000000  0.5172820000000  0.5225770000000 1.0
C      1  0.5356110000000  0.5322490000000  0.5388620000000 1.0
C      1  0.5274290000000  0.4594300000000  0.5308510000000 1.0
C      1  0.5010930000000  0.4469750000000  0.5012050000000 1.0
C      1  0.5300700000000  0.4482500000000  0.5033690000000 1.0
END
