TITL C-199736-9267-9 568.236951756139 125000 -655.050180964473 0 0 95 (C1) n - 1
REM
REM in /rds/project/t2_vol4/rds-t2-cs072/BORA/CARBON/from-Arr/AIRSS/Generating-Clusters/GAP-ML-2020/Higher-Symm/SD-CG/HFTN-CG
REM
REM
REM
REM
REM
REM ./C.cell (b20cbc046b6831c77cfcea5457e17084)
REM AIRSS Version 0.9.1 bugfix July 2018 build 013d7b7c2542+ Fri, 06 Jul 2018 19:26:36 +0100
REM compiler GCC version 9.3.0
REM options -cpp -mtune=generic -march=x86-64 -g -O0
REM seed 875457700 -496159224 -648174273 1464168894 -1543425626 -839585638 1696612277 2116529141 -221141204 -1021750526 -1071182300 -86138554 -1775191268 -1151635455 292247973 -1714745882 1305482164 1703321381 1229718717 34271567 1394167861 1183210096 -170200470 650095622 -1281510012 357434066 1190222404 -440147769 -1255723115 38509971 -1083783619 1086383560 1857212928
REM
CELL 1.54180   50.00000   50.00000   50.00000   90.00000   90.00000   90.00000
LATT -1
SFAC C  
C      1  0.5607520000000  0.4817540000000  0.4476210000000 1.0
C      1  0.5567470000000  0.5467830000000  0.4709470000000 1.0
C      1  0.5565770000000  0.5438140000000  0.5365110000000 1.0
C      1  0.5594120000000  0.4831570000000  0.5555380000000 1.0
C      1  0.5565830000000  0.4436760000000  0.4990300000000 1.0
C      1  0.4152330000000  0.5011790000000  0.5227670000000 1.0
C      1  0.4150130000000  0.4777750000000  0.5065540000000 1.0
C      1  0.4153900000000  0.4859370000000  0.4794480000000 1.0
C      1  0.4155190000000  0.5143850000000  0.4788980000000 1.0
C      1  0.4155780000000  0.5238190000000  0.5056900000000 1.0
C      1  0.4659690000000  0.5657530000000  0.4542890000000 1.0
C      1  0.4661540000000  0.5627250000000  0.5472890000000 1.0
C      1  0.4638680000000  0.4739100000000  0.5738240000000 1.0
C      1  0.4646420000000  0.4206430000000  0.4966280000000 1.0
C      1  0.4654630000000  0.4770970000000  0.4231940000000 1.0
C      1  0.5766270000000  0.5043350000000  0.5517850000000 1.0
C      1  0.5733770000000  0.4553200000000  0.5192410000000 1.0
C      1  0.5772600000000  0.4674750000000  0.4642810000000 1.0
C      1  0.5742150000000  0.5261170000000  0.4613860000000 1.0
C      1  0.5744590000000  0.5473240000000  0.5146880000000 1.0
C      1  0.4849860000000  0.5330760000000  0.5250310000000 1.0
C      1  0.4843310000000  0.4853570000000  0.5393840000000 1.0
C      1  0.4841770000000  0.4572580000000  0.4979680000000 1.0
C      1  0.4850990000000  0.4875320000000  0.4581600000000 1.0
C      1  0.4848090000000  0.5348420000000  0.4752700000000 1.0
C      1  0.5163440000000  0.4624610000000  0.4332290000000 1.0
C      1  0.5158960000000  0.5496640000000  0.4439130000000 1.0
C      1  0.5160080000000  0.5675660000000  0.5294390000000 1.0
C      1  0.5148800000000  0.4908670000000  0.5750700000000 1.0
C      1  0.5144240000000  0.4263480000000  0.5157880000000 1.0
C      1  0.4750150000000  0.5650850000000  0.4835110000000 1.0
C      1  0.4747620000000  0.5345920000000  0.5555870000000 1.0
C      1  0.4723350000000  0.4572550000000  0.5496820000000 1.0
C      1  0.4742090000000  0.4384360000000  0.4735760000000 1.0
C      1  0.4739160000000  0.5046780000000  0.4331700000000 1.0
C      1  0.5164840000000  0.4311140000000  0.5438020000000 1.0
C      1  0.5203100000000  0.4360750000000  0.4445880000000 1.0
C      1  0.5184150000000  0.5294640000000  0.4240120000000 1.0
C      1  0.5201820000000  0.5848410000000  0.5065990000000 1.0
C      1  0.5192150000000  0.5186120000000  0.5823340000000 1.0
C      1  0.5456580000000  0.5861030000000  0.4974060000000 1.0
C      1  0.5438070000000  0.5297530000000  0.5812790000000 1.0
C      1  0.5345480000000  0.4502790000000  0.5521150000000 1.0
C      1  0.5446430000000  0.4295830000000  0.4543010000000 1.0
C      1  0.5367110000000  0.5094940000000  0.4294350000000 1.0
C      1  0.5303060000000  0.4845700000000  0.4465940000000 1.0
C      1  0.5287200000000  0.5423840000000  0.4682960000000 1.0
C      1  0.5288840000000  0.5424780000000  0.5296000000000 1.0
C      1  0.5289460000000  0.4806780000000  0.5516580000000 1.0
C      1  0.5282320000000  0.4460840000000  0.5008780000000 1.0
C      1  0.4891550000000  0.5270650000000  0.4240370000000 1.0
C      1  0.4907680000000  0.5813870000000  0.5021640000000 1.0
C      1  0.4900020000000  0.5218870000000  0.5770920000000 1.0
C      1  0.4872480000000  0.4334710000000  0.5442710000000 1.0
C      1  0.4907510000000  0.4362290000000  0.4495650000000 1.0
C      1  0.5896660000000  0.5131280000000  0.4813480000000 1.0
C      1  0.5895040000000  0.5240700000000  0.5081210000000 1.0
C      1  0.5899250000000  0.5021990000000  0.5266360000000 1.0
C      1  0.5892400000000  0.4776500000000  0.5112520000000 1.0
C      1  0.5903260000000  0.4842520000000  0.4833890000000 1.0
C      1  0.4358310000000  0.4577620000000  0.5130530000000 1.0
C      1  0.4366690000000  0.4735720000000  0.4629080000000 1.0
C      1  0.4368080000000  0.5262920000000  0.4622980000000 1.0
C      1  0.4370990000000  0.5431210000000  0.5123390000000 1.0
C      1  0.4363520000000  0.5008720000000  0.5435000000000 1.0
C      1  0.4404590000000  0.5507930000000  0.5400520000000 1.0
C      1  0.4386410000000  0.4770930000000  0.5596720000000 1.0
C      1  0.4393860000000  0.4352330000000  0.4951680000000 1.0
C      1  0.4399180000000  0.4831850000000  0.4359010000000 1.0
C      1  0.4405100000000  0.5549620000000  0.4637160000000 1.0
C      1  0.5624480000000  0.5636250000000  0.4933420000000 1.0
C      1  0.5623450000000  0.5287700000000  0.5599640000000 1.0
C      1  0.5618570000000  0.4564730000000  0.5456140000000 1.0
C      1  0.5629150000000  0.4427600000000  0.4714390000000 1.0
C      1  0.5633140000000  0.5093540000000  0.4404350000000 1.0
C      1  0.4857350000000  0.4929640000000  0.5716770000000 1.0
C      1  0.4847900000000  0.4286120000000  0.5151620000000 1.0
C      1  0.4870230000000  0.4627330000000  0.4365450000000 1.0
C      1  0.4861570000000  0.5481600000000  0.4445600000000 1.0
C      1  0.4868020000000  0.5663500000000  0.5276150000000 1.0
C      1  0.4434430000000  0.4560290000000  0.5410220000000 1.0
C      1  0.4450780000000  0.4463810000000  0.4695030000000 1.0
C      1  0.4449160000000  0.5111110000000  0.4387760000000 1.0
C      1  0.4457940000000  0.5611020000000  0.4910910000000 1.0
C      1  0.4453430000000  0.5265690000000  0.5541780000000 1.0
C      1  0.4621110000000  0.4964780000000  0.5236190000000 1.0
C      1  0.4619140000000  0.4754850000000  0.5033140000000 1.0
C      1  0.4624130000000  0.4883320000000  0.4769710000000 1.0
C      1  0.4623010000000  0.5172780000000  0.4811190000000 1.0
C      1  0.4623750000000  0.5222640000000  0.5098710000000 1.0
C      1  0.5116050000000  0.4918270000000  0.4728930000000 1.0
C      1  0.5114730000000  0.5219160000000  0.4838620000000 1.0
C      1  0.5119090000000  0.5203190000000  0.5165090000000 1.0
C      1  0.5112050000000  0.4896430000000  0.5250100000000 1.0
C      1  0.5113800000000  0.4717330000000  0.4981440000000 1.0
END
