TITL C-19921-9195-5 -649.165659517476 125000 -401.574807885048 0 0 59 (C1) n - 1
REM
REM in /rds/project/t2_vol4/rds-t2-cs072/BORA/CARBON/from-Arr/AIRSS/Generating-Clusters/GAP-ML-2020/Higher-Symm/SD-CG/HFTN-CG
REM
REM
REM
REM
REM
REM ./C.cell (b20cbc046b6831c77cfcea5457e17084)
REM AIRSS Version 0.9.1 bugfix July 2018 build 013d7b7c2542+ Fri, 06 Jul 2018 19:26:36 +0100
REM compiler GCC version 9.3.0
REM options -cpp -mtune=generic -march=x86-64 -g -O0
REM seed -1766884019 -833649519 1442682626 -1200869114 -2030110538 2020195766 -1149975335 -872658532 -1078432979 -1321539029 607948018 -582577259 -287782036 -283119028 -2019022952 1121575786 476181244 -2062099965 -584460990 -329032819 756896971 -1712785516 491379941 2034051466 -1749011518 -1701158605 -518602190 721586243 -722451706 756947905 -1714369194 1537589051 -662929566
REM
CELL 1.54180   50.00000   50.00000   50.00000   90.00000   90.00000   90.00000
LATT -1
SFAC C  
C      1  0.4892550000000  0.5519020000000  0.4411720000000 1.0
C      1  0.4862570000000  0.4444230000000  0.5439900000000 1.0
C      1  0.4604360000000  0.5131340000000  0.5541980000000 1.0
C      1  0.5374780000000  0.4754050000000  0.4479710000000 1.0
C      1  0.4714110000000  0.4539100000000  0.4888000000000 1.0
C      1  0.4848610000000  0.5681830000000  0.4847170000000 1.0
C      1  0.5450700000000  0.5409020000000  0.5445860000000 1.0
C      1  0.5549840000000  0.4950830000000  0.5157230000000 1.0
C      1  0.4767520000000  0.4953190000000  0.5169260000000 1.0
C      1  0.5185380000000  0.4805190000000  0.5494780000000 1.0
C      1  0.4639090000000  0.5117010000000  0.4512660000000 1.0
C      1  0.4835550000000  0.4893520000000  0.4468070000000 1.0
C      1  0.4373490000000  0.5137560000000  0.5371470000000 1.0
C      1  0.5473550000000  0.5137550000000  0.4744740000000 1.0
C      1  0.4339230000000  0.5352380000000  0.5196690000000 1.0
C      1  0.4967730000000  0.4293700000000  0.5203990000000 1.0
C      1  0.5406890000000  0.4485370000000  0.4512030000000 1.0
C      1  0.5178730000000  0.5000100000000  0.4786480000000 1.0
C      1  0.5275770000000  0.5609100000000  0.4992070000000 1.0
C      1  0.5005460000000  0.5208940000000  0.4895270000000 1.0
C      1  0.5354400000000  0.4538340000000  0.5012810000000 1.0
C      1  0.4543810000000  0.4964130000000  0.4761250000000 1.0
C      1  0.5409860000000  0.5397150000000  0.5147790000000 1.0
C      1  0.4897780000000  0.4730670000000  0.5071150000000 1.0
C      1  0.5382430000000  0.5355410000000  0.4577660000000 1.0
C      1  0.5048290000000  0.5381260000000  0.4235000000000 1.0
C      1  0.4823570000000  0.5327930000000  0.5517130000000 1.0
C      1  0.5020650000000  0.5675130000000  0.4618750000000 1.0
C      1  0.4997420000000  0.4937820000000  0.5659780000000 1.0
C      1  0.4889760000000  0.4297240000000  0.4924550000000 1.0
C      1  0.5303350000000  0.5318300000000  0.5632280000000 1.0
C      1  0.4942350000000  0.5439100000000  0.5282990000000 1.0
C      1  0.4722340000000  0.5133910000000  0.4959830000000 1.0
C      1  0.4310190000000  0.4893500000000  0.5238640000000 1.0
C      1  0.5241050000000  0.4391490000000  0.5244290000000 1.0
C      1  0.4351810000000  0.4829580000000  0.4950510000000 1.0
C      1  0.5000430000000  0.5645360000000  0.5084900000000 1.0
C      1  0.5168870000000  0.4787730000000  0.5002410000000 1.0
C      1  0.5086460000000  0.4206930000000  0.4758580000000 1.0
C      1  0.4688390000000  0.4728080000000  0.4654280000000 1.0
C      1  0.5575490000000  0.5196280000000  0.5011050000000 1.0
C      1  0.5743300000000  0.4731060000000  0.4786740000000 1.0
C      1  0.4644930000000  0.4621460000000  0.5499750000000 1.0
C      1  0.5144590000000  0.5234190000000  0.5167950000000 1.0
C      1  0.5268600000000  0.4946830000000  0.5244530000000 1.0
C      1  0.5585440000000  0.4893000000000  0.4623850000000 1.0
C      1  0.5607450000000  0.4705380000000  0.5020860000000 1.0
C      1  0.4512240000000  0.5378980000000  0.4998250000000 1.0
C      1  0.5280450000000  0.5584920000000  0.4711950000000 1.0
C      1  0.4607970000000  0.5539580000000  0.4786850000000 1.0
C      1  0.5141440000000  0.4533290000000  0.5473070000000 1.0
C      1  0.4656360000000  0.5398130000000  0.4531690000000 1.0
C      1  0.4719830000000  0.4877570000000  0.5625390000000 1.0
C      1  0.5200190000000  0.5224590000000  0.4391750000000 1.0
C      1  0.5043790000000  0.5215910000000  0.5664680000000 1.0
C      1  0.4432600000000  0.4638190000000  0.5311230000000 1.0
C      1  0.4456650000000  0.4568680000000  0.5027830000000 1.0
C      1  0.5135350000000  0.4944440000000  0.4483220000000 1.0
C      1  0.5314180000000  0.4365430000000  0.4745710000000 1.0
END
