TITL C-199729-9350-12 -0.0946973044088536 125000 -928.774323061444 0 0 132 (C3) n - 1
REM
REM in /rds/project/t2_vol4/rds-t2-cs072/BORA/CARBON/from-Arr/AIRSS/Generating-Clusters/GAP-ML-2020/Higher-Symm/SD-CG/HFTN-CG
REM
REM
REM
REM
REM
REM ./C.cell (b20cbc046b6831c77cfcea5457e17084)
REM AIRSS Version 0.9.1 bugfix July 2018 build 013d7b7c2542+ Fri, 06 Jul 2018 19:26:36 +0100
REM compiler GCC version 9.3.0
REM options -cpp -mtune=generic -march=x86-64 -g -O0
REM seed -1098002437 374638837 1252238773 933104086 -702597231 -1058988295 -727308146 1271191611 1164562218 2118741514 547230959 -299003151 1387004434 -207599980 -1873118286 -16047942 -1537952758 130519415 -2061257059 560091507 -1591511813 -1998383591 1990181048 -1848972760 1393270882 -2087013210 846303988 -936103567 -1854597706 -2001680104 1272772347 659334262 -379737836
REM
CELL 1.54180   50.00000   50.00000   50.00000   90.00000   90.00000   90.00000
LATT -1
SFAC C  
C      1  0.5862930000000  0.4920220000000  0.4859800000000 1.0
C      1  0.4689960000000  0.4920090000000  0.5817410000000 1.0
C      1  0.4447130000000  0.4920150000000  0.4322790000000 1.0
C      1  0.5862980000000  0.4920210000000  0.5139840000000 1.0
C      1  0.4689630000000  0.4920170000000  0.4182710000000 1.0
C      1  0.4447410000000  0.4920080000000  0.5677430000000 1.0
C      1  0.4753350000000  0.6096630000000  0.4853770000000 1.0
C      1  0.5249900000000  0.6096670000000  0.4859670000000 1.0
C      1  0.4996510000000  0.6096630000000  0.5286740000000 1.0
C      1  0.4753410000000  0.6096620000000  0.5146450000000 1.0
C      1  0.5249950000000  0.6096650000000  0.5140340000000 1.0
C      1  0.4996390000000  0.6096660000000  0.4713380000000 1.0
C      1  0.4994850000000  0.5465560000000  0.5321810000000 1.0
C      1  0.4723850000000  0.5465570000000  0.4834700000000 1.0
C      1  0.5281200000000  0.5465610000000  0.4843560000000 1.0
C      1  0.4994720000000  0.5465600000000  0.4678240000000 1.0
C      1  0.4723920000000  0.5465550000000  0.5165460000000 1.0
C      1  0.5281270000000  0.5465590000000  0.5156370000000 1.0
C      1  0.4510630000000  0.5931160000000  0.4853990000000 1.0
C      1  0.5371070000000  0.5931230000000  0.4649330000000 1.0
C      1  0.5118090000000  0.5931170000000  0.5496820000000 1.0
C      1  0.4510690000000  0.5931140000000  0.5146310000000 1.0
C      1  0.5371210000000  0.5931190000000  0.5350610000000 1.0
C      1  0.5117890000000  0.5931220000000  0.4503230000000 1.0
C      1  0.4498590000000  0.5193510000000  0.5559300000000 1.0
C      1  0.4766320000000  0.5193590000000  0.4286140000000 1.0
C      1  0.5735050000000  0.5193620000000  0.5154590000000 1.0
C      1  0.4498360000000  0.5193570000000  0.4440920000000 1.0
C      1  0.4766620000000  0.5193520000000  0.5713980000000 1.0
C      1  0.5734980000000  0.5193630000000  0.4845130000000 1.0
C      1  0.4599610000000  0.4737590000000  0.4848770000000 1.0
C      1  0.5331180000000  0.4737650000000  0.4728830000000 1.0
C      1  0.5069270000000  0.4737590000000  0.5422360000000 1.0
C      1  0.4599670000000  0.4737570000000  0.5151360000000 1.0
C      1  0.5331290000000  0.4737620000000  0.5271010000000 1.0
C      1  0.5069100000000  0.4737640000000  0.4577580000000 1.0
C      1  0.4281470000000  0.4439190000000  0.4861160000000 1.0
C      1  0.5479540000000  0.4439290000000  0.4447080000000 1.0
C      1  0.5239110000000  0.4439210000000  0.5691670000000 1.0
C      1  0.4281530000000  0.4439170000000  0.5139080000000 1.0
C      1  0.5479760000000  0.4439240000000  0.5552670000000 1.0
C      1  0.5238830000000  0.4439280000000  0.4308170000000 1.0
C      1  0.4832010000000  0.5437000000000  0.5872790000000 1.0
C      1  0.4328110000000  0.5437040000000  0.4418180000000 1.0
C      1  0.5839790000000  0.5437140000000  0.4709100000000 1.0
C      1  0.4831650000000  0.5437090000000  0.4127330000000 1.0
C      1  0.4328350000000  0.5436980000000  0.5582140000000 1.0
C      1  0.5839910000000  0.5437110000000  0.5290600000000 1.0
C      1  0.4515600000000  0.4454660000000  0.5561930000000 1.0
C      1  0.4755590000000  0.4454740000000  0.4299460000000 1.0
C      1  0.5728930000000  0.4454770000000  0.5138530000000 1.0
C      1  0.4515370000000  0.4454720000000  0.4438210000000 1.0
C      1  0.4755880000000  0.4454670000000  0.5700590000000 1.0
C      1  0.5728870000000  0.4454790000000  0.4861110000000 1.0
C      1  0.5754650000000  0.5664400000000  0.4861520000000 1.0
C      1  0.4742560000000  0.5664280000000  0.5722880000000 1.0
C      1  0.4502650000000  0.5664330000000  0.4415710000000 1.0
C      1  0.5754700000000  0.5664380000000  0.5138240000000 1.0
C      1  0.4742270000000  0.5664350000000  0.4277300000000 1.0
C      1  0.4502890000000  0.5664270000000  0.5584570000000 1.0
C      1  0.5260820000000  0.4994450000000  0.4854420000000 1.0
C      1  0.4995660000000  0.4994400000000  0.5298670000000 1.0
C      1  0.4743510000000  0.4994410000000  0.4846910000000 1.0
C      1  0.5260880000000  0.4994430000000  0.5145470000000 1.0
C      1  0.4995540000000  0.4994440000000  0.4701330000000 1.0
C      1  0.4743580000000  0.4994390000000  0.5153200000000 1.0
C      1  0.4994770000000  0.5209410000000  0.5500030000000 1.0
C      1  0.4569570000000  0.5209420000000  0.4745490000000 1.0
C      1  0.5435620000000  0.5209480000000  0.4754520000000 1.0
C      1  0.4994560000000  0.5209470000000  0.4500000000000 1.0
C      1  0.4569670000000  0.5209400000000  0.5254710000000 1.0
C      1  0.5435720000000  0.5209460000000  0.5245320000000 1.0
C      1  0.5498610000000  0.5676770000000  0.5298630000000 1.0
C      1  0.4492030000000  0.5676700000000  0.5282590000000 1.0
C      1  0.5009210000000  0.5676780000000  0.4418890000000 1.0
C      1  0.5498490000000  0.5676800000000  0.4701230000000 1.0
C      1  0.4491910000000  0.5676720000000  0.4717690000000 1.0
C      1  0.5009450000000  0.5676720000000  0.5581180000000 1.0
C      1  0.4362030000000  0.4689690000000  0.5542960000000 1.0
C      1  0.4848790000000  0.4689800000000  0.4175980000000 1.0
C      1  0.5789250000000  0.4689810000000  0.5281010000000 1.0
C      1  0.4361810000000  0.4689750000000  0.4457270000000 1.0
C      1  0.4849130000000  0.4689710000000  0.5824050000000 1.0
C      1  0.5789130000000  0.4689840000000  0.4718630000000 1.0
C      1  0.4162400000000  0.4953970000000  0.4858180000000 1.0
C      1  0.5541630000000  0.4954090000000  0.4345520000000 1.0
C      1  0.5295990000000  0.4954000000000  0.5796300000000 1.0
C      1  0.4162450000000  0.4953950000000  0.5142170000000 1.0
C      1  0.5541900000000  0.4954020000000  0.5654250000000 1.0
C      1  0.5295660000000  0.4954080000000  0.4203580000000 1.0
C      1  0.4982240000000  0.4311300000000  0.4428340000000 1.0
C      1  0.5503990000000  0.4311290000000  0.5270350000000 1.0
C      1  0.4513910000000  0.4311220000000  0.5301200000000 1.0
C      1  0.4982480000000  0.4311240000000  0.5571600000000 1.0
C      1  0.5503880000000  0.4311320000000  0.4729370000000 1.0
C      1  0.4513790000000  0.4311250000000  0.4698930000000 1.0
C      1  0.5226250000000  0.5235220000000  0.5696350000000 1.0
C      1  0.4283800000000  0.5235200000000  0.4847800000000 1.0
C      1  0.5489890000000  0.5235310000000  0.4455890000000 1.0
C      1  0.5225960000000  0.5235300000000  0.4303580000000 1.0
C      1  0.4283870000000  0.5235180000000  0.5152520000000 1.0
C      1  0.5490120000000  0.5235250000000  0.5543930000000 1.0
C      1  0.5247290000000  0.3870050000000  0.5147980000000 1.0
C      1  0.4748270000000  0.3870020000000  0.5140010000000 1.0
C      1  0.5004680000000  0.3870060000000  0.4711840000000 1.0
C      1  0.5247230000000  0.3870070000000  0.4851800000000 1.0
C      1  0.4748220000000  0.3870030000000  0.4859980000000 1.0
C      1  0.5004800000000  0.3870030000000  0.5288050000000 1.0
C      1  0.5258550000000  0.4470710000000  0.4855130000000 1.0
C      1  0.4996220000000  0.4470670000000  0.5296270000000 1.0
C      1  0.4745340000000  0.4470680000000  0.4848520000000 1.0
C      1  0.5258610000000  0.4470700000000  0.5144710000000 1.0
C      1  0.4996100000000  0.4470700000000  0.4703670000000 1.0
C      1  0.4745410000000  0.4470660000000  0.5151530000000 1.0
C      1  0.5581920000000  0.4713660000000  0.5486350000000 1.0
C      1  0.4287870000000  0.4713580000000  0.5260740000000 1.0
C      1  0.5130270000000  0.4713690000000  0.4252860000000 1.0
C      1  0.5581720000000  0.4713710000000  0.4513380000000 1.0
C      1  0.4287760000000  0.4713610000000  0.4739520000000 1.0
C      1  0.5130580000000  0.4713620000000  0.5747050000000 1.0
C      1  0.4249280000000  0.5484770000000  0.5314600000000 1.0
C      1  0.5102880000000  0.5484890000000  0.4192620000000 1.0
C      1  0.5647740000000  0.5484860000000  0.5492850000000 1.0
C      1  0.4249150000000  0.5484800000000  0.4685760000000 1.0
C      1  0.5103210000000  0.5484810000000  0.5807390000000 1.0
C      1  0.5647540000000  0.5484910000000  0.4506930000000 1.0
C      1  0.4634010000000  0.4049750000000  0.5337570000000 1.0
C      1  0.4890710000000  0.4049810000000  0.4514120000000 1.0
C      1  0.5475490000000  0.4049820000000  0.5148160000000 1.0
C      1  0.4633870000000  0.4049780000000  0.4662480000000 1.0
C      1  0.4890910000000  0.4049760000000  0.5485830000000 1.0
C      1  0.5475430000000  0.4049830000000  0.4851540000000 1.0
END
