TITL C-19918-421-6 0.0263185738895536 125000 -438.911435684921 0 0 64 (Ci) n - 1
REM
REM in /rds/project/t2_vol4/rds-t2-cs072/BORA/CARBON/from-Arr/AIRSS/Generating-Clusters/GAP-ML-2020/Higher-Symm/SD-CG/HFTN-CG
REM
REM
REM
REM
REM
REM ./C.cell (b20cbc046b6831c77cfcea5457e17084)
REM AIRSS Version 0.9.1 bugfix July 2018 build 013d7b7c2542+ Fri, 06 Jul 2018 19:26:36 +0100
REM compiler GCC version 9.3.0
REM options -cpp -mtune=generic -march=x86-64 -g -O0
REM seed -998847283 184681033 -475303209 1643394594 681459803 1308900186 -1976491657 1764026259 -324034469 -2080003092 -1921145525 -1551807061 2046854214 -3074902 -1691664263 -1001410472 296918204 -588062285 -1563455122 1121390201 460093657 500706808 2008795985 513859936 -573709709 -760589524 1650384602 -900510027 -1899229283 1891439001 191585795 -1082903124 -471137191
REM
CELL 1.54180   50.00000   50.00000   50.00000   90.00000   90.00000   90.00000
LATT -1
SFAC C  
C      1  0.4381570000000  0.4763420000000  0.4663900000000 1.0
C      1  0.5618430000000  0.5236580000000  0.5336100000000 1.0
C      1  0.4975740000000  0.4457880000000  0.4629570000000 1.0
C      1  0.5024260000000  0.5542120000000  0.5370430000000 1.0
C      1  0.5565750000000  0.4956780000000  0.4709940000000 1.0
C      1  0.4434250000000  0.5043220000000  0.5290060000000 1.0
C      1  0.4676410000000  0.5569970000000  0.5019110000000 1.0
C      1  0.5323590000000  0.4430030000000  0.4980890000000 1.0
C      1  0.4826250000000  0.4279850000000  0.5176110000000 1.0
C      1  0.5173750000000  0.5720150000000  0.4823890000000 1.0
C      1  0.5162940000000  0.4936730000000  0.5197690000000 1.0
C      1  0.4837060000000  0.5063270000000  0.4802310000000 1.0
C      1  0.4569840000000  0.4582570000000  0.4575800000000 1.0
C      1  0.5430150000000  0.5417430000000  0.5424200000000 1.0
C      1  0.4693430000000  0.4400520000000  0.4752330000000 1.0
C      1  0.5306570000000  0.5599480000000  0.5247670000000 1.0
C      1  0.5381150000000  0.5616770000000  0.4977020000000 1.0
C      1  0.4618850000000  0.4383230000000  0.5022980000000 1.0
C      1  0.4945650000000  0.4767190000000  0.5162580000000 1.0
C      1  0.5054350000000  0.5232810000000  0.4837420000000 1.0
C      1  0.4618610000000  0.5780880000000  0.5266870000000 1.0
C      1  0.5381390000000  0.4219120000000  0.4733130000000 1.0
C      1  0.4833050000000  0.4644030000000  0.5448700000000 1.0
C      1  0.5166950000000  0.5355970000000  0.4551300000000 1.0
C      1  0.5179370000000  0.5348890000000  0.5544370000000 1.0
C      1  0.4820630000000  0.4651110000000  0.4455630000000 1.0
C      1  0.4663340000000  0.5422330000000  0.4560430000000 1.0
C      1  0.5336660000000  0.4577670000000  0.5439570000000 1.0
C      1  0.5526110000000  0.5225730000000  0.4630150000000 1.0
C      1  0.4473890000000  0.4774270000000  0.5369850000000 1.0
C      1  0.4431240000000  0.4587380000000  0.5134500000000 1.0
C      1  0.5568760000000  0.5412620000000  0.4865500000000 1.0
C      1  0.5216290000000  0.5152340000000  0.5040910000000 1.0
C      1  0.4783710000000  0.4847660000000  0.4959090000000 1.0
C      1  0.5138340000000  0.5626600000000  0.4545160000000 1.0
C      1  0.4861660000000  0.4373400000000  0.5454840000000 1.0
C      1  0.5329700000000  0.5188940000000  0.4419390000000 1.0
C      1  0.4670300000000  0.4811060000000  0.5580610000000 1.0
C      1  0.4304160000000  0.4756380000000  0.4941870000000 1.0
C      1  0.5695840000000  0.5243620000000  0.5058130000000 1.0
C      1  0.5095430000000  0.5092950000000  0.5604690000000 1.0
C      1  0.4904570000000  0.4907050000000  0.4395310000000 1.0
C      1  0.4353660000000  0.5204580000000  0.4814910000000 1.0
C      1  0.5646340000000  0.4795420000000  0.5185090000000 1.0
C      1  0.5205750000000  0.4598580000000  0.4764490000000 1.0
C      1  0.4794250000000  0.5401420000000  0.5235510000000 1.0
C      1  0.5490180000000  0.4560440000000  0.5193010000000 1.0
C      1  0.4509820000000  0.5439560000000  0.4806990000000 1.0
C      1  0.5150200000000  0.4374290000000  0.5425810000000 1.0
C      1  0.4849800000000  0.5625710000000  0.4574190000000 1.0
C      1  0.4424630000000  0.5032890000000  0.4585590000000 1.0
C      1  0.5575370000000  0.4967110000000  0.5414410000000 1.0
C      1  0.4883630000000  0.5707880000000  0.4849970000000 1.0
C      1  0.5116370000000  0.4292120000000  0.5150030000000 1.0
C      1  0.4803520000000  0.5068990000000  0.5586420000000 1.0
C      1  0.5196480000000  0.4931010000000  0.4413580000000 1.0
C      1  0.4817200000000  0.5773260000000  0.5430960000000 1.0
C      1  0.5182800000000  0.4226740000000  0.4569040000000 1.0
C      1  0.5349580000000  0.4781270000000  0.4605390000000 1.0
C      1  0.4650420000000  0.5218730000000  0.5394610000000 1.0
C      1  0.4307040000000  0.5032790000000  0.5035160000000 1.0
C      1  0.5692960000000  0.4967210000000  0.4964840000000 1.0
C      1  0.4694420000000  0.5119360000000  0.4510340000000 1.0
C      1  0.5305580000000  0.4880640000000  0.5489660000000 1.0
END
