TITL C-19908-9286-8 -1.32475749262986 125000 -347.054590848658 0 0 53 (C1) n - 1
REM
REM in /rds/project/t2_vol4/rds-t2-cs072/BORA/CARBON/from-Arr/AIRSS/Generating-Clusters/GAP-ML-2020/Higher-Symm/SD-CG/HFTN-CG
REM
REM
REM
REM
REM
REM ./C.cell (b20cbc046b6831c77cfcea5457e17084)
REM AIRSS Version 0.9.1 bugfix July 2018 build 013d7b7c2542+ Fri, 06 Jul 2018 19:26:36 +0100
REM compiler GCC version 9.3.0
REM options -cpp -mtune=generic -march=x86-64 -g -O0
REM seed 1561933443 -898092685 2008921747 1747927185 1214970059 831925037 333186364 -865714141 -24389557 -634855535 1491287524 -214679709 823063276 -1769447810 1813078087 463875209 513577353 438097848 918249229 -1859771450 -1195081475 -1186237262 -1471201848 -1274519344 -899042744 593622573 994666777 371852542 -519900189 -1813452559 -1755685844 1463044035 1167013771
REM
CELL 1.54180   50.00000   50.00000   50.00000   90.00000   90.00000   90.00000
LATT -1
SFAC C  
C      1  0.5114410000000  0.4443330000000  0.5155650000000 1.0
C      1  0.5049410000000  0.5085340000000  0.5745230000000 1.0
C      1  0.5156790000000  0.5471120000000  0.5229320000000 1.0
C      1  0.5152990000000  0.5508590000000  0.4594740000000 1.0
C      1  0.5195830000000  0.4696130000000  0.4346160000000 1.0
C      1  0.4464160000000  0.4706750000000  0.5222000000000 1.0
C      1  0.4586110000000  0.5278940000000  0.5291610000000 1.0
C      1  0.4626340000000  0.5418520000000  0.5057420000000 1.0
C      1  0.4548500000000  0.5205450000000  0.4512290000000 1.0
C      1  0.4429750000000  0.4711890000000  0.4785530000000 1.0
C      1  0.5193470000000  0.5336460000000  0.5754570000000 1.0
C      1  0.5183870000000  0.5624460000000  0.4993530000000 1.0
C      1  0.5169240000000  0.5253740000000  0.4458490000000 1.0
C      1  0.5066500000000  0.4533380000000  0.4547320000000 1.0
C      1  0.5111990000000  0.4547260000000  0.5420160000000 1.0
C      1  0.4861520000000  0.4545930000000  0.5262320000000 1.0
C      1  0.4821910000000  0.5058910000000  0.5580620000000 1.0
C      1  0.4949020000000  0.5564310000000  0.4804670000000 1.0
C      1  0.4926630000000  0.5109900000000  0.4443250000000 1.0
C      1  0.4812950000000  0.4588470000000  0.4651340000000 1.0
C      1  0.5295590000000  0.4598190000000  0.4729590000000 1.0
C      1  0.5290460000000  0.4766190000000  0.5437910000000 1.0
C      1  0.5396650000000  0.5229630000000  0.5578090000000 1.0
C      1  0.5359770000000  0.5508690000000  0.4803030000000 1.0
C      1  0.5371080000000  0.5092310000000  0.4590480000000 1.0
C      1  0.4544370000000  0.4523670000000  0.4620470000000 1.0
C      1  0.4590700000000  0.4480060000000  0.5316210000000 1.0
C      1  0.4590610000000  0.5228680000000  0.5555650000000 1.0
C      1  0.4673990000000  0.5632990000000  0.4898160000000 1.0
C      1  0.4691300000000  0.5178970000000  0.4299260000000 1.0
C      1  0.5426540000000  0.5224630000000  0.4841520000000 1.0
C      1  0.5375130000000  0.4812390000000  0.4545510000000 1.0
C      1  0.5293540000000  0.4598640000000  0.5001060000000 1.0
C      1  0.5292390000000  0.4957820000000  0.5624860000000 1.0
C      1  0.5397790000000  0.5321940000000  0.5317730000000 1.0
C      1  0.4845420000000  0.5049500000000  0.5285650000000 1.0
C      1  0.4870210000000  0.5282430000000  0.4907830000000 1.0
C      1  0.4788340000000  0.5084150000000  0.4706980000000 1.0
C      1  0.4736870000000  0.4824260000000  0.4832200000000 1.0
C      1  0.4745860000000  0.4815510000000  0.5135310000000 1.0
C      1  0.3485240000000  0.4856880000000  0.5083790000000 1.0
C      1  0.5714580000000  0.4838890000000  0.5161970000000 1.0
C      1  0.4255640000000  0.4727940000000  0.5015600000000 1.0
C      1  0.6164870000000  0.4959580000000  0.4960860000000 1.0
C      1  0.5033590000000  0.5208940000000  0.5139580000000 1.0
C      1  0.3235060000000  0.4892510000000  0.5106000000000 1.0
C      1  0.5342880000000  0.5117020000000  0.5101140000000 1.0
C      1  0.6413240000000  0.4979990000000  0.4902500000000 1.0
C      1  0.3987430000000  0.4779430000000  0.5037960000000 1.0
C      1  0.6666010000000  0.4986720000000  0.4858780000000 1.0
C      1  0.5426170000000  0.4825980000000  0.5164470000000 1.0
C      1  0.3743520000000  0.4819640000000  0.5061310000000 1.0
C      1  0.5930330000000  0.4904770000000  0.5051330000000 1.0
END
