TITL C-19544-9832-1 0.0200939913554229 125000 -611.372681244077 0 0 89 (C1) n - 1
REM
REM in /rds/project/t2_vol4/rds-t2-cs072/BORA/CARBON/from-Arr/AIRSS/Generating-Clusters/GAP-ML-2020/Higher-Symm/SD-CG/HFTN-CG
REM
REM
REM
REM
REM
REM ./C.cell (b20cbc046b6831c77cfcea5457e17084)
REM AIRSS Version 0.9.1 bugfix July 2018 build 013d7b7c2542+ Fri, 06 Jul 2018 19:26:36 +0100
REM compiler GCC version 9.3.0
REM options -cpp -mtune=generic -march=x86-64 -g -O0
REM seed -2102636724 -780353238 1177087898 -876034519 1105219580 -626256298 -249893418 -724325143 -958853920 -1873007982 -241566161 -2139600775 20748119 -1486025766 -740130970 -1841597655 -1922425659 -781176413 797694829 481379201 -875614094 56502444 1547307969 -2051730123 -1161931284 2102939031 143349882 -2083336450 570048738 -1611437293 1969948576 -1261641198 1101916676
REM
CELL 1.54180   50.00000   50.00000   50.00000   90.00000   90.00000   90.00000
LATT -1
SFAC C  
C      1  0.5646220000000  0.5402560000000  0.5472060000000 1.0
C      1  0.5577060000000  0.5259100000000  0.4414880000000 1.0
C      1  0.5624440000000  0.4345390000000  0.5141770000000 1.0
C      1  0.4417220000000  0.5442510000000  0.4554460000000 1.0
C      1  0.4463940000000  0.5272180000000  0.5633930000000 1.0
C      1  0.4473170000000  0.4258300000000  0.4853010000000 1.0
C      1  0.5142650000000  0.4650510000000  0.5593510000000 1.0
C      1  0.5214100000000  0.5719650000000  0.4903810000000 1.0
C      1  0.5175210000000  0.4659100000000  0.4386790000000 1.0
C      1  0.4884270000000  0.4612110000000  0.4349340000000 1.0
C      1  0.4929650000000  0.5720000000000  0.4961370000000 1.0
C      1  0.4854070000000  0.4660320000000  0.5635660000000 1.0
C      1  0.5693710000000  0.4795650000000  0.5151070000000 1.0
C      1  0.5721300000000  0.5091730000000  0.5087760000000 1.0
C      1  0.5814240000000  0.5099690000000  0.4791930000000 1.0
C      1  0.4253080000000  0.4626910000000  0.4686510000000 1.0
C      1  0.4177730000000  0.5285590000000  0.4942020000000 1.0
C      1  0.4176540000000  0.5123570000000  0.5193060000000 1.0
C      1  0.5547670000000  0.5523680000000  0.5228370000000 1.0
C      1  0.5556440000000  0.4956060000000  0.4406260000000 1.0
C      1  0.5542020000000  0.4483840000000  0.5403880000000 1.0
C      1  0.4474930000000  0.5639580000000  0.4769260000000 1.0
C      1  0.4536510000000  0.5000120000000  0.5676620000000 1.0
C      1  0.4592980000000  0.4352040000000  0.4602760000000 1.0
C      1  0.5353520000000  0.5443890000000  0.4396210000000 1.0
C      1  0.5435030000000  0.4254950000000  0.4947980000000 1.0
C      1  0.5437260000000  0.5296840000000  0.5655670000000 1.0
C      1  0.4676240000000  0.5470130000000  0.5617420000000 1.0
C      1  0.4636240000000  0.4236910000000  0.5079930000000 1.0
C      1  0.4593620000000  0.5304750000000  0.4370020000000 1.0
C      1  0.4270380000000  0.4850670000000  0.5249370000000 1.0
C      1  0.4338950000000  0.5517650000000  0.5001100000000 1.0
C      1  0.4104960000000  0.4781660000000  0.4525180000000 1.0
C      1  0.5751710000000  0.4866810000000  0.4629840000000 1.0
C      1  0.5663240000000  0.5671020000000  0.5016590000000 1.0
C      1  0.5758750000000  0.4699250000000  0.5427810000000 1.0
C      1  0.5185610000000  0.4168570000000  0.5004130000000 1.0
C      1  0.5198980000000  0.5403510000000  0.5737540000000 1.0
C      1  0.5114450000000  0.5433990000000  0.4265950000000 1.0
C      1  0.4927000000000  0.4249800000000  0.5028290000000 1.0
C      1  0.4882400000000  0.5338960000000  0.4376320000000 1.0
C      1  0.4958260000000  0.5385100000000  0.5613670000000 1.0
C      1  0.4274650000000  0.5312240000000  0.5403070000000 1.0
C      1  0.4226400000000  0.5251950000000  0.4656410000000 1.0
C      1  0.4249090000000  0.4448260000000  0.4907540000000 1.0
C      1  0.5746060000000  0.5326270000000  0.4636170000000 1.0
C      1  0.5801730000000  0.5175330000000  0.5375790000000 1.0
C      1  0.5769860000000  0.4555220000000  0.5001190000000 1.0
C      1  0.4522780000000  0.4881960000000  0.5397610000000 1.0
C      1  0.4640550000000  0.5316370000000  0.5029770000000 1.0
C      1  0.4558310000000  0.4657200000000  0.4662420000000 1.0
C      1  0.5390590000000  0.4914090000000  0.4654810000000 1.0
C      1  0.5446320000000  0.5262020000000  0.5105600000000 1.0
C      1  0.5401610000000  0.4709890000000  0.5217290000000 1.0
C      1  0.4240820000000  0.5019390000000  0.4484610000000 1.0
C      1  0.4280710000000  0.4571360000000  0.5161910000000 1.0
C      1  0.4360910000000  0.5554710000000  0.5283990000000 1.0
C      1  0.5741040000000  0.4950380000000  0.5546590000000 1.0
C      1  0.5748240000000  0.4591670000000  0.4727460000000 1.0
C      1  0.5647420000000  0.5562320000000  0.4756480000000 1.0
C      1  0.4697290000000  0.5781710000000  0.4826960000000 1.0
C      1  0.4774810000000  0.4350500000000  0.4404460000000 1.0
C      1  0.4722880000000  0.4848700000000  0.5805470000000 1.0
C      1  0.5413360000000  0.5763230000000  0.5097510000000 1.0
C      1  0.5348490000000  0.4465460000000  0.5605050000000 1.0
C      1  0.5391210000000  0.4773390000000  0.4256660000000 1.0
C      1  0.4728410000000  0.5160640000000  0.4800800000000 1.0
C      1  0.4721120000000  0.4685380000000  0.4921350000000 1.0
C      1  0.4719770000000  0.5093770000000  0.5241120000000 1.0
C      1  0.5201800000000  0.5117430000000  0.5236800000000 1.0
C      1  0.5192870000000  0.4681160000000  0.4988230000000 1.0
C      1  0.5191840000000  0.5115280000000  0.4740500000000 1.0
C      1  0.4625700000000  0.5603770000000  0.5374090000000 1.0
C      1  0.4506940000000  0.5031100000000  0.4356220000000 1.0
C      1  0.4515910000000  0.4425540000000  0.5279790000000 1.0
C      1  0.5372090000000  0.5577770000000  0.4680820000000 1.0
C      1  0.5472310000000  0.5008210000000  0.5626640000000 1.0
C      1  0.5505090000000  0.4441280000000  0.4708440000000 1.0
C      1  0.5278100000000  0.4885300000000  0.5430040000000 1.0
C      1  0.5324680000000  0.5339890000000  0.4857290000000 1.0
C      1  0.5296520000000  0.4641740000000  0.4685800000000 1.0
C      1  0.4661890000000  0.4799680000000  0.4421600000000 1.0
C      1  0.4828220000000  0.5514920000000  0.5166480000000 1.0
C      1  0.4648470000000  0.4618000000000  0.5431890000000 1.0
C      1  0.4959320000000  0.5269330000000  0.5332070000000 1.0
C      1  0.4938940000000  0.5207160000000  0.4620960000000 1.0
C      1  0.4948840000000  0.4527390000000  0.4986820000000 1.0
C      1  0.5103780000000  0.4967490000000  0.4989050000000 1.0
C      1  0.4798410000000  0.4953620000000  0.4989200000000 1.0
END
