TITL C-19524-706-4 0.0755809197583732 125000 -603.952969222607 0 0 87 (C1) n - 1
REM
REM in /rds/project/t2_vol4/rds-t2-cs072/BORA/CARBON/from-Arr/AIRSS/Generating-Clusters/GAP-ML-2020/Higher-Symm/SD-CG/HFTN-CG
REM
REM
REM
REM
REM
REM ./C.cell (b20cbc046b6831c77cfcea5457e17084)
REM AIRSS Version 0.9.1 bugfix July 2018 build 013d7b7c2542+ Fri, 06 Jul 2018 19:26:36 +0100
REM compiler GCC version 9.3.0
REM options -cpp -mtune=generic -march=x86-64 -g -O0
REM seed 678341921 -1565417841 1358950015 825370232 -1285878772 -210834437 -1575331590 1695054871 1472581439 1934373019 1876036740 1581792644 354587907 1144123069 1149433145 -846197722 -877450978 1702375541 722135657 172121407 -152111542 -58392033 -370677742 1351682611 565252359 -238680720 -1994711522 154886024 -913910791 492992578 1063074880 -1812384732 -1928420318
REM
CELL 1.54180   50.00000   50.00000   50.00000   90.00000   90.00000   90.00000
LATT -1
SFAC C  
C      1  0.5063990000000  0.4824750000000  0.4872000000000 1.0
C      1  0.4701110000000  0.5169930000000  0.4845750000000 1.0
C      1  0.5156000000000  0.5219620000000  0.4818950000000 1.0
C      1  0.5069120000000  0.5252780000000  0.5113970000000 1.0
C      1  0.4704130000000  0.4885550000000  0.5140240000000 1.0
C      1  0.5136940000000  0.4826680000000  0.5161130000000 1.0
C      1  0.5559070000000  0.4907590000000  0.4112020000000 1.0
C      1  0.4637390000000  0.4562640000000  0.4156900000000 1.0
C      1  0.4791370000000  0.5527780000000  0.4107060000000 1.0
C      1  0.5584610000000  0.5083240000000  0.5860900000000 1.0
C      1  0.4672640000000  0.5457730000000  0.5826920000000 1.0
C      1  0.4788740000000  0.4490340000000  0.5891320000000 1.0
C      1  0.5224770000000  0.5067660000000  0.5270740000000 1.0
C      1  0.4907980000000  0.4748010000000  0.5301750000000 1.0
C      1  0.4779290000000  0.5187070000000  0.5133300000000 1.0
C      1  0.5233370000000  0.4959940000000  0.4706270000000 1.0
C      1  0.4907580000000  0.5300970000000  0.4694350000000 1.0
C      1  0.4776460000000  0.4866150000000  0.4845200000000 1.0
C      1  0.4580540000000  0.4655820000000  0.4665260000000 1.0
C      1  0.4901290000000  0.5588020000000  0.4606200000000 1.0
C      1  0.5513700000000  0.4790120000000  0.4615560000000 1.0
C      1  0.4580440000000  0.5359510000000  0.5317320000000 1.0
C      1  0.4903690000000  0.4433190000000  0.5395020000000 1.0
C      1  0.5526150000000  0.5165980000000  0.5354560000000 1.0
C      1  0.5556620000000  0.4714900000000  0.5540740000000 1.0
C      1  0.4494330000000  0.4659800000000  0.5539110000000 1.0
C      1  0.4986590000000  0.5623390000000  0.5497820000000 1.0
C      1  0.5549400000000  0.5253100000000  0.4454990000000 1.0
C      1  0.4480030000000  0.5363200000000  0.4451600000000 1.0
C      1  0.4952490000000  0.4384210000000  0.4469010000000 1.0
C      1  0.4391600000000  0.4877370000000  0.4611190000000 1.0
C      1  0.5221490000000  0.5576590000000  0.4569400000000 1.0
C      1  0.5388550000000  0.4517780000000  0.4557430000000 1.0
C      1  0.4418640000000  0.5106210000000  0.5389310000000 1.0
C      1  0.5210470000000  0.4407330000000  0.5458120000000 1.0
C      1  0.5442220000000  0.5450200000000  0.5369960000000 1.0
C      1  0.4893160000000  0.4747820000000  0.5842210000000 1.0
C      1  0.4856470000000  0.5241100000000  0.5790480000000 1.0
C      1  0.5306220000000  0.5044270000000  0.5820900000000 1.0
C      1  0.4882170000000  0.5264660000000  0.4161480000000 1.0
C      1  0.4820230000000  0.4777030000000  0.4183300000000 1.0
C      1  0.5284020000000  0.4961040000000  0.4157580000000 1.0
C      1  0.5180380000000  0.4525430000000  0.4366620000000 1.0
C      1  0.4492350000000  0.5077960000000  0.4403540000000 1.0
C      1  0.5312990000000  0.5391650000000  0.4369510000000 1.0
C      1  0.5222880000000  0.5472760000000  0.5569760000000 1.0
C      1  0.4513020000000  0.4938800000000  0.5604290000000 1.0
C      1  0.5313980000000  0.4597520000000  0.5643840000000 1.0
C      1  0.5147860000000  0.5271960000000  0.5755990000000 1.0
C      1  0.5176440000000  0.4776970000000  0.5813870000000 1.0
C      1  0.4728610000000  0.4981990000000  0.5783470000000 1.0
C      1  0.5109670000000  0.4738970000000  0.4198410000000 1.0
C      1  0.5166330000000  0.5230550000000  0.4188700000000 1.0
C      1  0.4705250000000  0.5036230000000  0.4219600000000 1.0
C      1  0.4716660000000  0.4486010000000  0.5626800000000 1.0
C      1  0.4727860000000  0.5487550000000  0.5557330000000 1.0
C      1  0.5587210000000  0.5001860000000  0.5597500000000 1.0
C      1  0.4713400000000  0.5531550000000  0.4369860000000 1.0
C      1  0.4701370000000  0.4521140000000  0.4422890000000 1.0
C      1  0.5572700000000  0.4968940000000  0.4380210000000 1.0
C      1  0.5145190000000  0.5565230000000  0.5123000000000 1.0
C      1  0.5425530000000  0.4381150000000  0.5255340000000 1.0
C      1  0.4386900000000  0.4893090000000  0.5159910000000 1.0
C      1  0.5301300000000  0.4317780000000  0.4759690000000 1.0
C      1  0.5398970000000  0.5489590000000  0.4813310000000 1.0
C      1  0.4380420000000  0.5199750000000  0.4848990000000 1.0
C      1  0.5717670000000  0.5072400000000  0.5156250000000 1.0
C      1  0.4740390000000  0.4297130000000  0.5188000000000 1.0
C      1  0.4526210000000  0.5609270000000  0.5146100000000 1.0
C      1  0.5715210000000  0.4854480000000  0.4818620000000 1.0
C      1  0.4725760000000  0.5742610000000  0.4799510000000 1.0
C      1  0.4549550000000  0.4425770000000  0.4846900000000 1.0
C      1  0.5627350000000  0.4599600000000  0.5295320000000 1.0
C      1  0.4379450000000  0.4627470000000  0.5285760000000 1.0
C      1  0.4984200000000  0.5755010000000  0.5250780000000 1.0
C      1  0.5623470000000  0.5333350000000  0.4710830000000 1.0
C      1  0.4350700000000  0.5428190000000  0.4694160000000 1.0
C      1  0.5011270000000  0.4262230000000  0.4715170000000 1.0
C      1  0.4753710000000  0.5783300000000  0.5092630000000 1.0
C      1  0.5731570000000  0.4787860000000  0.5104380000000 1.0
C      1  0.4483660000000  0.4423930000000  0.5128480000000 1.0
C      1  0.4789670000000  0.4265830000000  0.4899140000000 1.0
C      1  0.5737720000000  0.5138460000000  0.4875430000000 1.0
C      1  0.4471920000000  0.5618530000000  0.4859280000000 1.0
C      1  0.5420440000000  0.5569200000000  0.5103220000000 1.0
C      1  0.5411070000000  0.4272420000000  0.5005970000000 1.0
C      1  0.4286660000000  0.4947460000000  0.4881310000000 1.0
END
