TITL C-199722-9334-2 -35.809879240309 125000 -406.52772970831 0 0 63 (C7) n - 1
REM
REM in /rds/project/t2_vol4/rds-t2-cs072/BORA/CARBON/from-Arr/AIRSS/Generating-Clusters/GAP-ML-2020/Higher-Symm/SD-CG/HFTN-CG
REM
REM
REM
REM
REM
REM ./C.cell (b20cbc046b6831c77cfcea5457e17084)
REM AIRSS Version 0.9.1 bugfix July 2018 build 013d7b7c2542+ Fri, 06 Jul 2018 19:26:36 +0100
REM compiler GCC version 9.3.0
REM options -cpp -mtune=generic -march=x86-64 -g -O0
REM seed 247441482 -903837475 1488837148 -180632847 -818093375 -1024219758 -2133825166 84480336 -1223963010 -1411428335 -2048025960 -1515931336 -183001159 1410552138 -460817898 1894088590 -1218031162 822116700 -199133006 283978698 1098206139 -296384959 2025949627 1620786194 -255777325 -1836930353 1158020924 -1417422910 564259161 178206259 -968632787 -1344503918 -1093005957
REM
CELL 1.54180   50.00000   50.00000   50.00000   90.00000   90.00000   90.00000
LATT -1
SFAC C  
C      1  0.5125230000000  0.5333880000000  0.5439070000000 1.0
C      1  0.5339110000000  0.5110250000000  0.5439080000000 1.0
C      1  0.5297620000000  0.4803600000000  0.5439080000000 1.0
C      1  0.5032000000000  0.4644850000000  0.5439070000000 1.0
C      1  0.4742270000000  0.4753530000000  0.5439060000000 1.0
C      1  0.4646610000000  0.5047820000000  0.5439050000000 1.0
C      1  0.4817040000000  0.5306090000000  0.5439060000000 1.0
C      1  0.5704510000000  0.5182120000000  0.5016250000000 1.0
C      1  0.5581640000000  0.4562740000000  0.5016250000000 1.0
C      1  0.5020780000000  0.4272620000000  0.5016220000000 1.0
C      1  0.4444270000000  0.4530240000000  0.5016200000000 1.0
C      1  0.4286240000000  0.5141600000000  0.5016190000000 1.0
C      1  0.4665680000000  0.5646330000000  0.5016200000000 1.0
C      1  0.5296870000000  0.5664360000000  0.5016230000000 1.0
C      1  0.5292800000000  0.5154010000000  0.4965270000000 1.0
C      1  0.5302970000000  0.4867110000000  0.4965270000000 1.0
C      1  0.5085000000000  0.4680270000000  0.4965260000000 1.0
C      1  0.4803020000000  0.4734200000000  0.4965250000000 1.0
C      1  0.4669380000000  0.4988280000000  0.4965240000000 1.0
C      1  0.4784700000000  0.5251180000000  0.4965250000000 1.0
C      1  0.5062150000000  0.5324940000000  0.4965260000000 1.0
C      1  0.4723660000000  0.4795390000000  0.4446840000000 1.0
C      1  0.4667740000000  0.5088490000000  0.4446830000000 1.0
C      1  0.4862040000000  0.5314960000000  0.4446840000000 1.0
C      1  0.5160240000000  0.5304250000000  0.4446850000000 1.0
C      1  0.5337790000000  0.5064430000000  0.4446860000000 1.0
C      1  0.5261000000000  0.4776090000000  0.4446860000000 1.0
C      1  0.4987680000000  0.4656360000000  0.4446850000000 1.0
C      1  0.5171500000000  0.5518320000000  0.5213330000000 1.0
C      1  0.5512160000000  0.5189070000000  0.5213340000000 1.0
C      1  0.5467150000000  0.4717460000000  0.5213350000000 1.0
C      1  0.5070350000000  0.4458600000000  0.5213330000000 1.0
C      1  0.4620580000000  0.4607430000000  0.5213310000000 1.0
C      1  0.4456500000000  0.5051880000000  0.5213300000000 1.0
C      1  0.4701690000000  0.5457260000000  0.5213310000000 1.0
C      1  0.5532200000000  0.5319690000000  0.4797900000000 1.0
C      1  0.5581760000000  0.4783240000000  0.4797900000000 1.0
C      1  0.5193260000000  0.4410020000000  0.4797890000000 1.0
C      1  0.4659230000000  0.4481060000000  0.4797870000000 1.0
C      1  0.4381820000000  0.4942880000000  0.4797860000000 1.0
C      1  0.4569910000000  0.5447710000000  0.4797860000000 1.0
C      1  0.5081880000000  0.5615400000000  0.4797880000000 1.0
C      1  0.5269710000000  0.4821010000000  0.5748440000000 1.0
C      1  0.5028210000000  0.4677510000000  0.5748430000000 1.0
C      1  0.4765440000000  0.4776860000000  0.5748420000000 1.0
C      1  0.4679280000000  0.5044240000000  0.5748410000000 1.0
C      1  0.4834610000000  0.5278310000000  0.5748420000000 1.0
C      1  0.5114450000000  0.5302810000000  0.5748430000000 1.0
C      1  0.5308090000000  0.5099290000000  0.5748440000000 1.0
C      1  0.5467670000000  0.5581650000000  0.4791780000000 1.0
C      1  0.5746340000000  0.4997020000000  0.4791790000000 1.0
C      1  0.5463010000000  0.4414640000000  0.4791790000000 1.0
C      1  0.4831030000000  0.4273040000000  0.4791760000000 1.0
C      1  0.4326290000000  0.4678860000000  0.4791740000000 1.0
C      1  0.4328870000000  0.5326500000000  0.4791740000000 1.0
C      1  0.4836830000000  0.5728280000000  0.4791750000000 1.0
C      1  0.4735590000000  0.5540700000000  0.4581200000000 1.0
C      1  0.5257880000000  0.5543860000000  0.4581220000000 1.0
C      1  0.5586000000000  0.5137480000000  0.4581240000000 1.0
C      1  0.5472860000000  0.4627580000000  0.4581240000000 1.0
C      1  0.5003660000000  0.4398110000000  0.4581220000000 1.0
C      1  0.4531710000000  0.4621880000000  0.4581200000000 1.0
C      1  0.4412410000000  0.5130380000000  0.4581190000000 1.0
END
