TITL C-19914-9995-13 0.0207156140218056 125000 -1005.87053148331 0 0 144 (C3) n - 1
REM
REM in /rds/project/t2_vol4/rds-t2-cs072/BORA/CARBON/from-Arr/AIRSS/Generating-Clusters/GAP-ML-2020/Higher-Symm/SD-CG/HFTN-CG
REM
REM
REM
REM
REM
REM ./C.cell (b20cbc046b6831c77cfcea5457e17084)
REM AIRSS Version 0.9.1 bugfix July 2018 build 013d7b7c2542+ Fri, 06 Jul 2018 19:26:36 +0100
REM compiler GCC version 9.3.0
REM options -cpp -mtune=generic -march=x86-64 -g -O0
REM seed 1790920439 1735466560 -594589461 -884920344 -352554265 2062836542 -1676877200 1773162934 59325145 -2065878349 1599077356 319045757 1477777083 -430638704 1403851033 -1527432597 1604826854 1227044156 -729835690 -2043746193 -2138504955 -1721276914 272223299 1602551008 -1247308624 1258987371 -363666088 1525438436 -886200595 -2068423420 2100648581 596022934 1107844270
REM
CELL 1.54180   50.00000   50.00000   50.00000   90.00000   90.00000   90.00000
LATT -1
SFAC C  
C      1  0.4156650000000  0.5511590000000  0.5261290000000 1.0
C      1  0.5864680000000  0.5474480000000  0.5261600000000 1.0
C      1  0.4978530000000  0.4013840000000  0.5261280000000 1.0
C      1  0.4182080000000  0.5672540000000  0.4799520000000 1.0
C      1  0.5991430000000  0.5372140000000  0.4799820000000 1.0
C      1  0.4826600000000  0.3955390000000  0.4799450000000 1.0
C      1  0.4915360000000  0.5319130000000  0.4619060000000 1.0
C      1  0.5318770000000  0.4913860000000  0.4619090000000 1.0
C      1  0.4766090000000  0.4767130000000  0.4618970000000 1.0
C      1  0.5840590000000  0.5516800000000  0.4981790000000 1.0
C      1  0.5027270000000  0.4013640000000  0.4981480000000 1.0
C      1  0.4132150000000  0.5469570000000  0.4981470000000 1.0
C      1  0.4112730000000  0.5315180000000  0.5473190000000 1.0
C      1  0.5716510000000  0.5610660000000  0.5473520000000 1.0
C      1  0.5170500000000  0.4074000000000  0.5473250000000 1.0
C      1  0.5475250000000  0.5855310000000  0.4799300000000 1.0
C      1  0.5503130000000  0.4160830000000  0.4799130000000 1.0
C      1  0.4021720000000  0.4983930000000  0.4798940000000 1.0
C      1  0.4761410000000  0.5284250000000  0.5926350000000 1.0
C      1  0.5365300000000  0.5064200000000  0.5926430000000 1.0
C      1  0.4872790000000  0.4651250000000  0.5926300000000 1.0
C      1  0.4715580000000  0.5119050000000  0.5483540000000 1.0
C      1  0.5245220000000  0.5186640000000  0.5483650000000 1.0
C      1  0.5038930000000  0.4694160000000  0.5483560000000 1.0
C      1  0.5372990000000  0.4541900000000  0.5784690000000 1.0
C      1  0.4416640000000  0.4905780000000  0.5784550000000 1.0
C      1  0.5209940000000  0.5552070000000  0.5784770000000 1.0
C      1  0.4858770000000  0.4488770000000  0.4679970000000 1.0
C      1  0.4627930000000  0.5378030000000  0.4680030000000 1.0
C      1  0.5513470000000  0.5133310000000  0.4680160000000 1.0
C      1  0.5399580000000  0.4230600000000  0.5383970000000 1.0
C      1  0.4133820000000  0.5038530000000  0.5383820000000 1.0
C      1  0.5466390000000  0.5730740000000  0.5384140000000 1.0
C      1  0.4778620000000  0.5654200000000  0.4373640000000 1.0
C      1  0.5677360000000  0.4864820000000  0.4373720000000 1.0
C      1  0.4544370000000  0.4481180000000  0.4373470000000 1.0
C      1  0.5892960000000  0.4859180000000  0.4825440000000 1.0
C      1  0.4431600000000  0.4297140000000  0.4825110000000 1.0
C      1  0.4675540000000  0.5843740000000  0.4825320000000 1.0
C      1  0.4890560000000  0.5869990000000  0.5287290000000 1.0
C      1  0.5808100000000  0.4659690000000  0.5287330000000 1.0
C      1  0.4301180000000  0.4470230000000  0.5287030000000 1.0
C      1  0.4224770000000  0.4382620000000  0.5024120000000 1.0
C      1  0.4852940000000  0.5980050000000  0.5024410000000 1.0
C      1  0.5922270000000  0.4637320000000  0.5024460000000 1.0
C      1  0.4406230000000  0.5569680000000  0.5388110000000 1.0
C      1  0.5790170000000  0.5229250000000  0.5388330000000 1.0
C      1  0.4803390000000  0.4200940000000  0.5388040000000 1.0
C      1  0.4649050000000  0.4736010000000  0.5776250000000 1.0
C      1  0.4946710000000  0.5435670000000  0.5776380000000 1.0
C      1  0.5403810000000  0.4828060000000  0.5776390000000 1.0
C      1  0.5787190000000  0.4451460000000  0.4608740000000 1.0
C      1  0.4131420000000  0.4592670000000  0.4608450000000 1.0
C      1  0.5081600000000  0.5956000000000  0.4608770000000 1.0
C      1  0.5549900000000  0.5585400000000  0.4907170000000 1.0
C      1  0.5232040000000  0.4231110000000  0.4906970000000 1.0
C      1  0.4218110000000  0.5183520000000  0.4906890000000 1.0
C      1  0.4996830000000  0.5275170000000  0.4122720000000 1.0
C      1  0.5240050000000  0.4865440000000  0.4122720000000 1.0
C      1  0.4763600000000  0.4859670000000  0.4122630000000 1.0
C      1  0.5322960000000  0.5815800000000  0.4558610000000 1.0
C      1  0.5545110000000  0.4312550000000  0.4558490000000 1.0
C      1  0.4132180000000  0.4871790000000  0.4558290000000 1.0
C      1  0.5686810000000  0.5164260000000  0.4431300000000 1.0
C      1  0.4798950000000  0.4323250000000  0.4431040000000 1.0
C      1  0.4514550000000  0.5512670000000  0.4431120000000 1.0
C      1  0.5886460000000  0.4395000000000  0.4880260000000 1.0
C      1  0.4032850000000  0.4534840000000  0.4879930000000 1.0
C      1  0.5080760000000  0.6070200000000  0.4880290000000 1.0
C      1  0.6059590000000  0.5100800000000  0.4752070000000 1.0
C      1  0.4557540000000  0.4032050000000  0.4751680000000 1.0
C      1  0.4383000000000  0.5867230000000  0.4751850000000 1.0
C      1  0.4617730000000  0.5566380000000  0.4907340000000 1.0
C      1  0.5681650000000  0.5047890000000  0.4907470000000 1.0
C      1  0.4700670000000  0.4385760000000  0.4907220000000 1.0
C      1  0.4820070000000  0.5035570000000  0.5033940000000 1.0
C      1  0.5120770000000  0.5138030000000  0.5034010000000 1.0
C      1  0.5059150000000  0.4826390000000  0.5033970000000 1.0
C      1  0.4469040000000  0.4806080000000  0.5052060000000 1.0
C      1  0.5097530000000  0.5556770000000  0.5052260000000 1.0
C      1  0.5433400000000  0.4637140000000  0.5052220000000 1.0
C      1  0.4638460000000  0.4916620000000  0.4835530000000 1.0
C      1  0.5108590000000  0.5354840000000  0.4835660000000 1.0
C      1  0.5253040000000  0.4728590000000  0.4835620000000 1.0
C      1  0.4218050000000  0.4842340000000  0.5603440000000 1.0
C      1  0.5254320000000  0.5755820000000  0.5603730000000 1.0
C      1  0.5527290000000  0.4401650000000  0.5603640000000 1.0
C      1  0.4953600000000  0.5320400000000  0.5501200000000 1.0
C      1  0.5300580000000  0.4879820000000  0.5501220000000 1.0
C      1  0.4745540000000  0.4799620000000  0.5501110000000 1.0
C      1  0.5720460000000  0.4191490000000  0.4989360000000 1.0
C      1  0.3939580000000  0.4780320000000  0.4989100000000 1.0
C      1  0.5339960000000  0.6028190000000  0.4989490000000 1.0
C      1  0.5160650000000  0.5040670000000  0.6123080000000 1.0
C      1  0.4954700000000  0.4840180000000  0.6123020000000 1.0
C      1  0.4884040000000  0.5118780000000  0.6123030000000 1.0
C      1  0.5149330000000  0.4467100000000  0.4711900000000 1.0
C      1  0.4463880000000  0.5137220000000  0.4711850000000 1.0
C      1  0.5386950000000  0.5395780000000  0.4712050000000 1.0
C      1  0.4626190000000  0.5481650000000  0.5188740000000 1.0
C      1  0.5603990000000  0.5082840000000  0.5188870000000 1.0
C      1  0.4769710000000  0.4435450000000  0.5188650000000 1.0
C      1  0.4500740000000  0.5246670000000  0.4003400000000 1.0
C      1  0.5463430000000  0.5309360000000  0.4003580000000 1.0
C      1  0.5036380000000  0.4444300000000  0.4003410000000 1.0
C      1  0.4615280000000  0.5178920000000  0.5215240000000 1.0
C      1  0.5347270000000  0.5243650000000  0.5215380000000 1.0
C      1  0.5037330000000  0.4577360000000  0.5215250000000 1.0
C      1  0.5765040000000  0.4422320000000  0.5431220000000 1.0
C      1  0.4117110000000  0.4626160000000  0.5430940000000 1.0
C      1  0.5117610000000  0.5951390000000  0.5431270000000 1.0
C      1  0.4894480000000  0.5555140000000  0.5274070000000 1.0
C      1  0.5533470000000  0.4813720000000  0.5274100000000 1.0
C      1  0.4571890000000  0.4631050000000  0.5273910000000 1.0
C      1  0.4532500000000  0.5196730000000  0.5743470000000 1.0
C      1  0.5403990000000  0.5306270000000  0.5743640000000 1.0
C      1  0.5063100000000  0.4496770000000  0.5743490000000 1.0
C      1  0.5278900000000  0.4408380000000  0.5155170000000 1.0
C      1  0.4348160000000  0.5054230000000  0.5155070000000 1.0
C      1  0.5372850000000  0.5537340000000  0.5155310000000 1.0
C      1  0.5006560000000  0.4718960000000  0.4047440000000 1.0
C      1  0.4753500000000  0.5135150000000  0.4047440000000 1.0
C      1  0.5240460000000  0.5146210000000  0.4047530000000 1.0
C      1  0.4827780000000  0.5848300000000  0.4563060000000 1.0
C      1  0.5820840000000  0.4725140000000  0.4563120000000 1.0
C      1  0.4351630000000  0.4426700000000  0.4562820000000 1.0
C      1  0.4348920000000  0.5391080000000  0.5621190000000 1.0
C      1  0.5664120000000  0.5368110000000  0.5621430000000 1.0
C      1  0.4986620000000  0.4240600000000  0.5621180000000 1.0
C      1  0.5302460000000  0.4460220000000  0.4437200000000 1.0
C      1  0.4381410000000  0.5008130000000  0.4437090000000 1.0
C      1  0.5316440000000  0.5531830000000  0.4437320000000 1.0
C      1  0.5060100000000  0.4364020000000  0.4262010000000 1.0
C      1  0.4419310000000  0.5266180000000  0.4261990000000 1.0
C      1  0.5521000000000  0.5370040000000  0.4262200000000 1.0
C      1  0.4606750000000  0.4781100000000  0.4358800000000 1.0
C      1  0.5007170000000  0.5450220000000  0.4358950000000 1.0
C      1  0.5386430000000  0.4768890000000  0.4358950000000 1.0
C      1  0.5354030000000  0.5991710000000  0.5267540000000 1.0
C      1  0.5681780000000  0.4197470000000  0.5267410000000 1.0
C      1  0.3964050000000  0.4810740000000  0.5267160000000 1.0
C      1  0.4741390000000  0.4050090000000  0.4545350000000 1.0
C      1  0.4306740000000  0.5699060000000  0.4545450000000 1.0
C      1  0.5952120000000  0.5250990000000  0.4545700000000 1.0
END
