TITL C-193861-2065-4 14.5324167387467 125000 -919.431012205026 0 0 134 (C1) n - 1
REM
REM in /rds/project/t2_vol4/rds-t2-cs072/BORA/CARBON/from-Arr/AIRSS/Generating-Clusters/GAP-ML-2020/Higher-Symm/SD-CG/HFTN-CG
REM
REM
REM
REM
REM
REM ./C.cell (b20cbc046b6831c77cfcea5457e17084)
REM AIRSS Version 0.9.1 bugfix July 2018 build 013d7b7c2542+ Fri, 06 Jul 2018 19:26:36 +0100
REM compiler GCC version 9.3.0
REM options -cpp -mtune=generic -march=x86-64 -g -O0
REM seed -1145710262 -1950394534 -751327796 650374715 -391068283 1943406358 1181666209 786546484 1323568443 522692550 -978551703 -1572263267 365197336 -1793167916 656031812 1865556031 -328136050 -988000878 1474951727 133730603 1842102652 604929581 -1848503515 -178839334 -619904016 -73967802 1641375493 -6131403 1525184314 -1589546474 -1672996082 310805016 -1845936229
REM
CELL 1.54180   50.00000   50.00000   50.00000   90.00000   90.00000   90.00000
LATT -1
SFAC C  
C      1  0.4612600000000  0.4823060000000  0.4087260000000 1.0
C      1  0.4655380000000  0.4116060000000  0.4535790000000 1.0
C      1  0.4631860000000  0.4089230000000  0.5393460000000 1.0
C      1  0.4665690000000  0.4722400000000  0.5969500000000 1.0
C      1  0.4596070000000  0.5557760000000  0.5779500000000 1.0
C      1  0.4656590000000  0.5980180000000  0.5043850000000 1.0
C      1  0.4660060000000  0.5636640000000  0.4272120000000 1.0
C      1  0.5076580000000  0.5043700000000  0.4026750000000 1.0
C      1  0.5076750000000  0.4232930000000  0.4369340000000 1.0
C      1  0.5076440000000  0.4031250000000  0.5214750000000 1.0
C      1  0.5091340000000  0.4543290000000  0.5889130000000 1.0
C      1  0.5044630000000  0.5426050000000  0.5887510000000 1.0
C      1  0.5076050000000  0.5950870000000  0.5245220000000 1.0
C      1  0.5103740000000  0.5774500000000  0.4394340000000 1.0
C      1  0.5507690000000  0.5687640000000  0.5411710000000 1.0
C      1  0.5529360000000  0.5746020000000  0.4723720000000 1.0
C      1  0.5580480000000  0.5248760000000  0.4228710000000 1.0
C      1  0.5509660000000  0.4564430000000  0.4332490000000 1.0
C      1  0.5508960000000  0.4218280000000  0.4932070000000 1.0
C      1  0.5514630000000  0.4461200000000  0.5574030000000 1.0
C      1  0.5504720000000  0.5114950000000  0.5771530000000 1.0
C      1  0.5127700000000  0.5253810000000  0.4206790000000 1.0
C      1  0.5002400000000  0.4502300000000  0.4287140000000 1.0
C      1  0.5004700000000  0.4129130000000  0.4951760000000 1.0
C      1  0.5005190000000  0.4410990000000  0.5643450000000 1.0
C      1  0.4974560000000  0.5149930000000  0.5846940000000 1.0
C      1  0.4988680000000  0.5747360000000  0.5436970000000 1.0
C      1  0.5022760000000  0.5796330000000  0.4674040000000 1.0
C      1  0.5535240000000  0.4678900000000  0.5731220000000 1.0
C      1  0.5511540000000  0.5373660000000  0.5707550000000 1.0
C      1  0.5527180000000  0.5778540000000  0.5158770000000 1.0
C      1  0.5560920000000  0.5622920000000  0.4485130000000 1.0
C      1  0.5542310000000  0.4978490000000  0.4192500000000 1.0
C      1  0.5518630000000  0.4369400000000  0.4518380000000 1.0
C      1  0.5527410000000  0.4230200000000  0.5201420000000 1.0
C      1  0.4644520000000  0.4792370000000  0.5676790000000 1.0
C      1  0.4595200000000  0.5357690000000  0.5541750000000 1.0
C      1  0.4645750000000  0.5673110000000  0.5056290000000 1.0
C      1  0.4639290000000  0.5443240000000  0.4503700000000 1.0
C      1  0.4591050000000  0.4876990000000  0.4389360000000 1.0
C      1  0.4644980000000  0.4386340000000  0.4673410000000 1.0
C      1  0.4616840000000  0.4371730000000  0.5263440000000 1.0
C      1  0.4633130000000  0.4099780000000  0.5670670000000 1.0
C      1  0.4637030000000  0.4949420000000  0.6126110000000 1.0
C      1  0.4589900000000  0.5823070000000  0.5699690000000 1.0
C      1  0.4653970000000  0.6085230000000  0.4787540000000 1.0
C      1  0.4619480000000  0.5501790000000  0.4035020000000 1.0
C      1  0.4598950000000  0.4553270000000  0.4016200000000 1.0
C      1  0.4638170000000  0.3909720000000  0.4719580000000 1.0
C      1  0.5269980000000  0.4119430000000  0.4807740000000 1.0
C      1  0.5274150000000  0.4303280000000  0.5568550000000 1.0
C      1  0.5228170000000  0.4998360000000  0.5806800000000 1.0
C      1  0.5260760000000  0.5718420000000  0.5564990000000 1.0
C      1  0.5283610000000  0.5877590000000  0.4797070000000 1.0
C      1  0.5356070000000  0.5412750000000  0.4160940000000 1.0
C      1  0.5268840000000  0.4611480000000  0.4183240000000 1.0
C      1  0.5811260000000  0.4953260000000  0.5342810000000 1.0
C      1  0.5801730000000  0.5237550000000  0.5252910000000 1.0
C      1  0.5814270000000  0.5343970000000  0.4972470000000 1.0
C      1  0.5822920000000  0.5192760000000  0.4716060000000 1.0
C      1  0.5812670000000  0.4898430000000  0.4672960000000 1.0
C      1  0.5805700000000  0.4681500000000  0.4875180000000 1.0
C      1  0.5808170000000  0.4704640000000  0.5173350000000 1.0
C      1  0.4270540000000  0.5348390000000  0.5143300000000 1.0
C      1  0.4327140000000  0.5604210000000  0.4759740000000 1.0
C      1  0.4264920000000  0.5151320000000  0.4671150000000 1.0
C      1  0.4246930000000  0.4683330000000  0.4702850000000 1.0
C      1  0.4258950000000  0.4526850000000  0.4951050000000 1.0
C      1  0.4256270000000  0.4705990000000  0.5383650000000 1.0
C      1  0.4260080000000  0.4995800000000  0.5443280000000 1.0
C      1  0.4828280000000  0.4490970000000  0.5994340000000 1.0
C      1  0.4770990000000  0.5459990000000  0.5983570000000 1.0
C      1  0.4808850000000  0.6061930000000  0.5266670000000 1.0
C      1  0.4833810000000  0.5855230000000  0.4328820000000 1.0
C      1  0.4790590000000  0.5025990000000  0.3963010000000 1.0
C      1  0.4808690000000  0.4145030000000  0.4301320000000 1.0
C      1  0.4804380000000  0.3926180000000  0.5235120000000 1.0
C      1  0.5303040000000  0.4727100000000  0.5883810000000 1.0
C      1  0.5284450000000  0.5535270000000  0.5777260000000 1.0
C      1  0.5303760000000  0.5931070000000  0.5075300000000 1.0
C      1  0.5344390000000  0.5653750000000  0.4305640000000 1.0
C      1  0.5301700000000  0.4869200000000  0.4069680000000 1.0
C      1  0.5300570000000  0.4188460000000  0.4534790000000 1.0
C      1  0.5305130000000  0.4128620000000  0.5348860000000 1.0
C      1  0.4886110000000  0.5106230000000  0.4690590000000 1.0
C      1  0.4926950000000  0.4792660000000  0.4714390000000 1.0
C      1  0.4835700000000  0.4666670000000  0.4977350000000 1.0
C      1  0.4895000000000  0.4749300000000  0.5262190000000 1.0
C      1  0.4913550000000  0.5025290000000  0.5370290000000 1.0
C      1  0.4884250000000  0.5269760000000  0.5199720000000 1.0
C      1  0.4902160000000  0.5313410000000  0.4892580000000 1.0
C      1  0.5148170000000  0.5366950000000  0.5250440000000 1.0
C      1  0.5150980000000  0.5438600000000  0.4971690000000 1.0
C      1  0.5120350000000  0.5177240000000  0.4510620000000 1.0
C      1  0.5152900000000  0.4886980000000  0.4541320000000 1.0
C      1  0.5109850000000  0.4606950000000  0.4889840000000 1.0
C      1  0.5141220000000  0.4611230000000  0.5186280000000 1.0
C      1  0.5162120000000  0.4950470000000  0.5509520000000 1.0
C      1  0.4779780000000  0.4633450000000  0.4512290000000 1.0
C      1  0.4769000000000  0.4376900000000  0.4967770000000 1.0
C      1  0.4780780000000  0.4574360000000  0.5468750000000 1.0
C      1  0.4762580000000  0.5091080000000  0.5618130000000 1.0
C      1  0.4766590000000  0.5518990000000  0.5317810000000 1.0
C      1  0.4797690000000  0.5567750000000  0.4775800000000 1.0
C      1  0.4716850000000  0.5150770000000  0.4472400000000 1.0
C      1  0.4767890000000  0.3910700000000  0.4949740000000 1.0
C      1  0.4772520000000  0.4269320000000  0.5817060000000 1.0
C      1  0.4743130000000  0.5184230000000  0.6070910000000 1.0
C      1  0.4745440000000  0.5939290000000  0.5521150000000 1.0
C      1  0.4789790000000  0.5994520000000  0.4580780000000 1.0
C      1  0.4669210000000  0.5276510000000  0.3931000000000 1.0
C      1  0.4756040000000  0.4374650000000  0.4130720000000 1.0
C      1  0.4338740000000  0.4904140000000  0.4557970000000 1.0
C      1  0.4365500000000  0.4437380000000  0.4717560000000 1.0
C      1  0.4348830000000  0.4503870000000  0.5212520000000 1.0
C      1  0.4365580000000  0.4809280000000  0.5612220000000 1.0
C      1  0.4350370000000  0.5255630000000  0.5397110000000 1.0
C      1  0.4374360000000  0.5584050000000  0.5021350000000 1.0
C      1  0.4366160000000  0.5403430000000  0.4586150000000 1.0
C      1  0.5620290000000  0.4822940000000  0.4430680000000 1.0
C      1  0.5603270000000  0.4461690000000  0.4788350000000 1.0
C      1  0.5614500000000  0.4497760000000  0.5297180000000 1.0
C      1  0.5620410000000  0.4921240000000  0.5577280000000 1.0
C      1  0.5606550000000  0.5408860000000  0.5428710000000 1.0
C      1  0.5618790000000  0.5581940000000  0.4950510000000 1.0
C      1  0.5646860000000  0.5330510000000  0.4507040000000 1.0
C      1  0.5410130000000  0.5205800000000  0.4675280000000 1.0
C      1  0.5419620000000  0.4905220000000  0.4659420000000 1.0
C      1  0.5406220000000  0.4699520000000  0.4868790000000 1.0
C      1  0.5409710000000  0.4716220000000  0.5173190000000 1.0
C      1  0.5402560000000  0.4951300000000  0.5347750000000 1.0
C      1  0.5412010000000  0.5225900000000  0.5238080000000 1.0
C      1  0.5416580000000  0.5332830000000  0.4941540000000 1.0
C      1  0.4197370000000  0.5192230000000  0.4931220000000 1.0
END
