TITL C-19541-3123-9 149.473138387854 125000 -218.967883832398 0 0 34 (Ci) n - 1
REM
REM in /rds/project/t2_vol4/rds-t2-cs072/BORA/CARBON/from-Arr/AIRSS/Generating-Clusters/GAP-ML-2020/Higher-Symm/SD-CG/HFTN-CG
REM
REM
REM
REM
REM
REM ./C.cell (b20cbc046b6831c77cfcea5457e17084)
REM AIRSS Version 0.9.1 bugfix July 2018 build 013d7b7c2542+ Fri, 06 Jul 2018 19:26:36 +0100
REM compiler GCC version 9.3.0
REM options -cpp -mtune=generic -march=x86-64 -g -O0
REM seed -44387020 2025752477 2015954831 244081857 1144689366 1268263817 -1608326738 322228959 1382116777 1655747298 -244500377 -1134691648 -693992937 -654213944 57300767 1060038047 -1196232526 1885438452 -244537189 714227785 1582301899 1464853812 1200943339 -830753255 642902758 -588004138 1285329279 1900030698 355861844 -1833075146 -1820042109 411270666 -214071153
REM
CELL 1.54180   50.00000   50.00000   50.00000   90.00000   90.00000   90.00000
LATT -1
SFAC C  
C      1  0.4557980000000  0.5520130000000  0.4740500000000 1.0
C      1  0.5442020000000  0.4479870000000  0.5259500000000 1.0
C      1  0.5369610000000  0.4689740000000  0.4796730000000 1.0
C      1  0.4630390000000  0.5310260000000  0.5203270000000 1.0
C      1  0.4682930000000  0.5478040000000  0.5434590000000 1.0
C      1  0.5317070000000  0.4521960000000  0.4565410000000 1.0
C      1  0.4601700000000  0.5622710000000  0.5215710000000 1.0
C      1  0.5398300000000  0.4377290000000  0.4784290000000 1.0
C      1  0.5127710000000  0.5356800000000  0.5125340000000 1.0
C      1  0.4872290000000  0.4643200000000  0.4874660000000 1.0
C      1  0.5611380000000  0.4812930000000  0.4904760000000 1.0
C      1  0.4388620000000  0.5187070000000  0.5095240000000 1.0
C      1  0.5126680000000  0.5079190000000  0.4488210000000 1.0
C      1  0.4873320000000  0.4920810000000  0.5511790000000 1.0
C      1  0.5282570000000  0.4387410000000  0.5060700000000 1.0
C      1  0.4717430000000  0.5612590000000  0.4939300000000 1.0
C      1  0.5526600000000  0.5049340000000  0.5036520000000 1.0
C      1  0.4473400000000  0.4950660000000  0.4963480000000 1.0
C      1  0.5602580000000  0.4634370000000  0.5394540000000 1.0
C      1  0.4397420000000  0.5365630000000  0.4605460000000 1.0
C      1  0.5600900000000  0.4817990000000  0.5182300000000 1.0
C      1  0.4399100000000  0.5182010000000  0.4817700000000 1.0
C      1  0.5309170000000  0.5214840000000  0.4951290000000 1.0
C      1  0.4690830000000  0.4785160000000  0.5048710000000 1.0
C      1  0.4944900000000  0.5128660000000  0.5651280000000 1.0
C      1  0.5055100000000  0.4871340000000  0.4348720000000 1.0
C      1  0.5222200000000  0.5208660000000  0.4686510000000 1.0
C      1  0.4777800000000  0.4791340000000  0.5313490000000 1.0
C      1  0.4844370000000  0.4545380000000  0.4618140000000 1.0
C      1  0.5155630000000  0.5454610000000  0.5381860000000 1.0
C      1  0.5135510000000  0.4627600000000  0.4988790000000 1.0
C      1  0.4864490000000  0.5372400000000  0.5011210000000 1.0
C      1  0.5062840000000  0.4617440000000  0.4462570000000 1.0
C      1  0.4937150000000  0.5382560000000  0.5537430000000 1.0
END
