TITL C-199729-9350-10 -202.244177647388 125000 -516.990056364915 0 0 76 (C1) n - 1
REM
REM in /rds/project/t2_vol4/rds-t2-cs072/BORA/CARBON/from-Arr/AIRSS/Generating-Clusters/GAP-ML-2020/Higher-Symm/SD-CG/HFTN-CG
REM
REM
REM
REM
REM
REM ./C.cell (b20cbc046b6831c77cfcea5457e17084)
REM AIRSS Version 0.9.1 bugfix July 2018 build 013d7b7c2542+ Fri, 06 Jul 2018 19:26:36 +0100
REM compiler GCC version 9.3.0
REM options -cpp -mtune=generic -march=x86-64 -g -O0
REM seed -164232460 597533230 1998783258 298621633 -493365124 -1648615714 -1552328455 -203499305 840926488 183294148 13836808 -548916663 259194078 379379302 1754840265 -1931746126 337693950 232307076 -1215986706 -1763803958 1104344373 -1618996 -1632087538 -189157710 -1030250981 1306147775 -1570057858 -27972737 -1211053063 -1067244323 -495386123 1539230060 -138733712
REM
CELL 1.54180   50.00000   50.00000   50.00000   90.00000   90.00000   90.00000
LATT -1
SFAC C  
C      1  0.5400450000000  0.4638430000000  0.4453760000000 1.0
C      1  0.5435080000000  0.5425170000000  0.4502190000000 1.0
C      1  0.5426430000000  0.5637900000000  0.5237350000000 1.0
C      1  0.5403240000000  0.4981400000000  0.5635290000000 1.0
C      1  0.5444190000000  0.4349020000000  0.5166900000000 1.0
C      1  0.5683870000000  0.4902060000000  0.5228210000000 1.0
C      1  0.5678120000000  0.4753440000000  0.4974080000000 1.0
C      1  0.5674030000000  0.4947930000000  0.4760360000000 1.0
C      1  0.5679120000000  0.5217490000000  0.4880870000000 1.0
C      1  0.5681160000000  0.5190350000000  0.5169050000000 1.0
C      1  0.4475330000000  0.5304280000000  0.5568310000000 1.0
C      1  0.4509840000000  0.4563550000000  0.5447940000000 1.0
C      1  0.4477890000000  0.4429560000000  0.4712030000000 1.0
C      1  0.4499020000000  0.5101750000000  0.4382660000000 1.0
C      1  0.4486740000000  0.5639350000000  0.4905520000000 1.0
C      1  0.4684040000000  0.4413550000000  0.4519090000000 1.0
C      1  0.4702850000000  0.5294180000000  0.4328690000000 1.0
C      1  0.4689600000000  0.5756630000000  0.5066430000000 1.0
C      1  0.4692040000000  0.5208910000000  0.5721770000000 1.0
C      1  0.4707670000000  0.4369170000000  0.5376660000000 1.0
C      1  0.5067320000000  0.5368950000000  0.5032440000000 1.0
C      1  0.5101620000000  0.5157650000000  0.5260750000000 1.0
C      1  0.5117680000000  0.4719560000000  0.5073730000000 1.0
C      1  0.5066810000000  0.4658950000000  0.4788720000000 1.0
C      1  0.5131480000000  0.5151220000000  0.4822020000000 1.0
C      1  0.4395440000000  0.4822100000000  0.5465430000000 1.0
C      1  0.4377930000000  0.4502860000000  0.4965670000000 1.0
C      1  0.4389250000000  0.4881650000000  0.4520500000000 1.0
C      1  0.4381210000000  0.5433670000000  0.4742860000000 1.0
C      1  0.4371270000000  0.5395190000000  0.5324320000000 1.0
C      1  0.5297240000000  0.4158320000000  0.5002010000000 1.0
C      1  0.5222040000000  0.4763210000000  0.4255040000000 1.0
C      1  0.5290290000000  0.5676520000000  0.4523360000000 1.0
C      1  0.5273050000000  0.5685510000000  0.5482920000000 1.0
C      1  0.5231150000000  0.4764690000000  0.5737420000000 1.0
C      1  0.5222360000000  0.4499150000000  0.5298790000000 1.0
C      1  0.5210520000000  0.4472890000000  0.4611030000000 1.0
C      1  0.5218610000000  0.5219850000000  0.4494410000000 1.0
C      1  0.5212170000000  0.5649540000000  0.5029420000000 1.0
C      1  0.5210130000000  0.5196780000000  0.5566040000000 1.0
C      1  0.4826680000000  0.5060710000000  0.5221290000000 1.0
C      1  0.4830840000000  0.4812320000000  0.5096900000000 1.0
C      1  0.4817860000000  0.4803870000000  0.4803710000000 1.0
C      1  0.4849440000000  0.5078240000000  0.4799170000000 1.0
C      1  0.4774250000000  0.5253610000000  0.5014730000000 1.0
C      1  0.5355220000000  0.4611630000000  0.5528990000000 1.0
C      1  0.5388020000000  0.4322420000000  0.4784850000000 1.0
C      1  0.5345250000000  0.5004030000000  0.4352270000000 1.0
C      1  0.5382740000000  0.5670580000000  0.4795680000000 1.0
C      1  0.5378210000000  0.5428980000000  0.5554540000000 1.0
C      1  0.4970810000000  0.5382020000000  0.4374790000000 1.0
C      1  0.4958330000000  0.5785850000000  0.5160580000000 1.0
C      1  0.4960660000000  0.5127300000000  0.5756870000000 1.0
C      1  0.4974890000000  0.4301100000000  0.5301620000000 1.0
C      1  0.4951420000000  0.4439840000000  0.4425780000000 1.0
C      1  0.4474250000000  0.5614810000000  0.5181800000000 1.0
C      1  0.4482170000000  0.5032010000000  0.5633760000000 1.0
C      1  0.4479250000000  0.4413040000000  0.5213870000000 1.0
C      1  0.4480460000000  0.4614130000000  0.4500380000000 1.0
C      1  0.4479290000000  0.5358130000000  0.4491380000000 1.0
C      1  0.4272070000000  0.4948090000000  0.4770090000000 1.0
C      1  0.4271090000000  0.5210800000000  0.4878340000000 1.0
C      1  0.4267400000000  0.5190470000000  0.5159310000000 1.0
C      1  0.4273370000000  0.4915330000000  0.5227220000000 1.0
C      1  0.4273130000000  0.4765650000000  0.4985740000000 1.0
C      1  0.5557690000000  0.4815600000000  0.5460990000000 1.0
C      1  0.5577190000000  0.4489730000000  0.4948650000000 1.0
C      1  0.5550920000000  0.4874520000000  0.4518150000000 1.0
C      1  0.5576160000000  0.5447070000000  0.4753400000000 1.0
C      1  0.5565520000000  0.5398650000000  0.5323060000000 1.0
C      1  0.5003080000000  0.4609890000000  0.4209260000000 1.0
C      1  0.5041330000000  0.5645600000000  0.4413520000000 1.0
C      1  0.5031040000000  0.5801230000000  0.5429990000000 1.0
C      1  0.5004530000000  0.4867250000000  0.5845430000000 1.0
C      1  0.5049420000000  0.4111070000000  0.5113720000000 1.0
C      1  0.5229850000000  0.4983590000000  0.5053530000000 1.0
END
