TITL C-199738-9763-1 28.3575227117773 125000 -86.298648524372 0 0 14 (C1) n - 1
REM
REM in /rds/project/t2_vol4/rds-t2-cs072/BORA/CARBON/from-Arr/AIRSS/Generating-Clusters/GAP-ML-2020/Higher-Symm/SD-CG/HFTN-CG
REM
REM
REM
REM
REM
REM ./C.cell (b20cbc046b6831c77cfcea5457e17084)
REM AIRSS Version 0.9.1 bugfix July 2018 build 013d7b7c2542+ Fri, 06 Jul 2018 19:26:36 +0100
REM compiler GCC version 9.3.0
REM options -cpp -mtune=generic -march=x86-64 -g -O0
REM seed 801375488 -1410907869 -1453952802 452800492 -69210357 1232405505 -519499550 -1778277694 -876903506 1610271562 -1746566768 569720333 -1330288445 -494398179 602765903 -1603417756 -623139934 911815120 -110433280 2076647848 -1594580954 -2012945798 1948043892 -46479547 -27616448 -1010494485 1885555255 -707107208 -1334605545 -1474997958 -107778495 81302210 -953733020
REM
CELL 1.54180   50.00000   50.00000   50.00000   90.00000   90.00000   90.00000
LATT -1
SFAC C  
C      1  0.4863450000000  0.4945600000000  0.5197740000000 1.0
C      1  0.4795100000000  0.5330240000000  0.4947700000000 1.0
C      1  0.4412390000000  0.4775020000000  0.4674220000000 1.0
C      1  0.5287660000000  0.5060290000000  0.5141880000000 1.0
C      1  0.4562010000000  0.4924330000000  0.4808440000000 1.0
C      1  0.5390130000000  0.4881610000000  0.4779250000000 1.0
C      1  0.5252200000000  0.4660770000000  0.4724520000000 1.0
C      1  0.4926950000000  0.5114630000000  0.5404170000000 1.0
C      1  0.5073690000000  0.5256670000000  0.5220250000000 1.0
C      1  0.4722250000000  0.5062600000000  0.4969170000000 1.0
C      1  0.4959890000000  0.5479940000000  0.5080610000000 1.0
C      1  0.5114440000000  0.4818820000000  0.5144200000000 1.0
C      1  0.5476120000000  0.5073200000000  0.4934810000000 1.0
C      1  0.5163740000000  0.4616260000000  0.4973030000000 1.0
END
