TITL C-199733-9531-6 -0.00685466284036325 125000 -269.437287991725 0 0 41 (C3) n - 1
REM
REM in /rds/project/t2_vol4/rds-t2-cs072/BORA/CARBON/from-Arr/AIRSS/Generating-Clusters/GAP-ML-2020/Higher-Symm/SD-CG/HFTN-CG
REM
REM
REM
REM
REM
REM ./C.cell (b20cbc046b6831c77cfcea5457e17084)
REM AIRSS Version 0.9.1 bugfix July 2018 build 013d7b7c2542+ Fri, 06 Jul 2018 19:26:36 +0100
REM compiler GCC version 9.3.0
REM options -cpp -mtune=generic -march=x86-64 -g -O0
REM seed 520887787 2132408240 -1148626720 1260141884 -458681236 -1091038404 -1436627273 -990824627 517526255 -390966068 621337384 804241023 -604386859 94207716 -678916270 -808786929 1405034722 -2930525 -319985020 -1449600200 696070498 1558994499 791794394 -1102299155 757574565 1610985419 1676089315 -774733992 -1292566159 93922818 -2084847028 2092696416 -1474250138
REM
CELL 1.54180   50.00000   50.00000   50.00000   90.00000   90.00000   90.00000
LATT -1
SFAC C  
C      1  0.5195810000000  0.4466110000000  0.4787240000000 1.0
C      1  0.4719360000000  0.4466550000000  0.4934220000000 1.0
C      1  0.5084870000000  0.4466290000000  0.5273350000000 1.0
C      1  0.5249470000000  0.5584670000000  0.5144260000000 1.0
C      1  0.4750150000000  0.5585100000000  0.5140210000000 1.0
C      1  0.5003310000000  0.5584820000000  0.4709810000000 1.0
C      1  0.5757030000000  0.4860810000000  0.4662330000000 1.0
C      1  0.4331130000000  0.4862020000000  0.4510840000000 1.0
C      1  0.4912890000000  0.4861720000000  0.5821450000000 1.0
C      1  0.5717860000000  0.5096470000000  0.5366220000000 1.0
C      1  0.4323160000000  0.5097690000000  0.5435350000000 1.0
C      1  0.4960640000000  0.5096940000000  0.4192940000000 1.0
C      1  0.4373300000000  0.5214930000000  0.5182980000000 1.0
C      1  0.5474400000000  0.5214030000000  0.5449040000000 1.0
C      1  0.5154270000000  0.5214130000000  0.4362430000000 1.0
C      1  0.4356120000000  0.4820010000000  0.4790380000000 1.0
C      1  0.5502400000000  0.4818980000000  0.4544240000000 1.0
C      1  0.5142430000000  0.4819470000000  0.5660020000000 1.0
C      1  0.4729110000000  0.5043600000000  0.4949690000000 1.0
C      1  0.5094220000000  0.5043330000000  0.5257460000000 1.0
C      1  0.5178200000000  0.5043190000000  0.4787380000000 1.0
C      1  0.4828700000000  0.5017290000000  0.5212000000000 1.0
C      1  0.4901200000000  0.5017150000000  0.4742500000000 1.0
C      1  0.5271560000000  0.5016880000000  0.5040040000000 1.0
C      1  0.4505630000000  0.4579760000000  0.4871440000000 1.0
C      1  0.5137520000000  0.4579310000000  0.5489890000000 1.0
C      1  0.5357170000000  0.4578980000000  0.4633430000000 1.0
C      1  0.4550770000000  0.5442910000000  0.5185470000000 1.0
C      1  0.5063640000000  0.5442360000000  0.4514650000000 1.0
C      1  0.5388150000000  0.5442210000000  0.5294220000000 1.0
C      1  0.5841580000000  0.4934720000000  0.4890200000000 1.0
C      1  0.4486310000000  0.4935800000000  0.4323720000000 1.0
C      1  0.4673360000000  0.4935870000000  0.5780660000000 1.0
C      1  0.5815860000000  0.5021950000000  0.5142780000000 1.0
C      1  0.4467580000000  0.5023190000000  0.5632010000000 1.0
C      1  0.4718030000000  0.5022750000000  0.4219750000000 1.0
C      1  0.5330900000000  0.5054890000000  0.4540380000000 1.0
C      1  0.4438870000000  0.5055720000000  0.4940960000000 1.0
C      1  0.5231790000000  0.5055130000000  0.5513190000000 1.0
C      1  0.5001000000000  0.5612260000000  0.4998090000000 1.0
C      1  0.4999990000000  0.4437490000000  0.4998270000000 1.0
END
