TITL C-19930-9392-3 -20.8342489465213 125000 -1047.70233848784 0 0 150 (C5) n - 1
REM
REM in /rds/project/t2_vol4/rds-t2-cs072/BORA/CARBON/from-Arr/AIRSS/Generating-Clusters/GAP-ML-2020/Higher-Symm/SD-CG/HFTN-CG
REM
REM
REM
REM
REM
REM ./C.cell (b20cbc046b6831c77cfcea5457e17084)
REM AIRSS Version 0.9.1 bugfix July 2018 build 013d7b7c2542+ Fri, 06 Jul 2018 19:26:36 +0100
REM compiler GCC version 9.3.0
REM options -cpp -mtune=generic -march=x86-64 -g -O0
REM seed -80530343 1803151980 -757033176 1539340819 -317323665 -838439369 1582433716 -2103856059 -1170848658 1791709173 81583577 -187927388 -1483439816 706587492 1456989155 -1767369949 2016788122 1037899080 -1489404460 -42155258 -761773584 -88257726 1554603049 1120810649 43435206 -1930022011 -1679598640 -662473911 -1052534728 -888370701 98138069 1820416468 1897865213
REM
CELL 1.54180   50.00000   50.00000   50.00000   90.00000   90.00000   90.00000
LATT -1
SFAC C  
C      1  0.4832320000000  0.5685520000000  0.4460390000000 1.0
C      1  0.5600140000000  0.5371330000000  0.4460390000000 1.0
C      1  0.5538600000000  0.4544000000000  0.4460370000000 1.0
C      1  0.4732750000000  0.4346870000000  0.4460350000000 1.0
C      1  0.4296240000000  0.5052370000000  0.4460360000000 1.0
C      1  0.5167680000000  0.5685520000000  0.4460400000000 1.0
C      1  0.4399870000000  0.5371310000000  0.4460370000000 1.0
C      1  0.4461430000000  0.4543980000000  0.4460350000000 1.0
C      1  0.5267290000000  0.4346880000000  0.4460360000000 1.0
C      1  0.5703780000000  0.5052390000000  0.4460390000000 1.0
C      1  0.6029110000000  0.5484670000000  0.4907290000000 1.0
C      1  0.5778960000000  0.4171040000000  0.4907250000000 1.0
C      1  0.4452320000000  0.4003000000000  0.4907220000000 1.0
C      1  0.3882560000000  0.5212790000000  0.4907250000000 1.0
C      1  0.4857060000000  0.6128510000000  0.4907290000000 1.0
C      1  0.3970880000000  0.5484640000000  0.4907260000000 1.0
C      1  0.4221070000000  0.4171010000000  0.4907220000000 1.0
C      1  0.5547710000000  0.4003020000000  0.4907240000000 1.0
C      1  0.6117440000000  0.5212820000000  0.4907290000000 1.0
C      1  0.5142900000000  0.6128520000000  0.4907300000000 1.0
C      1  0.5139960000000  0.5424100000000  0.4310420000000 1.0
C      1  0.5446580000000  0.4997970000000  0.4310410000000 1.0
C      1  0.5136060000000  0.4574670000000  0.4310400000000 1.0
C      1  0.4637520000000  0.4739190000000  0.4310390000000 1.0
C      1  0.4639930000000  0.5264170000000  0.4310410000000 1.0
C      1  0.4860050000000  0.5424100000000  0.4310420000000 1.0
C      1  0.4553440000000  0.4997960000000  0.4310400000000 1.0
C      1  0.4863970000000  0.4574670000000  0.4310390000000 1.0
C      1  0.5362510000000  0.4739200000000  0.4310400000000 1.0
C      1  0.5360090000000  0.5264180000000  0.4310420000000 1.0
C      1  0.4200780000000  0.4135840000000  0.5202820000000 1.0
C      1  0.3931160000000  0.5493060000000  0.5202850000000 1.0
C      1  0.5138640000000  0.6168880000000  0.5202890000000 1.0
C      1  0.6154520000000  0.5229340000000  0.5202880000000 1.0
C      1  0.5574890000000  0.3972850000000  0.5202840000000 1.0
C      1  0.5799240000000  0.4135860000000  0.5202850000000 1.0
C      1  0.6068820000000  0.5493090000000  0.5202890000000 1.0
C      1  0.4861320000000  0.6168880000000  0.5202890000000 1.0
C      1  0.3845470000000  0.5229310000000  0.5202840000000 1.0
C      1  0.4425140000000  0.3972830000000  0.5202820000000 1.0
C      1  0.4633640000000  0.5946210000000  0.4836640000000 1.0
C      1  0.5786680000000  0.5640830000000  0.4836650000000 1.0
C      1  0.5852560000000  0.4449850000000  0.4836620000000 1.0
C      1  0.4740230000000  0.4019170000000  0.4836590000000 1.0
C      1  0.3986900000000  0.4943970000000  0.4836600000000 1.0
C      1  0.5366330000000  0.5946220000000  0.4836660000000 1.0
C      1  0.4213300000000  0.5640800000000  0.4836630000000 1.0
C      1  0.4147470000000  0.4449830000000  0.4836590000000 1.0
C      1  0.5259810000000  0.4019180000000  0.4836600000000 1.0
C      1  0.6013110000000  0.4944000000000  0.4836640000000 1.0
C      1  0.4697750000000  0.4314380000000  0.5438690000000 1.0
C      1  0.4254540000000  0.5075570000000  0.5438700000000 1.0
C      1  0.4841520000000  0.5732310000000  0.5438730000000 1.0
C      1  0.5647500000000  0.5377000000000  0.5438740000000 1.0
C      1  0.5558650000000  0.4500670000000  0.5438710000000 1.0
C      1  0.5302250000000  0.4314390000000  0.5438700000000 1.0
C      1  0.5745440000000  0.5075590000000  0.5438730000000 1.0
C      1  0.5158440000000  0.5732320000000  0.5438740000000 1.0
C      1  0.4352470000000  0.5376980000000  0.5438720000000 1.0
C      1  0.4441350000000  0.4500660000000  0.5438690000000 1.0
C      1  0.4520730000000  0.5001360000000  0.4932530000000 1.0
C      1  0.4853190000000  0.5456230000000  0.4932550000000 1.0
C      1  0.5388540000000  0.5280610000000  0.4932550000000 1.0
C      1  0.5386940000000  0.4717190000000  0.4932540000000 1.0
C      1  0.4850600000000  0.4544610000000  0.4932520000000 1.0
C      1  0.5479270000000  0.5001380000000  0.4932550000000 1.0
C      1  0.5146800000000  0.5456240000000  0.4932560000000 1.0
C      1  0.4611460000000  0.5280600000000  0.4932540000000 1.0
C      1  0.4613070000000  0.4717180000000  0.4932520000000 1.0
C      1  0.5149410000000  0.4544620000000  0.4932530000000 1.0
C      1  0.5488310000000  0.5000990000000  0.5244530000000 1.0
C      1  0.5151840000000  0.4535890000000  0.5244510000000 1.0
C      1  0.4605530000000  0.4712170000000  0.5244510000000 1.0
C      1  0.4604360000000  0.5286210000000  0.5244520000000 1.0
C      1  0.5149950000000  0.5464710000000  0.5244540000000 1.0
C      1  0.4511680000000  0.5000970000000  0.5244510000000 1.0
C      1  0.4848170000000  0.4535880000000  0.5244510000000 1.0
C      1  0.5394480000000  0.4712180000000  0.5244520000000 1.0
C      1  0.5395620000000  0.5286230000000  0.5244540000000 1.0
C      1  0.4850030000000  0.5464710000000  0.5244530000000 1.0
C      1  0.4718690000000  0.5649010000000  0.4739380000000 1.0
C      1  0.5530310000000  0.5468110000000  0.4739380000000 1.0
C      1  0.5609070000000  0.4640310000000  0.4739360000000 1.0
C      1  0.4846120000000  0.4309600000000  0.4739340000000 1.0
C      1  0.4295840000000  0.4933010000000  0.4739350000000 1.0
C      1  0.5281300000000  0.5649020000000  0.4739390000000 1.0
C      1  0.4469690000000  0.5468090000000  0.4739370000000 1.0
C      1  0.4390950000000  0.4640290000000  0.4739340000000 1.0
C      1  0.5153910000000  0.4309610000000  0.4739340000000 1.0
C      1  0.5704170000000  0.4933030000000  0.4739370000000 1.0
C      1  0.5509570000000  0.5455320000000  0.5680510000000 1.0
C      1  0.5590510000000  0.4656040000000  0.5680490000000 1.0
C      1  0.4855360000000  0.4332080000000  0.5680470000000 1.0
C      1  0.4320080000000  0.4931130000000  0.5680480000000 1.0
C      1  0.4724410000000  0.5625330000000  0.5680500000000 1.0
C      1  0.4490390000000  0.5455300000000  0.5680490000000 1.0
C      1  0.4409480000000  0.4656020000000  0.5680470000000 1.0
C      1  0.5144630000000  0.4332080000000  0.5680470000000 1.0
C      1  0.5679890000000  0.4931150000000  0.5680500000000 1.0
C      1  0.5275550000000  0.5625340000000  0.5680510000000 1.0
C      1  0.5536070000000  0.5977550000000  0.4593600000000 1.0
C      1  0.6095360000000  0.4792260000000  0.4593580000000 1.0
C      1  0.5140910000000  0.3894080000000  0.4593540000000 1.0
C      1  0.3991740000000  0.4524250000000  0.4593530000000 1.0
C      1  0.4235960000000  0.5811910000000  0.4593580000000 1.0
C      1  0.4463920000000  0.5977540000000  0.4593590000000 1.0
C      1  0.3904670000000  0.4792230000000  0.4593540000000 1.0
C      1  0.4859140000000  0.3894070000000  0.4593530000000 1.0
C      1  0.6008290000000  0.4524290000000  0.4593570000000 1.0
C      1  0.5764030000000  0.5811940000000  0.4593600000000 1.0
C      1  0.4278370000000  0.5758860000000  0.5106640000000 1.0
C      1  0.5498730000000  0.5920800000000  0.5106670000000 1.0
C      1  0.6029850000000  0.4810220000000  0.5106640000000 1.0
C      1  0.5137760000000  0.3961900000000  0.5106600000000 1.0
C      1  0.4055280000000  0.4548190000000  0.5106600000000 1.0
C      1  0.5721600000000  0.5758880000000  0.5106660000000 1.0
C      1  0.4501240000000  0.5920790000000  0.5106650000000 1.0
C      1  0.3970150000000  0.4810190000000  0.5106610000000 1.0
C      1  0.4862270000000  0.3961900000000  0.5106600000000 1.0
C      1  0.5944730000000  0.4548220000000  0.5106630000000 1.0
C      1  0.5324200000000  0.4043850000000  0.5310270000000 1.0
C      1  0.4190840000000  0.4396190000000  0.5310260000000 1.0
C      1  0.4175700000000  0.5582960000000  0.5310300000000 1.0
C      1  0.5299710000000  0.5964090000000  0.5310330000000 1.0
C      1  0.6009520000000  0.5012870000000  0.5310310000000 1.0
C      1  0.4675820000000  0.4043840000000  0.5310260000000 1.0
C      1  0.5809170000000  0.4396210000000  0.5310290000000 1.0
C      1  0.5824270000000  0.5582980000000  0.5310330000000 1.0
C      1  0.4700250000000  0.5964080000000  0.5310320000000 1.0
C      1  0.3990470000000  0.5012840000000  0.5310280000000 1.0
C      1  0.5150400000000  0.4559550000000  0.5861360000000 1.0
C      1  0.4627590000000  0.4720830000000  0.5861350000000 1.0
C      1  0.4619420000000  0.5267880000000  0.5861370000000 1.0
C      1  0.5137180000000  0.5444700000000  0.5861380000000 1.0
C      1  0.5465340000000  0.5006930000000  0.5861370000000 1.0
C      1  0.4849590000000  0.4559540000000  0.5861350000000 1.0
C      1  0.5372380000000  0.4720840000000  0.5861360000000 1.0
C      1  0.5380540000000  0.5267890000000  0.5861380000000 1.0
C      1  0.4862780000000  0.5444690000000  0.5861380000000 1.0
C      1  0.4534630000000  0.5006910000000  0.5861360000000 1.0
C      1  0.5909500000000  0.4855600000000  0.4375010000000 1.0
C      1  0.5143700000000  0.4090420000000  0.4374970000000 1.0
C      1  0.4179330000000  0.4582280000000  0.4374970000000 1.0
C      1  0.4349110000000  0.5651440000000  0.4375010000000 1.0
C      1  0.5418410000000  0.5820360000000  0.4375030000000 1.0
C      1  0.4090530000000  0.4855570000000  0.4374980000000 1.0
C      1  0.4856350000000  0.4090410000000  0.4374970000000 1.0
C      1  0.5820700000000  0.4582300000000  0.4375000000000 1.0
C      1  0.5650890000000  0.5651460000000  0.4375030000000 1.0
C      1  0.4581580000000  0.5820350000000  0.4375020000000 1.0
END
