TITL C-193864-2068-7 0.146714878051709 125000 -637.124574421521 0 0 89 (Cs) n - 1
REM
REM in /rds/project/t2_vol4/rds-t2-cs072/BORA/CARBON/from-Arr/AIRSS/Generating-Clusters/GAP-ML-2020/Higher-Symm/SD-CG/HFTN-CG
REM
REM
REM
REM
REM
REM ./C.cell (b20cbc046b6831c77cfcea5457e17084)
REM AIRSS Version 0.9.1 bugfix July 2018 build 013d7b7c2542+ Fri, 06 Jul 2018 19:26:36 +0100
REM compiler GCC version 9.3.0
REM options -cpp -mtune=generic -march=x86-64 -g -O0
REM seed -131258054 325411863 -1191761106 -1595799843 -1011951095 945993548 -2032383014 -669491884 344467953 -564355543 787101328 726036086 653584531 -613510082 -2143713952 750149921 1341184174 329157396 -1845096389 -2047732923 -7459516 -1979176437 -566097332 -140330212 988935382 7398732 -1325888718 1178161032 -1666858745 1287029932 1662178217 -1740042047 1014939510
REM
CELL 1.54180   50.00000   50.00000   50.00000   90.00000   90.00000   90.00000
LATT -1
SFAC C  
C      1  0.4892010000000  0.4529760000000  0.5188850000000 1.0
C      1  0.4606800000000  0.4473800000000  0.5182400000000 1.0
C      1  0.4490300000000  0.4434760000000  0.4929890000000 1.0
C      1  0.4594630000000  0.4420860000000  0.4651890000000 1.0
C      1  0.4830600000000  0.4401660000000  0.4497310000000 1.0
C      1  0.5130290000000  0.4399450000000  0.4494390000000 1.0
C      1  0.5375450000000  0.4399380000000  0.4636300000000 1.0
C      1  0.5522200000000  0.4401470000000  0.4897620000000 1.0
C      1  0.5505690000000  0.4420600000000  0.5179240000000 1.0
C      1  0.5316600000000  0.4434530000000  0.5408180000000 1.0
C      1  0.5039630000000  0.4473690000000  0.5432930000000 1.0
C      1  0.4906900000000  0.5099620000000  0.5425110000000 1.0
C      1  0.4679960000000  0.5099680000000  0.5293740000000 1.0
C      1  0.4707920000000  0.4987650000000  0.5050140000000 1.0
C      1  0.4585910000000  0.5020130000000  0.4825070000000 1.0
C      1  0.4724310000000  0.4982390000000  0.4610160000000 1.0
C      1  0.4977700000000  0.4961550000000  0.4584780000000 1.0
C      1  0.5116750000000  0.4905120000000  0.4800750000000 1.0
C      1  0.5373310000000  0.4961440000000  0.4813770000000 1.0
C      1  0.5477520000000  0.4982180000000  0.5046140000000 1.0
C      1  0.5360120000000  0.5019920000000  0.5273190000000 1.0
C      1  0.5104170000000  0.4987540000000  0.5279500000000 1.0
C      1  0.4182970000000  0.5267540000000  0.4676140000000 1.0
C      1  0.4486250000000  0.5254050000000  0.4293220000000 1.0
C      1  0.4949490000000  0.5260340000000  0.4142620000000 1.0
C      1  0.5414950000000  0.5238010000000  0.4285740000000 1.0
C      1  0.5770900000000  0.5260110000000  0.4618070000000 1.0
C      1  0.5871030000000  0.5253660000000  0.5094760000000 1.0
C      1  0.5690050000000  0.5267130000000  0.5548480000000 1.0
C      1  0.5270810000000  0.5240170000000  0.5802800000000 1.0
C      1  0.4787040000000  0.5287130000000  0.5855250000000 1.0
C      1  0.4366750000000  0.5287250000000  0.5611980000000 1.0
C      1  0.4171250000000  0.5240470000000  0.5166350000000 1.0
C      1  0.4310760000000  0.5392080000000  0.5358670000000 1.0
C      1  0.4227130000000  0.5381250000000  0.4931160000000 1.0
C      1  0.4379780000000  0.5386610000000  0.4518350000000 1.0
C      1  0.4735440000000  0.5384550000000  0.4273090000000 1.0
C      1  0.5171630000000  0.5372660000000  0.4272120000000 1.0
C      1  0.5548000000000  0.5372560000000  0.4489970000000 1.0
C      1  0.5764420000000  0.5384260000000  0.4868700000000 1.0
C      1  0.5728900000000  0.5386240000000  0.5299260000000 1.0
C      1  0.5446970000000  0.5380910000000  0.5637230000000 1.0
C      1  0.5034620000000  0.5391880000000  0.5777660000000 1.0
C      1  0.4606800000000  0.5414360000000  0.5682000000000 1.0
C      1  0.4469390000000  0.4962450000000  0.4259640000000 1.0
C      1  0.4950020000000  0.4979590000000  0.4099070000000 1.0
C      1  0.5435410000000  0.4956260000000  0.4250250000000 1.0
C      1  0.5808280000000  0.4979350000000  0.4595850000000 1.0
C      1  0.5908430000000  0.4962050000000  0.5092590000000 1.0
C      1  0.5730850000000  0.4984570000000  0.5572820000000 1.0
C      1  0.5277540000000  0.4950540000000  0.5818590000000 1.0
C      1  0.4780270000000  0.4998440000000  0.5887590000000 1.0
C      1  0.4341960000000  0.4998560000000  0.5633880000000 1.0
C      1  0.4154080000000  0.4950850000000  0.5168300000000 1.0
C      1  0.4141430000000  0.4985010000000  0.4652830000000 1.0
C      1  0.5301480000000  0.5551070000000  0.5431020000000 1.0
C      1  0.5024950000000  0.5562030000000  0.5520670000000 1.0
C      1  0.4738450000000  0.5576800000000  0.5454640000000 1.0
C      1  0.4538480000000  0.5562160000000  0.5239090000000 1.0
C      1  0.4478480000000  0.5551290000000  0.4954650000000 1.0
C      1  0.4581620000000  0.5548090000000  0.4682810000000 1.0
C      1  0.4820130000000  0.5543140000000  0.4520830000000 1.0
C      1  0.5111260000000  0.5529910000000  0.4519730000000 1.0
C      1  0.5363430000000  0.5529840000000  0.4665690000000 1.0
C      1  0.5507490000000  0.5542950000000  0.4918690000000 1.0
C      1  0.5485830000000  0.5547840000000  0.5206190000000 1.0
C      1  0.5739770000000  0.4573590000000  0.4783700000000 1.0
C      1  0.5700170000000  0.4582260000000  0.5344170000000 1.0
C      1  0.5513440000000  0.4583110000000  0.5567910000000 1.0
C      1  0.4915030000000  0.4604400000000  0.5658200000000 1.0
C      1  0.4632900000000  0.4637840000000  0.5636550000000 1.0
C      1  0.4473580000000  0.4604530000000  0.5402680000000 1.0
C      1  0.4253810000000  0.4583460000000  0.4838810000000 1.0
C      1  0.4354810000000  0.4582630000000  0.4565440000000 1.0
C      1  0.4821080000000  0.4573850000000  0.4251940000000 1.0
C      1  0.5111690000000  0.4573600000000  0.4246260000000 1.0
C      1  0.5599960000000  0.4573460000000  0.4528880000000 1.0
C      1  0.4137090000000  0.4835130000000  0.4905180000000 1.0
C      1  0.4290480000000  0.4836850000000  0.4450260000000 1.0
C      1  0.4714510000000  0.4827710000000  0.4164250000000 1.0
C      1  0.5193240000000  0.4833820000000  0.4163770000000 1.0
C      1  0.5630970000000  0.4833700000000  0.4417140000000 1.0
C      1  0.5868990000000  0.4827390000000  0.4832500000000 1.0
C      1  0.5832200000000  0.4836430000000  0.5342650000000 1.0
C      1  0.5514120000000  0.4834750000000  0.5702240000000 1.0
C      1  0.5014280000000  0.4834170000000  0.5822850000000 1.0
C      1  0.4550730000000  0.4873570000000  0.5778610000000 1.0
C      1  0.4281470000000  0.4834370000000  0.5398680000000 1.0
C      1  0.4966010000000  0.4818480000000  0.5061140000000 1.0
END
