TITL C-193863-2132-1 -0.1492861667746 125000 -496.296946185917 0 0 74 (C1) n - 1
REM
REM in /rds/project/t2_vol4/rds-t2-cs072/BORA/CARBON/from-Arr/AIRSS/Generating-Clusters/GAP-ML-2020/Higher-Symm/SD-CG/HFTN-CG
REM
REM
REM
REM
REM
REM ./C.cell (b20cbc046b6831c77cfcea5457e17084)
REM AIRSS Version 0.9.1 bugfix July 2018 build 013d7b7c2542+ Fri, 06 Jul 2018 19:26:36 +0100
REM compiler GCC version 9.3.0
REM options -cpp -mtune=generic -march=x86-64 -g -O0
REM seed 365431742 145809053 2046235710 510427366 -693925789 -1049511412 1288748124 -1432514813 81536286 1059267579 -261029575 -2064268823 -1511237615 559122774 -1945203955 -1314086624 380853117 -684713604 -186520735 -380272621 -1145425556 929800618 -1276531703 316869548 1664860605 1042048334 -1727082018 1761789711 1538669559 -884717066 -2070206226 1896609657 1295047443
REM
CELL 1.54180   50.00000   50.00000   50.00000   90.00000   90.00000   90.00000
LATT -1
SFAC C  
C      1  0.4659610000000  0.5276930000000  0.4596520000000 1.0
C      1  0.4517060000000  0.5268730000000  0.5210720000000 1.0
C      1  0.5046250000000  0.5291130000000  0.5525710000000 1.0
C      1  0.5539260000000  0.5307010000000  0.5110520000000 1.0
C      1  0.5283060000000  0.5314260000000  0.4526360000000 1.0
C      1  0.5321270000000  0.5361060000000  0.5522910000000 1.0
C      1  0.5605160000000  0.5381350000000  0.4839530000000 1.0
C      1  0.5047460000000  0.5380640000000  0.4386540000000 1.0
C      1  0.4444250000000  0.5334510000000  0.4767640000000 1.0
C      1  0.4597890000000  0.5346420000000  0.5476690000000 1.0
C      1  0.5311780000000  0.5027750000000  0.4614170000000 1.0
C      1  0.4762200000000  0.4986080000000  0.4604850000000 1.0
C      1  0.4574190000000  0.4951280000000  0.5115570000000 1.0
C      1  0.4979060000000  0.5018710000000  0.5381990000000 1.0
C      1  0.5407450000000  0.5031060000000  0.5127410000000 1.0
C      1  0.5614040000000  0.4529020000000  0.4875300000000 1.0
C      1  0.5093580000000  0.4623300000000  0.4426360000000 1.0
C      1  0.4545900000000  0.4564170000000  0.4764950000000 1.0
C      1  0.4508030000000  0.4479290000000  0.5476730000000 1.0
C      1  0.5215190000000  0.4517810000000  0.5505420000000 1.0
C      1  0.5405290000000  0.4555670000000  0.5299100000000 1.0
C      1  0.5516180000000  0.4563150000000  0.4601560000000 1.0
C      1  0.4818050000000  0.4552930000000  0.4395400000000 1.0
C      1  0.4415210000000  0.4505870000000  0.5024040000000 1.0
C      1  0.4761280000000  0.4484790000000  0.5626890000000 1.0
C      1  0.4872840000000  0.5663210000000  0.5247950000000 1.0
C      1  0.5245750000000  0.5673690000000  0.5135830000000 1.0
C      1  0.5208640000000  0.5682310000000  0.4844300000000 1.0
C      1  0.4918420000000  0.5671640000000  0.4765460000000 1.0
C      1  0.4727630000000  0.5668700000000  0.4998520000000 1.0
C      1  0.5418350000000  0.5502610000000  0.5283600000000 1.0
C      1  0.5389620000000  0.5509350000000  0.4703960000000 1.0
C      1  0.4850440000000  0.5488560000000  0.4556200000000 1.0
C      1  0.4523410000000  0.5466060000000  0.5003060000000 1.0
C      1  0.4836780000000  0.5490690000000  0.5470500000000 1.0
C      1  0.5386160000000  0.4452420000000  0.5038110000000 1.0
C      1  0.5254570000000  0.4473600000000  0.4610370000000 1.0
C      1  0.4712730000000  0.4407000000000  0.4595950000000 1.0
C      1  0.4482710000000  0.4350100000000  0.5236680000000 1.0
C      1  0.4978430000000  0.4379650000000  0.5499190000000 1.0
C      1  0.5088020000000  0.4954710000000  0.4144790000000 1.0
C      1  0.4237930000000  0.4899130000000  0.4667670000000 1.0
C      1  0.4501620000000  0.4918160000000  0.5573780000000 1.0
C      1  0.5380350000000  0.4902600000000  0.5724380000000 1.0
C      1  0.5767450000000  0.4947560000000  0.4816570000000 1.0
C      1  0.4875370000000  0.4727930000000  0.5768470000000 1.0
C      1  0.5572810000000  0.4802270000000  0.5269890000000 1.0
C      1  0.5505580000000  0.4821590000000  0.4440280000000 1.0
C      1  0.4657870000000  0.4809410000000  0.4381820000000 1.0
C      1  0.4326210000000  0.4774020000000  0.5147920000000 1.0
C      1  0.5095730000000  0.4995690000000  0.5114090000000 1.0
C      1  0.5458350000000  0.4967050000000  0.4857400000000 1.0
C      1  0.5054120000000  0.4885610000000  0.4626590000000 1.0
C      1  0.4705840000000  0.4824900000000  0.4865290000000 1.0
C      1  0.4725170000000  0.4895300000000  0.5353430000000 1.0
C      1  0.4408640000000  0.4730480000000  0.4531650000000 1.0
C      1  0.4340240000000  0.4724380000000  0.5449910000000 1.0
C      1  0.5166090000000  0.4724790000000  0.5714540000000 1.0
C      1  0.5758840000000  0.4739330000000  0.5015280000000 1.0
C      1  0.5276070000000  0.4774600000000  0.4243940000000 1.0
C      1  0.4561130000000  0.5163710000000  0.5696580000000 1.0
C      1  0.5474460000000  0.5150340000000  0.5631680000000 1.0
C      1  0.5776390000000  0.5198050000000  0.4690630000000 1.0
C      1  0.4961710000000  0.5196110000000  0.4189430000000 1.0
C      1  0.4233340000000  0.5146150000000  0.4788740000000 1.0
C      1  0.4692730000000  0.4936890000000  0.5805930000000 1.0
C      1  0.5606270000000  0.4915010000000  0.5542090000000 1.0
C      1  0.5743020000000  0.4979290000000  0.4515650000000 1.0
C      1  0.4798780000000  0.4972180000000  0.4183250000000 1.0
C      1  0.4170870000000  0.4920700000000  0.4947590000000 1.0
C      1  0.4991560000000  0.5219520000000  0.4976330000000 1.0
C      1  0.5153770000000  0.4490490000000  0.4877710000000 1.0
C      1  0.5031900000000  0.5482820000000  0.5082780000000 1.0
C      1  0.5001090000000  0.4762700000000  0.4908270000000 1.0
END
