TITL C-193871-2137-6 0.0170942099149073 125000 -341.534790580799 0 0 51 (C1) n - 1
REM
REM in /rds/project/t2_vol4/rds-t2-cs072/BORA/CARBON/from-Arr/AIRSS/Generating-Clusters/GAP-ML-2020/Higher-Symm/SD-CG/HFTN-CG
REM
REM
REM
REM
REM
REM ./C.cell (b20cbc046b6831c77cfcea5457e17084)
REM AIRSS Version 0.9.1 bugfix July 2018 build 013d7b7c2542+ Fri, 06 Jul 2018 19:26:36 +0100
REM compiler GCC version 9.3.0
REM options -cpp -mtune=generic -march=x86-64 -g -O0
REM seed -806253287 1482318851 1902504511 567367491 -692854532 -840155494 1848874176 -1185199618 151958579 -1297661165 -310918187 -2114664190 -1279501018 940493198 -1373503688 1414025603 -777459726 -824850876 37787578 -1528764815 1100873181 -1935427455 54561315 -148462828 -846141774 988393840 52199480 960983306 -1077813985 -2111252048 1774426903 -221340261 -2143409740
REM
CELL 1.54180   50.00000   50.00000   50.00000   90.00000   90.00000   90.00000
LATT -1
SFAC C  
C      1  0.4834620000000  0.4287110000000  0.4819750000000 1.0
C      1  0.5218880000000  0.4388130000000  0.5216210000000 1.0
C      1  0.5042310000000  0.4841500000000  0.4363720000000 1.0
C      1  0.4978970000000  0.4842000000000  0.5570940000000 1.0
C      1  0.4679770000000  0.4825940000000  0.4999590000000 1.0
C      1  0.5261450000000  0.4806150000000  0.4904110000000 1.0
C      1  0.5653580000000  0.5435510000000  0.5116230000000 1.0
C      1  0.4398710000000  0.5564210000000  0.4897020000000 1.0
C      1  0.5030290000000  0.5636140000000  0.4872290000000 1.0
C      1  0.4915710000000  0.5635550000000  0.5098620000000 1.0
C      1  0.4362720000000  0.5447330000000  0.5159480000000 1.0
C      1  0.5611000000000  0.5454900000000  0.4827150000000 1.0
C      1  0.5682720000000  0.5003370000000  0.4887130000000 1.0
C      1  0.4300550000000  0.5035410000000  0.5129740000000 1.0
C      1  0.4928790000000  0.4656480000000  0.4528020000000 1.0
C      1  0.5007680000000  0.4580470000000  0.5625570000000 1.0
C      1  0.5025940000000  0.5324130000000  0.5488000000000 1.0
C      1  0.4954740000000  0.5324510000000  0.4496500000000 1.0
C      1  0.5413980000000  0.4674090000000  0.4691250000000 1.0
C      1  0.4598400000000  0.4687100000000  0.5245140000000 1.0
C      1  0.5790840000000  0.5256580000000  0.4916870000000 1.0
C      1  0.4157080000000  0.5259730000000  0.5170890000000 1.0
C      1  0.4848180000000  0.5503000000000  0.5330950000000 1.0
C      1  0.5125240000000  0.5496840000000  0.4654230000000 1.0
C      1  0.5562520000000  0.4916530000000  0.4627140000000 1.0
C      1  0.4459610000000  0.4917980000000  0.5355770000000 1.0
C      1  0.4710810000000  0.4271640000000  0.5037440000000 1.0
C      1  0.5340990000000  0.4281600000000  0.5003070000000 1.0
C      1  0.4492450000000  0.5523080000000  0.4665190000000 1.0
C      1  0.5545050000000  0.5434720000000  0.5357750000000 1.0
C      1  0.4453820000000  0.4982430000000  0.4899760000000 1.0
C      1  0.5464890000000  0.4948240000000  0.5060310000000 1.0
C      1  0.4722220000000  0.4428510000000  0.5275260000000 1.0
C      1  0.5311540000000  0.4408850000000  0.4738850000000 1.0
C      1  0.4586700000000  0.5049840000000  0.4657540000000 1.0
C      1  0.5338120000000  0.5024780000000  0.5300130000000 1.0
C      1  0.4982000000000  0.4392900000000  0.5424730000000 1.0
C      1  0.5024890000000  0.4415420000000  0.4660690000000 1.0
C      1  0.4581050000000  0.5396920000000  0.5352830000000 1.0
C      1  0.5393610000000  0.5385240000000  0.4651420000000 1.0
C      1  0.5392400000000  0.5132870000000  0.4526430000000 1.0
C      1  0.4601190000000  0.5137030000000  0.5477290000000 1.0
C      1  0.4903150000000  0.5020600000000  0.5110520000000 1.0
C      1  0.5029260000000  0.5009910000000  0.4853480000000 1.0
C      1  0.4803010000000  0.4848780000000  0.4707890000000 1.0
C      1  0.5088330000000  0.4870190000000  0.5301820000000 1.0
C      1  0.5316110000000  0.5277780000000  0.5424810000000 1.0
C      1  0.4665820000000  0.5306610000000  0.4562420000000 1.0
C      1  0.4865690000000  0.5109770000000  0.5591710000000 1.0
C      1  0.5122880000000  0.5095470000000  0.4415610000000 1.0
C      1  0.5138490000000  0.4648170000000  0.5121430000000 1.0
END
