TITL C-193874-2171-12 8.21362419556298 125000 -530.687851501343 0 0 77 (C1) n - 1
REM
REM in /rds/project/t2_vol4/rds-t2-cs072/BORA/CARBON/from-Arr/AIRSS/Generating-Clusters/GAP-ML-2020/Higher-Symm/SD-CG/HFTN-CG
REM
REM
REM
REM
REM
REM ./C.cell (b20cbc046b6831c77cfcea5457e17084)
REM AIRSS Version 0.9.1 bugfix July 2018 build 013d7b7c2542+ Fri, 06 Jul 2018 19:26:36 +0100
REM compiler GCC version 9.3.0
REM options -cpp -mtune=generic -march=x86-64 -g -O0
REM seed -1211384455 -729979698 -117736732 -567860839 -1293783051 109620009 813669108 -948380852 896030086 1543911018 -1272026104 1815458132 1361873076 -870663316 1145380201 -1796361184 1963842509 1107898349 -617160107 -90676475 648090933 -791498279 2033979603 1115101227 -1533329500 -388940867 -1083984933 -544778216 152580401 2092711916 -723105234 -1337409952 -1574454722
REM
CELL 1.54180   50.00000   50.00000   50.00000   90.00000   90.00000   90.00000
LATT -1
SFAC C  
C      1  0.4875020000000  0.5293540000000  0.5257470000000 1.0
C      1  0.4954250000000  0.4818930000000  0.5141840000000 1.0
C      1  0.4856790000000  0.4725490000000  0.4851230000000 1.0
C      1  0.4990460000000  0.5184170000000  0.4773120000000 1.0
C      1  0.5245980000000  0.4888800000000  0.5132290000000 1.0
C      1  0.4605110000000  0.5393690000000  0.5319590000000 1.0
C      1  0.4770640000000  0.5009110000000  0.4797130000000 1.0
C      1  0.5258970000000  0.5091850000000  0.4853670000000 1.0
C      1  0.5879800000000  0.4869640000000  0.5104090000000 1.0
C      1  0.4204340000000  0.5121910000000  0.5054940000000 1.0
C      1  0.5880440000000  0.5090750000000  0.4893640000000 1.0
C      1  0.4219460000000  0.4885410000000  0.4881940000000 1.0
C      1  0.4919530000000  0.5802910000000  0.5082110000000 1.0
C      1  0.5142800000000  0.4173600000000  0.5124850000000 1.0
C      1  0.5135360000000  0.5774520000000  0.4876390000000 1.0
C      1  0.4915410000000  0.4143510000000  0.4920280000000 1.0
C      1  0.5439560000000  0.4988250000000  0.5633160000000 1.0
C      1  0.4599100000000  0.5008750000000  0.5636400000000 1.0
C      1  0.5419720000000  0.4984830000000  0.4376260000000 1.0
C      1  0.4558140000000  0.5011720000000  0.4328800000000 1.0
C      1  0.5077530000000  0.5444910000000  0.5662870000000 1.0
C      1  0.5000830000000  0.4593770000000  0.5638530000000 1.0
C      1  0.4990380000000  0.5432610000000  0.4325140000000 1.0
C      1  0.4992780000000  0.4573610000000  0.4390550000000 1.0
C      1  0.4274950000000  0.5054900000000  0.5314740000000 1.0
C      1  0.5815250000000  0.4989290000000  0.5363630000000 1.0
C      1  0.4213960000000  0.4981330000000  0.4616710000000 1.0
C      1  0.5797140000000  0.4978160000000  0.4638120000000 1.0
C      1  0.5025300000000  0.4212240000000  0.5383040000000 1.0
C      1  0.5041060000000  0.5766800000000  0.5338350000000 1.0
C      1  0.5014520000000  0.4207100000000  0.4661840000000 1.0
C      1  0.5027560000000  0.5781510000000  0.4616010000000 1.0
C      1  0.4714110000000  0.4307030000000  0.5032780000000 1.0
C      1  0.5313000000000  0.5583080000000  0.4982930000000 1.0
C      1  0.4685200000000  0.5693570000000  0.4958390000000 1.0
C      1  0.5303100000000  0.4380450000000  0.5012280000000 1.0
C      1  0.4379080000000  0.4688810000000  0.5018380000000 1.0
C      1  0.5681940000000  0.5263490000000  0.5005760000000 1.0
C      1  0.5674950000000  0.4700690000000  0.4995770000000 1.0
C      1  0.4308510000000  0.5353840000000  0.4935600000000 1.0
C      1  0.4905560000000  0.4312820000000  0.4430090000000 1.0
C      1  0.5119480000000  0.5670180000000  0.4376860000000 1.0
C      1  0.4995830000000  0.5703080000000  0.5599620000000 1.0
C      1  0.5120230000000  0.4349660000000  0.5603110000000 1.0
C      1  0.4318340000000  0.4881610000000  0.4378900000000 1.0
C      1  0.5675770000000  0.5082680000000  0.4416010000000 1.0
C      1  0.5698470000000  0.4899090000000  0.5597000000000 1.0
C      1  0.4456210000000  0.5205400000000  0.5474450000000 1.0
C      1  0.5626140000000  0.5191600000000  0.5269300000000 1.0
C      1  0.4364180000000  0.4779750000000  0.5298800000000 1.0
C      1  0.5616050000000  0.4770230000000  0.4732380000000 1.0
C      1  0.4340090000000  0.5253870000000  0.4666970000000 1.0
C      1  0.5247480000000  0.5572680000000  0.5253770000000 1.0
C      1  0.4787660000000  0.4358360000000  0.5297630000000 1.0
C      1  0.4776010000000  0.5646920000000  0.4688220000000 1.0
C      1  0.5218690000000  0.4399360000000  0.4748130000000 1.0
C      1  0.5038110000000  0.5229850000000  0.5835300000000 1.0
C      1  0.5015830000000  0.4810110000000  0.5815030000000 1.0
C      1  0.4994950000000  0.4782780000000  0.4201480000000 1.0
C      1  0.5003110000000  0.5199650000000  0.4162720000000 1.0
C      1  0.5234500000000  0.5004590000000  0.5830050000000 1.0
C      1  0.4818720000000  0.5027550000000  0.5807810000000 1.0
C      1  0.4790610000000  0.4992180000000  0.4168250000000 1.0
C      1  0.5207110000000  0.4988140000000  0.4193650000000 1.0
C      1  0.4833860000000  0.5375190000000  0.4580730000000 1.0
C      1  0.5111470000000  0.4661510000000  0.4661630000000 1.0
C      1  0.4822340000000  0.4643280000000  0.5388080000000 1.0
C      1  0.5148080000000  0.5321960000000  0.5386260000000 1.0
C      1  0.5338010000000  0.4866220000000  0.4654880000000 1.0
C      1  0.4605120000000  0.5183360000000  0.4571820000000 1.0
C      1  0.4571570000000  0.4763840000000  0.5489210000000 1.0
C      1  0.5346790000000  0.5096960000000  0.5354300000000 1.0
C      1  0.5417610000000  0.4629230000000  0.5108620000000 1.0
C      1  0.4493440000000  0.5518920000000  0.5082910000000 1.0
C      1  0.5433160000000  0.5341830000000  0.4883090000000 1.0
C      1  0.4612530000000  0.4550760000000  0.4910320000000 1.0
C      1  0.4825650000000  0.5082980000000  0.5078780000000 1.0
END
