TITL C-199747-9303-2 84.2135714122633 125000 -648.599260074526 0 0 95 (C5) n - 1
REM
REM in /rds/project/t2_vol4/rds-t2-cs072/BORA/CARBON/from-Arr/AIRSS/Generating-Clusters/GAP-ML-2020/Higher-Symm/SD-CG/HFTN-CG
REM
REM
REM
REM
REM
REM ./C.cell (b20cbc046b6831c77cfcea5457e17084)
REM AIRSS Version 0.9.1 bugfix July 2018 build 013d7b7c2542+ Fri, 06 Jul 2018 19:26:36 +0100
REM compiler GCC version 9.3.0
REM options -cpp -mtune=generic -march=x86-64 -g -O0
REM seed -2102943989 -581741601 -1278442195 -859823571 -1809968289 -356609401 -786185001 369275940 2105200374 -1710554333 -1960532630 758025188 1705991117 -1679391073 -1320289854 1094653648 -1640721070 1669960078 -1849939043 850652371 1371076847 -1685590297 1740587794 -427754387 54749165 1445506042 -1787819385 -2041685033 -492693665 -747296437 134184608 1975075227 863964478
REM
CELL 1.54180   50.00000   50.00000   50.00000   90.00000   90.00000   90.00000
LATT -1
SFAC C  
C      1  0.5294950000000  0.5034960000000  0.5657460000000 1.0
C      1  0.5245030000000  0.4371460000000  0.5255280000000 1.0
C      1  0.5253710000000  0.4548190000000  0.4498200000000 1.0
C      1  0.5308990000000  0.5320910000000  0.4432480000000 1.0
C      1  0.5334480000000  0.5621750000000  0.5148950000000 1.0
C      1  0.5331090000000  0.5062660000000  0.4268410000000 1.0
C      1  0.5279220000000  0.4310800000000  0.4690810000000 1.0
C      1  0.5295850000000  0.4478890000000  0.5538090000000 1.0
C      1  0.5358000000000  0.5334630000000  0.5639330000000 1.0
C      1  0.5379790000000  0.5695420000000  0.4854630000000 1.0
C      1  0.4569520000000  0.4356070000000  0.5299130000000 1.0
C      1  0.4578150000000  0.4538650000000  0.4453500000000 1.0
C      1  0.4639500000000  0.5397190000000  0.4365970000000 1.0
C      1  0.4668780000000  0.5745210000000  0.5157500000000 1.0
C      1  0.4625540000000  0.5101760000000  0.5734230000000 1.0
C      1  0.4592970000000  0.4368210000000  0.4684770000000 1.0
C      1  0.4608530000000  0.4521590000000  0.5531170000000 1.0
C      1  0.4670370000000  0.5371940000000  0.5646170000000 1.0
C      1  0.4693020000000  0.5744110000000  0.4870840000000 1.0
C      1  0.4645180000000  0.5123780000000  0.4276670000000 1.0
C      1  0.5143130000000  0.5390570000000  0.5101310000000 1.0
C      1  0.5117980000000  0.5018320000000  0.5411020000000 1.0
C      1  0.5087170000000  0.4609620000000  0.5151890000000 1.0
C      1  0.5093270000000  0.4729290000000  0.4682030000000 1.0
C      1  0.5127860000000  0.5211950000000  0.4650770000000 1.0
C      1  0.5013520000000  0.5397420000000  0.4849930000000 1.0
C      1  0.4982100000000  0.4981320000000  0.4575920000000 1.0
C      1  0.4955780000000  0.4592660000000  0.4888100000000 1.0
C      1  0.4970940000000  0.4768550000000  0.5355040000000 1.0
C      1  0.5006630000000  0.5265920000000  0.5331450000000 1.0
C      1  0.5056110000000  0.4611700000000  0.5649670000000 1.0
C      1  0.5026410000000  0.4259580000000  0.4835830000000 1.0
C      1  0.5071030000000  0.4922920000000  0.4248290000000 1.0
C      1  0.5128310000000  0.5685010000000  0.4699010000000 1.0
C      1  0.5119090000000  0.5492670000000  0.5565120000000 1.0
C      1  0.5051670000000  0.4621930000000  0.4279960000000 1.0
C      1  0.5025590000000  0.4196410000000  0.5132450000000 1.0
C      1  0.5077910000000  0.4873440000000  0.5801300000000 1.0
C      1  0.5136320000000  0.5717390000000  0.5362190000000 1.0
C      1  0.5120110000000  0.5561950000000  0.4421960000000 1.0
C      1  0.4709860000000  0.5441710000000  0.4862280000000 1.0
C      1  0.4701200000000  0.5284620000000  0.5357670000000 1.0
C      1  0.4663890000000  0.4766200000000  0.5361150000000 1.0
C      1  0.4649490000000  0.4602890000000  0.4867910000000 1.0
C      1  0.4677900000000  0.5020380000000  0.4559590000000 1.0
C      1  0.4585210000000  0.5456550000000  0.5156820000000 1.0
C      1  0.4571920000000  0.5310030000000  0.4645510000000 1.0
C      1  0.4533640000000  0.4779660000000  0.4627400000000 1.0
C      1  0.4523260000000  0.4598400000000  0.5127520000000 1.0
C      1  0.4555130000000  0.5016740000000  0.5454720000000 1.0
C      1  0.4934860000000  0.5880890000000  0.4805150000000 1.0
C      1  0.4909990000000  0.5463800000000  0.5771270000000 1.0
C      1  0.4834210000000  0.4418590000000  0.5672470000000 1.0
C      1  0.4812240000000  0.4189700000000  0.4645290000000 1.0
C      1  0.4874440000000  0.5093450000000  0.4109260000000 1.0
C      1  0.4917890000000  0.5865090000000  0.5256590000000 1.0
C      1  0.4887570000000  0.5517610000000  0.4264970000000 1.0
C      1  0.4812240000000  0.4469450000000  0.4290230000000 1.0
C      1  0.4796010000000  0.4169130000000  0.5297450000000 1.0
C      1  0.4861300000000  0.5031680000000  0.5894690000000 1.0
C      1  0.4183430000000  0.5288240000000  0.5364580000000 1.0
C      1  0.4147320000000  0.4789030000000  0.5333260000000 1.0
C      1  0.4135770000000  0.4664660000000  0.4847570000000 1.0
C      1  0.4164740000000  0.5087000000000  0.4578720000000 1.0
C      1  0.4194190000000  0.5472390000000  0.4898250000000 1.0
C      1  0.4278900000000  0.5308140000000  0.4691170000000 1.0
C      1  0.4244720000000  0.4835410000000  0.4664390000000 1.0
C      1  0.4234730000000  0.4663760000000  0.5106880000000 1.0
C      1  0.4262730000000  0.5030400000000  0.5407130000000 1.0
C      1  0.4290030000000  0.5428650000000  0.5150200000000 1.0
C      1  0.5751690000000  0.4945130000000  0.5456710000000 1.0
C      1  0.5718570000000  0.4508840000000  0.5137520000000 1.0
C      1  0.5727920000000  0.4676970000000  0.4622760000000 1.0
C      1  0.5766820000000  0.5217170000000  0.4623820000000 1.0
C      1  0.5781510000000  0.5382900000000  0.5139230000000 1.0
C      1  0.5756340000000  0.4959840000000  0.4532830000000 1.0
C      1  0.5725640000000  0.4510670000000  0.4839430000000 1.0
C      1  0.5739370000000  0.4662550000000  0.5362350000000 1.0
C      1  0.5778550000000  0.5205580000000  0.5378930000000 1.0
C      1  0.5789040000000  0.5389320000000  0.4866260000000 1.0
C      1  0.5603550000000  0.5587640000000  0.4737760000000 1.0
C      1  0.5594160000000  0.5399550000000  0.5515410000000 1.0
C      1  0.5537190000000  0.4603810000000  0.5576660000000 1.0
C      1  0.5511370000000  0.4300100000000  0.4836860000000 1.0
C      1  0.5552380000000  0.4908140000000  0.4318400000000 1.0
C      1  0.5589720000000  0.5559520000000  0.5276370000000 1.0
C      1  0.5574950000000  0.5411020000000  0.4512510000000 1.0
C      1  0.5518970000000  0.4640480000000  0.4418340000000 1.0
C      1  0.5499140000000  0.4312750000000  0.5123990000000 1.0
C      1  0.5542870000000  0.4880740000000  0.5654280000000 1.0
C      1  0.4920900000000  0.5351060000000  0.4029540000000 1.0
C      1  0.4975450000000  0.6034480000000  0.5027950000000 1.0
C      1  0.4843450000000  0.4159910000000  0.5583710000000 1.0
C      1  0.4839330000000  0.4192510000000  0.4373020000000 1.0
C      1  0.4927580000000  0.5298310000000  0.5988480000000 1.0
END
