TITL C-193879-2143-5 -0.0117993532247746 125000 -44.8525847473995 0 0 8 (D2d) n - 1
REM
REM in /rds/project/t2_vol4/rds-t2-cs072/BORA/CARBON/from-Arr/AIRSS/Generating-Clusters/GAP-ML-2020/Higher-Symm/SD-CG/HFTN-CG
REM
REM
REM
REM
REM
REM ./C.cell (b20cbc046b6831c77cfcea5457e17084)
REM AIRSS Version 0.9.1 bugfix July 2018 build 013d7b7c2542+ Fri, 06 Jul 2018 19:26:36 +0100
REM compiler GCC version 9.3.0
REM options -cpp -mtune=generic -march=x86-64 -g -O0
REM seed -1694400787 1518781805 1995358536 489286106 223810237 596020558 222881189 1447445687 -386293331 2031069039 1794100658 1771853243 -1139061854 131893520 1299188161 419482012 -1201905257 1095433140 -1023063959 -1363831969 1641837460 -2037913728 1899227166 -1454452604 327983642 -1585850158 1078975214 744281794 -1096837296 235484246 -24883672 1508209623 1161230525
REM
CELL 1.54180   50.00000   50.00000   50.00000   90.00000   90.00000   90.00000
LATT -1
SFAC C  
C      1  0.5079180000000  0.4800980000000  0.4960370000000 1.0
C      1  0.5199800000000  0.5075580000000  0.5042630000000 1.0
C      1  0.4923120000000  0.5202770000000  0.4979440000000 1.0
C      1  0.4797890000000  0.4920670000000  0.5017560000000 1.0
C      1  0.4607530000000  0.4839050000000  0.5179220000000 1.0
C      1  0.5157160000000  0.4628100000000  0.4778530000000 1.0
C      1  0.5376890000000  0.5135600000000  0.5227200000000 1.0
C      1  0.4858420000000  0.5397250000000  0.4815040000000 1.0
END
