TITL C-19928-9986-1 -73.7604212231641 125000 -75.9672458404737 0 0 13 (C2v) n - 1
REM
REM in /rds/project/t2_vol4/rds-t2-cs072/BORA/CARBON/from-Arr/AIRSS/Generating-Clusters/GAP-ML-2020/Higher-Symm/SD-CG/HFTN-CG
REM
REM
REM
REM
REM
REM ./C.cell (b20cbc046b6831c77cfcea5457e17084)
REM AIRSS Version 0.9.1 bugfix July 2018 build 013d7b7c2542+ Fri, 06 Jul 2018 19:26:36 +0100
REM compiler GCC version 9.3.0
REM options -cpp -mtune=generic -march=x86-64 -g -O0
REM seed 1619999589 281983974 -1546409932 1717438965 -1831985328 -1750732970 1824469853 -1956960684 2073303013 -1515485147 -1955893485 -298368123 1317501362 -667871086 -1770742497 1368875856 -2024858444 -463409019 862974269 1151829844 222147379 -450478582 487565370 1880557986 -1139812810 -676762583 7874192 953070987 155122327 255887335 315135656 565998051 -492318290
REM
CELL 1.54180   50.00000   50.00000   50.00000   90.00000   90.00000   90.00000
LATT -1
SFAC C  
C      1  0.5132110000000  0.5260370000000  0.5153860000000 1.0
C      1  0.4853730000000  0.4736110000000  0.5180690000000 1.0
C      1  0.5121350000000  0.5264500000000  0.4865700000000 1.0
C      1  0.4825100000000  0.4740960000000  0.4885690000000 1.0
C      1  0.5143430000000  0.4767600000000  0.5148010000000 1.0
C      1  0.4840460000000  0.5287270000000  0.5168090000000 1.0
C      1  0.5115680000000  0.4771620000000  0.4860990000000 1.0
C      1  0.4829490000000  0.5292240000000  0.4871920000000 1.0
C      1  0.5001800000000  0.5522190000000  0.5163430000000 1.0
C      1  0.4988630000000  0.4508140000000  0.4868630000000 1.0
C      1  0.4991140000000  0.5525580000000  0.4877970000000 1.0
C      1  0.5016110000000  0.4504850000000  0.5152960000000 1.0
C      1  0.5236260000000  0.5016720000000  0.4999910000000 1.0
END
