TITL C-19539-9168-3 27.0912112063789 125000 -850.471613364621 0 0 125 (C3h) n - 1
REM
REM in /rds/project/t2_vol4/rds-t2-cs072/BORA/CARBON/from-Arr/AIRSS/Generating-Clusters/GAP-ML-2020/Higher-Symm/SD-CG/HFTN-CG
REM
REM
REM
REM
REM
REM ./C.cell (b20cbc046b6831c77cfcea5457e17084)
REM AIRSS Version 0.9.1 bugfix July 2018 build 013d7b7c2542+ Fri, 06 Jul 2018 19:26:36 +0100
REM compiler GCC version 9.3.0
REM options -cpp -mtune=generic -march=x86-64 -g -O0
REM seed -2112119076 -569937186 365400849 130307730 404889702 -834193214 1595736023 272121972 578074542 1631643768 1300090068 -1524866820 -502144609 2074089669 -189604987 -743093949 1622657790 -1186433128 -2111804322 1268579480 -1878262683 -747700643 -1105589370 532017091 -1675059304 -66426451 2045436345 99558328 1731088083 -89259370 -1620547054 904808056 1822409386
REM
CELL 1.54180   50.00000   50.00000   50.00000   90.00000   90.00000   90.00000
LATT -1
SFAC C  
C      1  0.5360480000000  0.4828380000000  0.4633610000000 1.0
C      1  0.5360490000000  0.4768500000000  0.5332020000000 1.0
C      1  0.5360480000000  0.5403280000000  0.5034680000000 1.0
C      1  0.4646260000000  0.4828370000000  0.4633630000000 1.0
C      1  0.4646270000000  0.4768480000000  0.5332040000000 1.0
C      1  0.4646250000000  0.5403270000000  0.5034700000000 1.0
C      1  0.5536680000000  0.4760430000000  0.5616190000000 1.0
C      1  0.5536650000000  0.5653420000000  0.4899580000000 1.0
C      1  0.5536670000000  0.4586320000000  0.4484530000000 1.0
C      1  0.4470090000000  0.4760410000000  0.5616210000000 1.0
C      1  0.4470060000000  0.5653400000000  0.4899600000000 1.0
C      1  0.4470080000000  0.4586300000000  0.4484550000000 1.0
C      1  0.4271140000000  0.5454680000000  0.5557230000000 1.0
C      1  0.4271120000000  0.5255170000000  0.4327830000000 1.0
C      1  0.4271150000000  0.4290240000000  0.5115310000000 1.0
C      1  0.5735600000000  0.5454710000000  0.5557210000000 1.0
C      1  0.5735590000000  0.5255200000000  0.4327810000000 1.0
C      1  0.5735620000000  0.4290270000000  0.5115290000000 1.0
C      1  0.4497480000000  0.5257620000000  0.4192970000000 1.0
C      1  0.4497520000000  0.4172230000000  0.5180620000000 1.0
C      1  0.4497500000000  0.5570250000000  0.5626780000000 1.0
C      1  0.5509220000000  0.5257650000000  0.4192960000000 1.0
C      1  0.5509260000000  0.4172250000000  0.5180600000000 1.0
C      1  0.5509240000000  0.5570270000000  0.5626760000000 1.0
C      1  0.4437790000000  0.4379740000000  0.4670090000000 1.0
C      1  0.4437800000000  0.5024360000000  0.5702330000000 1.0
C      1  0.4437770000000  0.5596000000000  0.4627950000000 1.0
C      1  0.5568960000000  0.4379770000000  0.4670060000000 1.0
C      1  0.5568970000000  0.5024380000000  0.5702310000000 1.0
C      1  0.5568940000000  0.5596030000000  0.4627930000000 1.0
C      1  0.5146770000000  0.5811820000000  0.5156750000000 1.0
C      1  0.5146780000000  0.4729820000000  0.4218770000000 1.0
C      1  0.5146810000000  0.4458510000000  0.5624810000000 1.0
C      1  0.4859940000000  0.5811820000000  0.5156760000000 1.0
C      1  0.4859950000000  0.4729810000000  0.4218780000000 1.0
C      1  0.4859980000000  0.4458500000000  0.5624810000000 1.0
C      1  0.4398080000000  0.4390100000000  0.5369350000000 1.0
C      1  0.4398050000000  0.5624760000000  0.5343730000000 1.0
C      1  0.4398050000000  0.4985240000000  0.4287290000000 1.0
C      1  0.5608700000000  0.4390130000000  0.5369330000000 1.0
C      1  0.5608680000000  0.5624780000000  0.5343710000000 1.0
C      1  0.5608670000000  0.4985270000000  0.4287270000000 1.0
C      1  0.4851170000000  0.4970630000000  0.5301780000000 1.0
C      1  0.4851150000000  0.5276000000000  0.4874760000000 1.0
C      1  0.4851160000000  0.4753500000000  0.4823810000000 1.0
C      1  0.5155590000000  0.4970630000000  0.5301780000000 1.0
C      1  0.5155570000000  0.5276010000000  0.4874760000000 1.0
C      1  0.5155580000000  0.4753510000000  0.4823800000000 1.0
C      1  0.4703130000000  0.4463030000000  0.5375530000000 1.0
C      1  0.4703100000000  0.5593660000000  0.5277480000000 1.0
C      1  0.4703100000000  0.4943430000000  0.4347350000000 1.0
C      1  0.5303650000000  0.4463040000000  0.5375520000000 1.0
C      1  0.5303630000000  0.5593670000000  0.5277470000000 1.0
C      1  0.5303620000000  0.4943440000000  0.4347340000000 1.0
C      1  0.4152150000000  0.5087020000000  0.5285910000000 1.0
C      1  0.4152140000000  0.5204030000000  0.4781900000000 1.0
C      1  0.4152150000000  0.4709040000000  0.4932570000000 1.0
C      1  0.5854600000000  0.5087050000000  0.5285880000000 1.0
C      1  0.5854590000000  0.5204070000000  0.4781870000000 1.0
C      1  0.5854600000000  0.4709070000000  0.4932540000000 1.0
C      1  0.4846670000000  0.5363000000000  0.4579070000000 1.0
C      1  0.4846690000000  0.4453930000000  0.4896310000000 1.0
C      1  0.4846690000000  0.5183200000000  0.5524970000000 1.0
C      1  0.5160040000000  0.5363010000000  0.4579060000000 1.0
C      1  0.5160070000000  0.4453930000000  0.4896300000000 1.0
C      1  0.5160060000000  0.5183210000000  0.5524970000000 1.0
C      1  0.5237390000000  0.5481590000000  0.5545370000000 1.0
C      1  0.5237370000000  0.5231490000000  0.4310450000000 1.0
C      1  0.5237410000000  0.4287070000000  0.5144500000000 1.0
C      1  0.4769350000000  0.5481580000000  0.5545380000000 1.0
C      1  0.4769340000000  0.5231480000000  0.4310460000000 1.0
C      1  0.4769370000000  0.4287060000000  0.5144510000000 1.0
C      1  0.5299580000000  0.4508760000000  0.4301710000000 1.0
C      1  0.5299610000000  0.4640870000000  0.5774780000000 1.0
C      1  0.5299570000000  0.5850530000000  0.4923830000000 1.0
C      1  0.4707150000000  0.4508750000000  0.4301730000000 1.0
C      1  0.4707180000000  0.4640860000000  0.5774790000000 1.0
C      1  0.4707140000000  0.5850510000000  0.4923840000000 1.0
C      1  0.5554220000000  0.4947860000000  0.4831970000000 1.0
C      1  0.5554230000000  0.4880550000000  0.5129380000000 1.0
C      1  0.5554220000000  0.5171770000000  0.5038960000000 1.0
C      1  0.4452520000000  0.4947830000000  0.4831990000000 1.0
C      1  0.4452530000000  0.4880530000000  0.5129400000000 1.0
C      1  0.4452520000000  0.5171740000000  0.5038980000000 1.0
C      1  0.4259300000000  0.4796010000000  0.4445730000000 1.0
C      1  0.4259320000000  0.4621920000000  0.5454010000000 1.0
C      1  0.4259290000000  0.5582160000000  0.5100640000000 1.0
C      1  0.5747430000000  0.4796050000000  0.4445700000000 1.0
C      1  0.5747460000000  0.4621950000000  0.5453980000000 1.0
C      1  0.5747430000000  0.5582190000000  0.5100620000000 1.0
C      1  0.4181560000000  0.4806730000000  0.5216200000000 1.0
C      1  0.4181540000000  0.5283810000000  0.5059490000000 1.0
C      1  0.4181550000000  0.4909550000000  0.4724690000000 1.0
C      1  0.5825200000000  0.4806760000000  0.5216170000000 1.0
C      1  0.5825190000000  0.5283840000000  0.5059460000000 1.0
C      1  0.5825190000000  0.4909590000000  0.4724660000000 1.0
C      1  0.5756400000000  0.4440450000000  0.4878550000000 1.0
C      1  0.5756400000000  0.5174610000000  0.5545520000000 1.0
C      1  0.5756380000000  0.5385140000000  0.4576230000000 1.0
C      1  0.4250360000000  0.4440410000000  0.4878580000000 1.0
C      1  0.4250360000000  0.5174580000000  0.5545540000000 1.0
C      1  0.4250330000000  0.5385100000000  0.4576260000000 1.0
C      1  0.5279020000000  0.4260410000000  0.4685170000000 1.0
C      1  0.5279020000000  0.5097130000000  0.5798130000000 1.0
C      1  0.5278990000000  0.5642620000000  0.4517030000000 1.0
C      1  0.4727750000000  0.4260400000000  0.4685180000000 1.0
C      1  0.4727750000000  0.5097120000000  0.5798140000000 1.0
C      1  0.4727710000000  0.5642610000000  0.4517040000000 1.0
C      1  0.5149290000000  0.4847270000000  0.5882240000000 1.0
C      1  0.5149250000000  0.5840380000000  0.4691360000000 1.0
C      1  0.5149270000000  0.4312500000000  0.4426740000000 1.0
C      1  0.4857490000000  0.4847270000000  0.5882240000000 1.0
C      1  0.4857450000000  0.5840370000000  0.4691360000000 1.0
C      1  0.4857480000000  0.4312490000000  0.4426750000000 1.0
C      1  0.4875470000000  0.5652670000000  0.4252350000000 1.0
C      1  0.4875520000000  0.4026150000000  0.4808810000000 1.0
C      1  0.4875510000000  0.5321320000000  0.5939190000000 1.0
C      1  0.5131220000000  0.5652670000000  0.4252340000000 1.0
C      1  0.5131260000000  0.4026150000000  0.4808800000000 1.0
C      1  0.5131260000000  0.5321320000000  0.5939180000000 1.0
C      1  0.5003370000000  0.5519510000000  0.5739200000000 1.0
C      1  0.5003390000000  0.4100250000000  0.5080440000000 1.0
C      1  0.5003350000000  0.5380380000000  0.4180710000000 1.0
C      1  0.5151490000000  0.5000050000000  0.5000110000000 1.0
C      1  0.4855250000000  0.5000040000000  0.5000120000000 1.0
END
