TITL C-19539-9168-6 -0.160581128388369 125000 -474.53814077719 0 0 71 (C1) n - 1
REM
REM in /rds/project/t2_vol4/rds-t2-cs072/BORA/CARBON/from-Arr/AIRSS/Generating-Clusters/GAP-ML-2020/Higher-Symm/SD-CG/HFTN-CG
REM
REM
REM
REM
REM
REM ./C.cell (b20cbc046b6831c77cfcea5457e17084)
REM AIRSS Version 0.9.1 bugfix July 2018 build 013d7b7c2542+ Fri, 06 Jul 2018 19:26:36 +0100
REM compiler GCC version 9.3.0
REM options -cpp -mtune=generic -march=x86-64 -g -O0
REM seed -36810947 -1181074661 -753483484 240430413 -1030412392 897550823 -1942391580 1892441286 -1231553670 -1231366745 -34975196 -351333368 730252304 1898327469 1450247908 -2006115510 -1251796308 546249196 1966739884 968853834 1594074310 1169683328 -1536740140 872069791 -1935071409 291105929 152155465 -1007656453 -1429345409 1800754106 -402843885 -1027931640 -1880366914
REM
CELL 1.54180   50.00000   50.00000   50.00000   90.00000   90.00000   90.00000
LATT -1
SFAC C  
C      1  0.4229760000000  0.5144770000000  0.4889130000000 1.0
C      1  0.5244000000000  0.4854530000000  0.4197690000000 1.0
C      1  0.4923410000000  0.4252560000000  0.5330210000000 1.0
C      1  0.4213030000000  0.4742050000000  0.5154120000000 1.0
C      1  0.5791140000000  0.5293510000000  0.5042630000000 1.0
C      1  0.5735020000000  0.4862810000000  0.4860610000000 1.0
C      1  0.5260120000000  0.5180050000000  0.5764860000000 1.0
C      1  0.4818580000000  0.4951500000000  0.5798720000000 1.0
C      1  0.4841130000000  0.5089900000000  0.4247370000000 1.0
C      1  0.4852230000000  0.5749120000000  0.4818740000000 1.0
C      1  0.5152920000000  0.4272730000000  0.4869220000000 1.0
C      1  0.5093230000000  0.5846490000000  0.5207640000000 1.0
C      1  0.4441380000000  0.4840520000000  0.5357570000000 1.0
C      1  0.4920360000000  0.5267010000000  0.4507790000000 1.0
C      1  0.5371690000000  0.4485470000000  0.4877120000000 1.0
C      1  0.4488110000000  0.5068880000000  0.4716490000000 1.0
C      1  0.5634580000000  0.4781720000000  0.4595210000000 1.0
C      1  0.5566620000000  0.5147770000000  0.5243420000000 1.0
C      1  0.4875910000000  0.4748780000000  0.5563540000000 1.0
C      1  0.5226220000000  0.5382650000000  0.5555280000000 1.0
C      1  0.5180270000000  0.4657870000000  0.4446350000000 1.0
C      1  0.5304860000000  0.5653760000000  0.5101540000000 1.0
C      1  0.4655710000000  0.4378880000000  0.5320550000000 1.0
C      1  0.4713180000000  0.5479230000000  0.4911340000000 1.0
C      1  0.4963180000000  0.4915710000000  0.5333950000000 1.0
C      1  0.4903670000000  0.5372710000000  0.5122800000000 1.0
C      1  0.5298290000000  0.5182610000000  0.4866570000000 1.0
C      1  0.5142190000000  0.5105210000000  0.4642360000000 1.0
C      1  0.5038130000000  0.4842170000000  0.4628750000000 1.0
C      1  0.4822560000000  0.5147930000000  0.5266160000000 1.0
C      1  0.4887550000000  0.4780460000000  0.4865390000000 1.0
C      1  0.5189660000000  0.5386130000000  0.5068190000000 1.0
C      1  0.5310880000000  0.4716800000000  0.5069760000000 1.0
C      1  0.5468090000000  0.4958410000000  0.5015660000000 1.0
C      1  0.4598900000000  0.5006420000000  0.5171930000000 1.0
C      1  0.4631760000000  0.4900180000000  0.4908950000000 1.0
C      1  0.4441570000000  0.4950650000000  0.4444890000000 1.0
C      1  0.5035150000000  0.4394840000000  0.4415340000000 1.0
C      1  0.4445960000000  0.4334910000000  0.5137790000000 1.0
C      1  0.4403410000000  0.4995480000000  0.5607330000000 1.0
C      1  0.5645210000000  0.5041240000000  0.5512310000000 1.0
C      1  0.5660240000000  0.4920410000000  0.4358640000000 1.0
C      1  0.5077950000000  0.5612040000000  0.5560060000000 1.0
C      1  0.5072740000000  0.4527890000000  0.5598900000000 1.0
C      1  0.4996160000000  0.5550120000000  0.4426250000000 1.0
C      1  0.4432330000000  0.5520630000000  0.5014700000000 1.0
C      1  0.5640810000000  0.4424450000000  0.5015190000000 1.0
C      1  0.5564930000000  0.5691250000000  0.5017680000000 1.0
C      1  0.5026840000000  0.5853250000000  0.5489680000000 1.0
C      1  0.5789240000000  0.5569520000000  0.5001170000000 1.0
C      1  0.5511370000000  0.5054070000000  0.5723730000000 1.0
C      1  0.5046010000000  0.4234970000000  0.4609290000000 1.0
C      1  0.4943300000000  0.5760110000000  0.4553320000000 1.0
C      1  0.5089020000000  0.4278600000000  0.5571880000000 1.0
C      1  0.5824190000000  0.4589120000000  0.4978630000000 1.0
C      1  0.4206410000000  0.5415870000000  0.4975260000000 1.0
C      1  0.4236190000000  0.4471190000000  0.5086300000000 1.0
C      1  0.5508040000000  0.4931440000000  0.4154700000000 1.0
C      1  0.4575710000000  0.4995560000000  0.4237040000000 1.0
C      1  0.4539850000000  0.5028710000000  0.5817730000000 1.0
C      1  0.4917060000000  0.5924590000000  0.5017380000000 1.0
C      1  0.5028590000000  0.4197850000000  0.5092440000000 1.0
C      1  0.5891070000000  0.5105860000000  0.4880780000000 1.0
C      1  0.5035700000000  0.5081230000000  0.5891350000000 1.0
C      1  0.4099390000000  0.4936780000000  0.5001830000000 1.0
C      1  0.5038930000000  0.4996340000000  0.4090530000000 1.0
C      1  0.4680670000000  0.5295430000000  0.4683630000000 1.0
C      1  0.4629300000000  0.4621870000000  0.5453160000000 1.0
C      1  0.5338360000000  0.5316500000000  0.5305020000000 1.0
C      1  0.5426700000000  0.4598830000000  0.4609560000000 1.0
C      1  0.5043680000000  0.4765030000000  0.5109770000000 1.0
END
