TITL C-193878-2145-7 0.0957802661926018 125000 -235.692524851802 0 0 35 (D5) n - 1
REM
REM in /rds/project/t2_vol4/rds-t2-cs072/BORA/CARBON/from-Arr/AIRSS/Generating-Clusters/GAP-ML-2020/Higher-Symm/SD-CG/HFTN-CG
REM
REM
REM
REM
REM
REM ./C.cell (b20cbc046b6831c77cfcea5457e17084)
REM AIRSS Version 0.9.1 bugfix July 2018 build 013d7b7c2542+ Fri, 06 Jul 2018 19:26:36 +0100
REM compiler GCC version 9.3.0
REM options -cpp -mtune=generic -march=x86-64 -g -O0
REM seed 778086158 1819422207 -1373356740 1781772139 509122034 1993797445 -1420504718 1879290941 -127290505 1111123638 -1653752063 -1835162226 382593036 -949766878 740039806 1391249804 -20261558 1695597741 -1728898438 -1882631213 1319917312 1580133026 115512364 -640554100 -646503420 455582266 -903729771 -1351066513 -494357694 710073679 -855110854 -781942906 -1721965420
REM
CELL 1.54180   50.00000   50.00000   50.00000   90.00000   90.00000   90.00000
LATT -1
SFAC C  
C      1  0.5369190000000  0.4620440000000  0.5226750000000 1.0
C      1  0.5329370000000  0.4620150000000  0.4718920000000 1.0
C      1  0.4834090000000  0.4620340000000  0.4599870000000 1.0
C      1  0.4567810000000  0.4620750000000  0.5034110000000 1.0
C      1  0.4898520000000  0.4620820000000  0.5421550000000 1.0
C      1  0.4650640000000  0.4523690000000  0.4788780000000 1.0
C      1  0.4690700000000  0.4523970000000  0.5266960000000 1.0
C      1  0.5157850000000  0.4523790000000  0.5376630000000 1.0
C      1  0.5406510000000  0.4523400000000  0.4966220000000 1.0
C      1  0.5093030000000  0.4523340000000  0.4602910000000 1.0
C      1  0.5400030000000  0.4901120000000  0.4633000000000 1.0
C      1  0.4774480000000  0.4901380000000  0.4506140000000 1.0
C      1  0.4460520000000  0.4901890000000  0.5061860000000 1.0
C      1  0.4892030000000  0.4901960000000  0.5532180000000 1.0
C      1  0.5472670000000  0.4901480000000  0.5267130000000 1.0
C      1  0.4619120000000  0.5476660000000  0.5145840000000 1.0
C      1  0.5021460000000  0.5476610000000  0.5407340000000 1.0
C      1  0.5394500000000  0.5476220000000  0.5105500000000 1.0
C      1  0.5222700000000  0.5476030000000  0.4657450000000 1.0
C      1  0.4743490000000  0.5476300000000  0.4682380000000 1.0
C      1  0.4465320000000  0.5000490000000  0.5319790000000 1.0
C      1  0.5138910000000  0.5000310000000  0.5607330000000 1.0
C      1  0.5620540000000  0.4999700000000  0.5055560000000 1.0
C      1  0.5244600000000  0.4999510000000  0.4427000000000 1.0
C      1  0.4530630000000  0.4999990000000  0.4590310000000 1.0
C      1  0.4988380000000  0.5098100000000  0.4457110000000 1.0
C      1  0.4480190000000  0.5098610000000  0.4843290000000 1.0
C      1  0.4690430000000  0.5098880000000  0.5445950000000 1.0
C      1  0.5328560000000  0.5098530000000  0.5432230000000 1.0
C      1  0.5512710000000  0.5098050000000  0.4821100000000 1.0
C      1  0.4766000000000  0.5379860000000  0.5364330000000 1.0
C      1  0.5274560000000  0.5379570000000  0.5335150000000 1.0
C      1  0.5403960000000  0.5379190000000  0.4842480000000 1.0
C      1  0.4975390000000  0.5379240000000  0.4567160000000 1.0
C      1  0.4581110000000  0.5379660000000  0.4889680000000 1.0
END
