TITL C-193885-2196-8 -0.240307815014514 125000 -615.731739940618 0 0 90 (Cs) n - 1
REM
REM in /rds/project/t2_vol4/rds-t2-cs072/BORA/CARBON/from-Arr/AIRSS/Generating-Clusters/GAP-ML-2020/Higher-Symm/SD-CG/HFTN-CG
REM
REM
REM
REM
REM
REM ./C.cell (b20cbc046b6831c77cfcea5457e17084)
REM AIRSS Version 0.9.1 bugfix July 2018 build 013d7b7c2542+ Fri, 06 Jul 2018 19:26:36 +0100
REM compiler GCC version 9.3.0
REM options -cpp -mtune=generic -march=x86-64 -g -O0
REM seed -1658621402 1878560282 -126475848 -1691237473 -2140859065 747393936 -1189831353 -1744725741 -1559776266 -1350565257 1217280040 -156839866 1338005185 -1002716503 -905805186 -1307713927 2079163649 -338056952 2131545737 203351989 -620707809 1057397535 -1741580905 679647215 1950691534 232808857 2131335649 285342429 -887262647 -1840497074 -1530825605 2110704257 186792049
REM
CELL 1.54180   50.00000   50.00000   50.00000   90.00000   90.00000   90.00000
LATT -1
SFAC C  
C      1  0.5366940000000  0.4155140000000  0.5261740000000 1.0
C      1  0.5360300000000  0.4176250000000  0.4716360000000 1.0
C      1  0.4839050000000  0.4174210000000  0.4550620000000 1.0
C      1  0.4521950000000  0.4179720000000  0.4997580000000 1.0
C      1  0.4849180000000  0.4171410000000  0.5434900000000 1.0
C      1  0.4606540000000  0.4182680000000  0.5256910000000 1.0
C      1  0.4616700000000  0.4176110000000  0.4710070000000 1.0
C      1  0.5141780000000  0.4174430000000  0.4553070000000 1.0
C      1  0.5450940000000  0.4166280000000  0.5003360000000 1.0
C      1  0.5120710000000  0.4157240000000  0.5438320000000 1.0
C      1  0.4651280000000  0.5959340000000  0.5231280000000 1.0
C      1  0.5124370000000  0.6031480000000  0.5375110000000 1.0
C      1  0.5379610000000  0.5869020000000  0.4998400000000 1.0
C      1  0.5122630000000  0.5854340000000  0.4600970000000 1.0
C      1  0.4678000000000  0.6004540000000  0.4752540000000 1.0
C      1  0.5327000000000  0.6029760000000  0.5229800000000 1.0
C      1  0.4886530000000  0.5873230000000  0.5352010000000 1.0
C      1  0.4592360000000  0.5858860000000  0.4981250000000 1.0
C      1  0.4880200000000  0.6002820000000  0.4607530000000 1.0
C      1  0.5341680000000  0.5953460000000  0.4736170000000 1.0
C      1  0.5618700000000  0.4590010000000  0.5369360000000 1.0
C      1  0.5523310000000  0.4622830000000  0.4518480000000 1.0
C      1  0.4698320000000  0.4613210000000  0.4324790000000 1.0
C      1  0.4267550000000  0.4622360000000  0.5065630000000 1.0
C      1  0.4859100000000  0.4619560000000  0.5682940000000 1.0
C      1  0.4371880000000  0.4632650000000  0.5344210000000 1.0
C      1  0.4452890000000  0.4615300000000  0.4500800000000 1.0
C      1  0.5292800000000  0.4613620000000  0.4330390000000 1.0
C      1  0.5687730000000  0.4612490000000  0.5088700000000 1.0
C      1  0.5146800000000  0.4594030000000  0.5707780000000 1.0
C      1  0.4323560000000  0.4847640000000  0.4611570000000 1.0
C      1  0.4445740000000  0.4875500000000  0.5485880000000 1.0
C      1  0.5324700000000  0.4820000000000  0.5708130000000 1.0
C      1  0.5659190000000  0.4876810000000  0.4947680000000 1.0
C      1  0.5147250000000  0.4850970000000  0.4257250000000 1.0
C      1  0.5636530000000  0.4865350000000  0.4631920000000 1.0
C      1  0.5564530000000  0.4817960000000  0.5536140000000 1.0
C      1  0.4737660000000  0.4884670000000  0.5608540000000 1.0
C      1  0.4247620000000  0.4858640000000  0.4902400000000 1.0
C      1  0.4847330000000  0.4843170000000  0.4235960000000 1.0
C      1  0.4784290000000  0.5146400000000  0.5159540000000 1.0
C      1  0.5135490000000  0.5131350000000  0.5433820000000 1.0
C      1  0.5381530000000  0.4999280000000  0.5017280000000 1.0
C      1  0.5116540000000  0.5027600000000  0.4610500000000 1.0
C      1  0.4636510000000  0.5142230000000  0.4733680000000 1.0
C      1  0.5368910000000  0.5129360000000  0.5266430000000 1.0
C      1  0.4894010000000  0.5003440000000  0.5366900000000 1.0
C      1  0.4594040000000  0.5032060000000  0.4985210000000 1.0
C      1  0.4865930000000  0.5140280000000  0.4569150000000 1.0
C      1  0.5221930000000  0.5142670000000  0.4845690000000 1.0
C      1  0.4721510000000  0.5432410000000  0.5216650000000 1.0
C      1  0.5153660000000  0.5461210000000  0.5478770000000 1.0
C      1  0.5373380000000  0.5589120000000  0.5031800000000 1.0
C      1  0.5117540000000  0.5559710000000  0.4561160000000 1.0
C      1  0.4602020000000  0.5446680000000  0.4700060000000 1.0
C      1  0.5409360000000  0.5459030000000  0.5295390000000 1.0
C      1  0.4917020000000  0.5593010000000  0.5359080000000 1.0
C      1  0.4552970000000  0.5564520000000  0.4966030000000 1.0
C      1  0.4848580000000  0.5444580000000  0.4523240000000 1.0
C      1  0.5299370000000  0.5427490000000  0.4802240000000 1.0
C      1  0.5139430000000  0.4379370000000  0.4339580000000 1.0
C      1  0.4412190000000  0.4382180000000  0.4649850000000 1.0
C      1  0.4496400000000  0.4397420000000  0.5427990000000 1.0
C      1  0.5258100000000  0.4352730000000  0.5614710000000 1.0
C      1  0.5646270000000  0.4382080000000  0.4938770000000 1.0
C      1  0.4849920000000  0.4378450000000  0.4335940000000 1.0
C      1  0.5560080000000  0.4388350000000  0.4665190000000 1.0
C      1  0.5492150000000  0.4350740000000  0.5446870000000 1.0
C      1  0.4727800000000  0.4389910000000  0.5597440000000 1.0
C      1  0.4322800000000  0.4386330000000  0.4925210000000 1.0
C      1  0.5683070000000  0.5366510000000  0.5384290000000 1.0
C      1  0.5512430000000  0.5367700000000  0.4562980000000 1.0
C      1  0.4666830000000  0.5374160000000  0.4286200000000 1.0
C      1  0.4315490000000  0.5409280000000  0.5081460000000 1.0
C      1  0.4897330000000  0.5325070000000  0.5883410000000 1.0
C      1  0.4425900000000  0.5376960000000  0.5342170000000 1.0
C      1  0.4435010000000  0.5376140000000  0.4452450000000 1.0
C      1  0.5301280000000  0.5400870000000  0.4374510000000 1.0
C      1  0.5873280000000  0.5316750000000  0.5183520000000 1.0
C      1  0.5149040000000  0.5371060000000  0.5767260000000 1.0
C      1  0.4446030000000  0.5085580000000  0.4504800000000 1.0
C      1  0.4336600000000  0.5104070000000  0.5370460000000 1.0
C      1  0.5176640000000  0.5066720000000  0.5719300000000 1.0
C      1  0.5807330000000  0.5058490000000  0.5138260000000 1.0
C      1  0.5288620000000  0.5099400000000  0.4359590000000 1.0
C      1  0.5564790000000  0.5093600000000  0.4489680000000 1.0
C      1  0.5625360000000  0.5062890000000  0.5397500000000 1.0
C      1  0.4872710000000  0.5066450000000  0.5808520000000 1.0
C      1  0.4302020000000  0.5107810000000  0.5067120000000 1.0
C      1  0.4709600000000  0.5083330000000  0.4315780000000 1.0
END
