TITL C-19931-9405-4 -0.00715893462046483 125000 -46.2299215748883 0 0 8 (C1) n - 1
REM
REM in /rds/project/t2_vol4/rds-t2-cs072/BORA/CARBON/from-Arr/AIRSS/Generating-Clusters/GAP-ML-2020/Higher-Symm/SD-CG/HFTN-CG
REM
REM
REM
REM
REM
REM ./C.cell (b20cbc046b6831c77cfcea5457e17084)
REM AIRSS Version 0.9.1 bugfix July 2018 build 013d7b7c2542+ Fri, 06 Jul 2018 19:26:36 +0100
REM compiler GCC version 9.3.0
REM options -cpp -mtune=generic -march=x86-64 -g -O0
REM seed 602679530 -965962777 647135206 1594696100 -1123860050 -1763920570 -1481835801 1320446520 -1061829141 440596782 -968295385 1982554515 -2016209093 216386885 -557463780 44576194 -175623235 923659403 1824930686 -1632870090 505980388 437870187 -1557183433 1695797603 1206411486 2004180024 -1837405098 2109996357 -1181720693 2070437048 -365142414 -1940240720 -1651644355
REM
CELL 1.54180   50.00000   50.00000   50.00000   90.00000   90.00000   90.00000
LATT -1
SFAC C  
C      1  0.4931680000000  0.5370680000000  0.5079000000000 1.0
C      1  0.4992440000000  0.4778890000000  0.4835740000000 1.0
C      1  0.4908800000000  0.5336780000000  0.4797620000000 1.0
C      1  0.4831200000000  0.4793540000000  0.5119650000000 1.0
C      1  0.5059460000000  0.4873340000000  0.5235850000000 1.0
C      1  0.4728760000000  0.4732460000000  0.4866230000000 1.0
C      1  0.5183090000000  0.4948850000000  0.4978370000000 1.0
C      1  0.5128340000000  0.5214820000000  0.4938870000000 1.0
END
