TITL C-19931-24-7 -33.4493992477173 125000 -811.900178414322 0 0 118 (C2v) n - 1
REM
REM in /rds/project/t2_vol4/rds-t2-cs072/BORA/CARBON/from-Arr/AIRSS/Generating-Clusters/GAP-ML-2020/Higher-Symm/SD-CG/HFTN-CG
REM
REM
REM
REM
REM
REM ./C.cell (b20cbc046b6831c77cfcea5457e17084)
REM AIRSS Version 0.9.1 bugfix July 2018 build 013d7b7c2542+ Fri, 06 Jul 2018 19:26:36 +0100
REM compiler GCC version 9.3.0
REM options -cpp -mtune=generic -march=x86-64 -g -O0
REM seed 678794658 1327726288 831768637 -511765393 854207965 1705602587 -1116222491 2124509463 186456544 488151633 1517089778 1786035596 504257665 309426507 463412291 -580597783 -747445193 -1699396073 -1294620730 -344540779 -1655373403 -507228772 -1443432729 679189075 -1681549307 2067413330 -322232720 -2919285 205524699 1432827560 894370144 -850874557 1050186789
REM
CELL 1.54180   50.00000   50.00000   50.00000   90.00000   90.00000   90.00000
LATT -1
SFAC C  
C      1  0.5524480000000  0.4212840000000  0.4697320000000 1.0
C      1  0.4475210000000  0.5787590000000  0.4698970000000 1.0
C      1  0.4432440000000  0.4243090000000  0.4697890000000 1.0
C      1  0.5567260000000  0.5757350000000  0.4698410000000 1.0
C      1  0.5148780000000  0.4855120000000  0.4635660000000 1.0
C      1  0.4850850000000  0.5145400000000  0.4636020000000 1.0
C      1  0.4843050000000  0.4863590000000  0.4635820000000 1.0
C      1  0.5156590000000  0.5136940000000  0.4635860000000 1.0
C      1  0.5286390000000  0.5612930000000  0.5424440000000 1.0
C      1  0.4714030000000  0.4386460000000  0.5423850000000 1.0
C      1  0.4748410000000  0.5627830000000  0.5424720000000 1.0
C      1  0.5252010000000  0.4371560000000  0.5423570000000 1.0
C      1  0.5679420000000  0.5742910000000  0.5204500000000 1.0
C      1  0.4320780000000  0.4256800000000  0.5204110000000 1.0
C      1  0.4362940000000  0.5779370000000  0.5205180000000 1.0
C      1  0.5637260000000  0.4220350000000  0.5203430000000 1.0
C      1  0.5349470000000  0.5242340000000  0.4090810000000 1.0
C      1  0.4649630000000  0.4758970000000  0.4090810000000 1.0
C      1  0.4663540000000  0.5261330000000  0.4091170000000 1.0
C      1  0.5335550000000  0.4739970000000  0.4090460000000 1.0
C      1  0.4714900000000  0.5286810000000  0.5788320000000 1.0
C      1  0.5285880000000  0.4712070000000  0.5787630000000 1.0
C      1  0.5301340000000  0.5270570000000  0.5788020000000 1.0
C      1  0.4699430000000  0.4728310000000  0.5787930000000 1.0
C      1  0.5287460000000  0.4660360000000  0.4800350000000 1.0
C      1  0.4712340000000  0.5339930000000  0.4801120000000 1.0
C      1  0.4693970000000  0.4676800000000  0.4800660000000 1.0
C      1  0.5305830000000  0.5323490000000  0.4800820000000 1.0
C      1  0.5138920000000  0.5339270000000  0.5999490000000 1.0
C      1  0.4862060000000  0.4659300000000  0.5999140000000 1.0
C      1  0.4881090000000  0.5346410000000  0.5999630000000 1.0
C      1  0.5119900000000  0.4652160000000  0.5999010000000 1.0
C      1  0.4844720000000  0.4680620000000  0.5059090000000 1.0
C      1  0.5155330000000  0.5319300000000  0.5059390000000 1.0
C      1  0.5137420000000  0.4672510000000  0.5058940000000 1.0
C      1  0.4862630000000  0.5327410000000  0.5059540000000 1.0
C      1  0.4501520000000  0.5872440000000  0.4970150000000 1.0
C      1  0.5498440000000  0.4127610000000  0.4968400000000 1.0
C      1  0.5545960000000  0.5843520000000  0.4969610000000 1.0
C      1  0.4454000000000  0.4156530000000  0.4968940000000 1.0
C      1  0.4452950000000  0.5167950000000  0.5193210000000 1.0
C      1  0.5547230000000  0.4831780000000  0.5192430000000 1.0
C      1  0.5555700000000  0.5137410000000  0.5192640000000 1.0
C      1  0.4444490000000  0.4862320000000  0.5192990000000 1.0
C      1  0.5160760000000  0.5604580000000  0.4418150000000 1.0
C      1  0.4838660000000  0.4396260000000  0.4417440000000 1.0
C      1  0.4872340000000  0.5612560000000  0.4418300000000 1.0
C      1  0.5127080000000  0.4388280000000  0.4417300000000 1.0
C      1  0.5257570000000  0.5148000000000  0.5284480000000 1.0
C      1  0.4742710000000  0.4851600000000  0.5284520000000 1.0
C      1  0.4751310000000  0.5162020000000  0.5284740000000 1.0
C      1  0.5248970000000  0.4837580000000  0.5284260000000 1.0
C      1  0.5753070000000  0.4832340000000  0.4488610000000 1.0
C      1  0.4246420000000  0.5168390000000  0.4489590000000 1.0
C      1  0.4238280000000  0.4874290000000  0.4489390000000 1.0
C      1  0.5761210000000  0.5126440000000  0.4488810000000 1.0
C      1  0.4872860000000  0.5633820000000  0.5160990000000 1.0
C      1  0.5127300000000  0.4365960000000  0.5159950000000 1.0
C      1  0.5162190000000  0.5625800000000  0.5160840000000 1.0
C      1  0.4837970000000  0.4373970000000  0.5160100000000 1.0
C      1  0.5800890000000  0.4454420000000  0.5161120000000 1.0
C      1  0.4199260000000  0.5545360000000  0.5162700000000 1.0
C      1  0.4170300000000  0.4499570000000  0.5161960000000 1.0
C      1  0.5829860000000  0.5500200000000  0.5161860000000 1.0
C      1  0.4426890000000  0.4754880000000  0.4919680000000 1.0
C      1  0.5573030000000  0.5245240000000  0.4919470000000 1.0
C      1  0.5558580000000  0.4723540000000  0.4919100000000 1.0
C      1  0.4441340000000  0.5276580000000  0.4920050000000 1.0
C      1  0.4775020000000  0.5804180000000  0.4945630000000 1.0
C      1  0.5224930000000  0.4195910000000  0.4944250000000 1.0
C      1  0.5269090000000  0.5790490000000  0.4945370000000 1.0
C      1  0.4730860000000  0.4209590000000  0.4944510000000 1.0
C      1  0.5777250000000  0.4826770000000  0.5582670000000 1.0
C      1  0.4223320000000  0.5172400000000  0.5583690000000 1.0
C      1  0.4214950000000  0.4870040000000  0.5583470000000 1.0
C      1  0.5785630000000  0.5129130000000  0.5582880000000 1.0
C      1  0.4256210000000  0.4442010000000  0.4636380000000 1.0
C      1  0.5743420000000  0.5558520000000  0.4636440000000 1.0
C      1  0.5711390000000  0.4401710000000  0.4635630000000 1.0
C      1  0.4288250000000  0.5598820000000  0.4637190000000 1.0
C      1  0.5378340000000  0.5440930000000  0.4277180000000 1.0
C      1  0.4620940000000  0.4560110000000  0.4276930000000 1.0
C      1  0.4645900000000  0.5461210000000  0.4277560000000 1.0
C      1  0.5353380000000  0.4539830000000  0.4276550000000 1.0
C      1  0.4226650000000  0.4733300000000  0.5337670000000 1.0
C      1  0.5773680000000  0.5266220000000  0.5337280000000 1.0
C      1  0.5757740000000  0.4690900000000  0.5336880000000 1.0
C      1  0.4242590000000  0.5308620000000  0.5338070000000 1.0
C      1  0.4178070000000  0.4587060000000  0.4880300000000 1.0
C      1  0.5821810000000  0.5413120000000  0.4880080000000 1.0
C      1  0.5797690000000  0.4542200000000  0.4879470000000 1.0
C      1  0.4202190000000  0.5457970000000  0.4880920000000 1.0
C      1  0.4851470000000  0.5340990000000  0.5525980000000 1.0
C      1  0.5149050000000  0.4658260000000  0.5525350000000 1.0
C      1  0.5167710000000  0.5332230000000  0.5525820000000 1.0
C      1  0.4832810000000  0.4667020000000  0.5525510000000 1.0
C      1  0.5253490000000  0.4345150000000  0.4682960000000 1.0
C      1  0.4746190000000  0.5655310000000  0.4684150000000 1.0
C      1  0.4710320000000  0.4360190000000  0.4683240000000 1.0
C      1  0.5289360000000  0.5640270000000  0.4683870000000 1.0
C      1  0.5474570000000  0.4222080000000  0.5433180000000 1.0
C      1  0.4525860000000  0.5777300000000  0.5434760000000 1.0
C      1  0.4483550000000  0.4249530000000  0.5433690000000 1.0
C      1  0.5516880000000  0.5749860000000  0.5434250000000 1.0
C      1  0.5812170000000  0.4830950000000  0.4776080000000 1.0
C      1  0.4187610000000  0.5169380000000  0.4777120000000 1.0
C      1  0.4179490000000  0.4876160000000  0.4776920000000 1.0
C      1  0.5820290000000  0.5124160000000  0.4776280000000 1.0
C      1  0.4445060000000  0.4870040000000  0.5773510000000 1.0
C      1  0.5555710000000  0.5128850000000  0.5773150000000 1.0
C      1  0.5547690000000  0.4839510000000  0.5772940000000 1.0
C      1  0.4453070000000  0.5159390000000  0.5773720000000 1.0
C      1  0.5612590000000  0.4586170000000  0.4433960000000 1.0
C      1  0.4386850000000  0.5414650000000  0.4435160000000 1.0
C      1  0.4364860000000  0.4620720000000  0.4434600000000 1.0
C      1  0.5634570000000  0.5380090000000  0.4434520000000 1.0
C      1  0.5357360000000  0.4990790000000  0.4021480000000 1.0
C      1  0.4641660000000  0.5010610000000  0.4021850000000 1.0
END
