TITL C-199730-9325-2 -127.684308895347 125000 -475.821613376777 0 0 73 (C4) n - 1
REM
REM in /rds/project/t2_vol4/rds-t2-cs072/BORA/CARBON/from-Arr/AIRSS/Generating-Clusters/GAP-ML-2020/Higher-Symm/SD-CG/HFTN-CG
REM
REM
REM
REM
REM
REM ./C.cell (b20cbc046b6831c77cfcea5457e17084)
REM AIRSS Version 0.9.1 bugfix July 2018 build 013d7b7c2542+ Fri, 06 Jul 2018 19:26:36 +0100
REM compiler GCC version 9.3.0
REM options -cpp -mtune=generic -march=x86-64 -g -O0
REM seed -222832409 -1910486356 1753188071 -375732562 -345411635 -414192727 -1857345634 216014116 -789542247 1482492389 1416799800 -678784621 -1883065279 -804552835 1323402218 522596029 1941880279 2040984234 1275607788 -2000974073 771369894 -1775814002 -1701219100 1007952590 283421422 1994501190 1037479950 898306856 -347015041 -1376925869 -386834712 -1535077696 -1649910600
REM
CELL 1.54180   50.00000   50.00000   50.00000   90.00000   90.00000   90.00000
LATT -1
SFAC C  
C      1  0.4623410000000  0.4891020000000  0.4328600000000 1.0
C      1  0.5103770000000  0.4622350000000  0.4328610000000 1.0
C      1  0.5372440000000  0.5102700000000  0.4328630000000 1.0
C      1  0.4892090000000  0.5371380000000  0.4328620000000 1.0
C      1  0.4623790000000  0.4896730000000  0.5671530000000 1.0
C      1  0.5097980000000  0.4622750000000  0.5671540000000 1.0
C      1  0.5371970000000  0.5096940000000  0.5671560000000 1.0
C      1  0.4897780000000  0.5370920000000  0.5671550000000 1.0
C      1  0.4750770000000  0.4292100000000  0.4859100000000 1.0
C      1  0.5702670000000  0.4749710000000  0.4859140000000 1.0
C      1  0.5245050000000  0.5701600000000  0.4859150000000 1.0
C      1  0.4293160000000  0.5244000000000  0.4859110000000 1.0
C      1  0.4749180000000  0.4297800000000  0.5144850000000 1.0
C      1  0.5696950000000  0.4748130000000  0.5144900000000 1.0
C      1  0.5246620000000  0.5695890000000  0.5144900000000 1.0
C      1  0.4298850000000  0.5245570000000  0.5144860000000 1.0
C      1  0.4759760000000  0.5425580000000  0.4852600000000 1.0
C      1  0.4569180000000  0.4758700000000  0.4852580000000 1.0
C      1  0.5236060000000  0.4568130000000  0.4852600000000 1.0
C      1  0.5426640000000  0.5235000000000  0.4852620000000 1.0
C      1  0.4758540000000  0.5426930000000  0.5146180000000 1.0
C      1  0.4567810000000  0.4757490000000  0.5146160000000 1.0
C      1  0.5237260000000  0.4566760000000  0.5146180000000 1.0
C      1  0.5427990000000  0.5236200000000  0.5146200000000 1.0
C      1  0.5156140000000  0.4392050000000  0.5510880000000 1.0
C      1  0.5602680000000  0.5155090000000  0.5510920000000 1.0
C      1  0.4839630000000  0.5601630000000  0.5510900000000 1.0
C      1  0.4393100000000  0.4838580000000  0.5510870000000 1.0
C      1  0.5161220000000  0.4387590000000  0.4488930000000 1.0
C      1  0.5607190000000  0.5160150000000  0.4488960000000 1.0
C      1  0.4834630000000  0.5606130000000  0.4488940000000 1.0
C      1  0.4388660000000  0.4833570000000  0.4488910000000 1.0
C      1  0.4459450000000  0.5014690000000  0.5263980000000 1.0
C      1  0.4980060000000  0.4458400000000  0.5263990000000 1.0
C      1  0.5536350000000  0.4979000000000  0.5264020000000 1.0
C      1  0.5015740000000  0.5535290000000  0.5264010000000 1.0
C      1  0.4447970000000  0.5013270000000  0.4735640000000 1.0
C      1  0.4981500000000  0.4446920000000  0.4735640000000 1.0
C      1  0.5547860000000  0.4980440000000  0.4735670000000 1.0
C      1  0.5014330000000  0.5546790000000  0.4735670000000 1.0
C      1  0.4392080000000  0.4583850000000  0.5361450000000 1.0
C      1  0.5410880000000  0.4391030000000  0.5361480000000 1.0
C      1  0.5603710000000  0.5409830000000  0.5361510000000 1.0
C      1  0.4584900000000  0.5602660000000  0.5361480000000 1.0
C      1  0.4387720000000  0.4581750000000  0.4644460000000 1.0
C      1  0.5413020000000  0.4386660000000  0.4644490000000 1.0
C      1  0.5608120000000  0.5411960000000  0.4644520000000 1.0
C      1  0.4582810000000  0.5607050000000  0.4644480000000 1.0
C      1  0.5649790000000  0.4498100000000  0.4692940000000 1.0
C      1  0.5496670000000  0.5648730000000  0.4692960000000 1.0
C      1  0.4346040000000  0.5495610000000  0.4692920000000 1.0
C      1  0.4499160000000  0.4344980000000  0.4692900000000 1.0
C      1  0.5643470000000  0.4500160000000  0.5303070000000 1.0
C      1  0.5494580000000  0.5642420000000  0.5303090000000 1.0
C      1  0.4352320000000  0.5493530000000  0.5303050000000 1.0
C      1  0.4501210000000  0.4351260000000  0.5303030000000 1.0
C      1  0.5297920000000  0.4826280000000  0.4692700000000 1.0
C      1  0.5168500000000  0.5296860000000  0.4692700000000 1.0
C      1  0.4697920000000  0.5167440000000  0.4692690000000 1.0
C      1  0.4827330000000  0.4696850000000  0.4692680000000 1.0
C      1  0.5265230000000  0.4838920000000  0.5290650000000 1.0
C      1  0.5155820000000  0.5264180000000  0.5290650000000 1.0
C      1  0.4730560000000  0.5154770000000  0.5290640000000 1.0
C      1  0.4839970000000  0.4729510000000  0.5290630000000 1.0
C      1  0.4708570000000  0.5167800000000  0.4404130000000 1.0
C      1  0.4826990000000  0.4707500000000  0.4404120000000 1.0
C      1  0.5287280000000  0.4825930000000  0.4404140000000 1.0
C      1  0.5168870000000  0.5286220000000  0.4404140000000 1.0
C      1  0.4714450000000  0.5169990000000  0.5591120000000 1.0
C      1  0.4824730000000  0.4713400000000  0.5591110000000 1.0
C      1  0.5281320000000  0.4823690000000  0.5591130000000 1.0
C      1  0.5171040000000  0.5280270000000  0.5591140000000 1.0
C      1  0.4997900000000  0.4996840000000  0.5228360000000 1.0
END
