TITL C-19911-9240-1 0.00516499492173465 125000 -907.462393492041 0 0 128 (C2h) n - 1
REM
REM in /rds/project/t2_vol4/rds-t2-cs072/BORA/CARBON/from-Arr/AIRSS/Generating-Clusters/GAP-ML-2020/Higher-Symm/SD-CG/HFTN-CG
REM
REM
REM
REM
REM
REM ./C.cell (b20cbc046b6831c77cfcea5457e17084)
REM AIRSS Version 0.9.1 bugfix July 2018 build 013d7b7c2542+ Fri, 06 Jul 2018 19:26:36 +0100
REM compiler GCC version 9.3.0
REM options -cpp -mtune=generic -march=x86-64 -g -O0
REM seed 385683526 212117734 -1357298017 628427523 -882973125 1800249582 -1668963118 -2045623754 -1755597717 1601515442 719644542 -1122939043 -448261728 2009179639 -1347761118 1207025135 -1157043049 779603391 1578452835 1190915564 -1030580367 -93876619 -1944394508 -1503718713 1014623370 376105424 -1508998191 499162414 -146207811 -739385438 1275100784 218792650 -32887591
REM
CELL 1.54180   50.00000   50.00000   50.00000   90.00000   90.00000   90.00000
LATT -1
SFAC C  
C      1  0.5406310000000  0.4729150000000  0.4140020000000 1.0
C      1  0.4593580000000  0.5266340000000  0.4138660000000 1.0
C      1  0.5406420000000  0.4733660000000  0.5861340000000 1.0
C      1  0.4593690000000  0.5270850000000  0.5859980000000 1.0
C      1  0.5202760000000  0.4585720000000  0.5153520000000 1.0
C      1  0.4797260000000  0.5415080000000  0.5151380000000 1.0
C      1  0.5202740000000  0.4584920000000  0.4848620000000 1.0
C      1  0.4797240000000  0.5414280000000  0.4846480000000 1.0
C      1  0.4686230000000  0.4583760000000  0.4326780000000 1.0
C      1  0.5313690000000  0.5412700000000  0.4324570000000 1.0
C      1  0.4686310000000  0.4587300000000  0.5675430000000 1.0
C      1  0.5313770000000  0.5416240000000  0.5673220000000 1.0
C      1  0.5786410000000  0.5098930000000  0.5153040000000 1.0
C      1  0.4213610000000  0.4901870000000  0.5153650000000 1.0
C      1  0.5786390000000  0.5098130000000  0.4846350000000 1.0
C      1  0.4213590000000  0.4901070000000  0.4846960000000 1.0
C      1  0.5004900000000  0.4176990000000  0.5149900000000 1.0
C      1  0.4995120000000  0.5823780000000  0.5145580000000 1.0
C      1  0.5004880000000  0.4176220000000  0.4854420000000 1.0
C      1  0.4995100000000  0.5823010000000  0.4850100000000 1.0
C      1  0.4411160000000  0.5530560000000  0.4471330000000 1.0
C      1  0.5588780000000  0.4466680000000  0.4474050000000 1.0
C      1  0.4411220000000  0.5533320000000  0.5525950000000 1.0
C      1  0.5588840000000  0.4469440000000  0.5528670000000 1.0
C      1  0.5828380000000  0.4887580000000  0.4439200000000 1.0
C      1  0.4171550000000  0.5109480000000  0.4438720000000 1.0
C      1  0.5828450000000  0.4890520000000  0.5561280000000 1.0
C      1  0.4171620000000  0.5112420000000  0.5560800000000 1.0
C      1  0.4293040000000  0.4237820000000  0.4854810000000 1.0
C      1  0.5706940000000  0.5761410000000  0.4850730000000 1.0
C      1  0.4293060000000  0.4238590000000  0.5149270000000 1.0
C      1  0.5706960000000  0.5762180000000  0.5145190000000 1.0
C      1  0.5359950000000  0.5007990000000  0.5931060000000 1.0
C      1  0.4640160000000  0.4996890000000  0.5931140000000 1.0
C      1  0.5359840000000  0.5003110000000  0.4068860000000 1.0
C      1  0.4640050000000  0.4992010000000  0.4068940000000 1.0
C      1  0.5369910000000  0.5535360000000  0.5389410000000 1.0
C      1  0.4630140000000  0.4466690000000  0.5392250000000 1.0
C      1  0.5369860000000  0.5533310000000  0.4607750000000 1.0
C      1  0.4630090000000  0.4464640000000  0.4610590000000 1.0
C      1  0.4542570000000  0.4953370000000  0.5236830000000 1.0
C      1  0.5457460000000  0.5047870000000  0.5236530000000 1.0
C      1  0.4542540000000  0.4952130000000  0.4763470000000 1.0
C      1  0.5457430000000  0.5046630000000  0.4763170000000 1.0
C      1  0.5249900000000  0.4296450000000  0.4729370000000 1.0
C      1  0.4750070000000  0.5702120000000  0.4725720000000 1.0
C      1  0.5249930000000  0.4297880000000  0.5274280000000 1.0
C      1  0.4750100000000  0.5703550000000  0.5270630000000 1.0
C      1  0.5899230000000  0.4850510000000  0.5284480000000 1.0
C      1  0.4100810000000  0.5150980000000  0.5283800000000 1.0
C      1  0.5899190000000  0.4849020000000  0.4716200000000 1.0
C      1  0.4100770000000  0.5149490000000  0.4715520000000 1.0
C      1  0.5322690000000  0.4382180000000  0.5564960000000 1.0
C      1  0.4677380000000  0.5620780000000  0.5561760000000 1.0
C      1  0.5322620000000  0.4379220000000  0.4438240000000 1.0
C      1  0.4677310000000  0.5617820000000  0.4435040000000 1.0
C      1  0.5484480000000  0.5184030000000  0.5720690000000 1.0
C      1  0.4515610000000  0.4819750000000  0.5721700000000 1.0
C      1  0.5484390000000  0.5180250000000  0.4278300000000 1.0
C      1  0.4515520000000  0.4815970000000  0.4279310000000 1.0
C      1  0.4330300000000  0.4446340000000  0.4669390000000 1.0
C      1  0.5669660000000  0.5551920000000  0.4666410000000 1.0
C      1  0.4330340000000  0.4448080000000  0.5333590000000 1.0
C      1  0.5669700000000  0.5553660000000  0.5330610000000 1.0
C      1  0.5203920000000  0.4537690000000  0.5784960000000 1.0
C      1  0.4796170000000  0.5466420000000  0.5782550000000 1.0
C      1  0.5203830000000  0.4533580000000  0.4217450000000 1.0
C      1  0.4796080000000  0.5462310000000  0.4215040000000 1.0
C      1  0.5602020000000  0.4731090000000  0.5640230000000 1.0
C      1  0.4398060000000  0.5272260000000  0.5638880000000 1.0
C      1  0.5601940000000  0.4727740000000  0.4361120000000 1.0
C      1  0.4397980000000  0.5268910000000  0.4359770000000 1.0
C      1  0.5521100000000  0.4248250000000  0.5140580000000 1.0
C      1  0.4478920000000  0.5752470000000  0.5136700000000 1.0
C      1  0.5521080000000  0.4247530000000  0.4863300000000 1.0
C      1  0.4478900000000  0.5751750000000  0.4859420000000 1.0
C      1  0.4897920000000  0.4899100000000  0.5965270000000 1.0
C      1  0.5102200000000  0.5105950000000  0.5964720000000 1.0
C      1  0.4897800000000  0.4894050000000  0.4035280000000 1.0
C      1  0.5102080000000  0.5100900000000  0.4034730000000 1.0
C      1  0.4749160000000  0.4204620000000  0.5277080000000 1.0
C      1  0.5250880000000  0.5796820000000  0.5272880000000 1.0
C      1  0.4749120000000  0.4203180000000  0.4727120000000 1.0
C      1  0.5250840000000  0.5795380000000  0.4722920000000 1.0
C      1  0.4911620000000  0.5102240000000  0.4518980000000 1.0
C      1  0.5088320000000  0.4895240000000  0.4519510000000 1.0
C      1  0.4911680000000  0.5104760000000  0.5480490000000 1.0
C      1  0.5088380000000  0.4897760000000  0.5481020000000 1.0
C      1  0.5810020000000  0.5310940000000  0.4629410000000 1.0
C      1  0.4189940000000  0.4687130000000  0.4631140000000 1.0
C      1  0.5810060000000  0.5312870000000  0.5368860000000 1.0
C      1  0.4189980000000  0.4689060000000  0.5370590000000 1.0
C      1  0.5433120000000  0.4777470000000  0.4861100000000 1.0
C      1  0.4566870000000  0.5221800000000  0.4859990000000 1.0
C      1  0.5433130000000  0.4778200000000  0.5140010000000 1.0
C      1  0.4566880000000  0.5222530000000  0.5138900000000 1.0
C      1  0.5383060000000  0.4963920000000  0.5502790000000 1.0
C      1  0.4617000000000  0.5038720000000  0.5502640000000 1.0
C      1  0.5383000000000  0.4961280000000  0.4497360000000 1.0
C      1  0.4616940000000  0.5036080000000  0.4497210000000 1.0
C      1  0.4928360000000  0.4629000000000  0.5833500000000 1.0
C      1  0.5071740000000  0.5375360000000  0.5831540000000 1.0
C      1  0.4928260000000  0.4624640000000  0.4168460000000 1.0
C      1  0.5071640000000  0.5371000000000  0.4166500000000 1.0
C      1  0.4541870000000  0.4072530000000  0.4861470000000 1.0
C      1  0.5458120000000  0.5926730000000  0.4856560000000 1.0
C      1  0.4541880000000  0.4073270000000  0.5143440000000 1.0
C      1  0.5458130000000  0.5927470000000  0.5138530000000 1.0
C      1  0.4998410000000  0.4743860000000  0.4741430000000 1.0
C      1  0.5001550000000  0.5254780000000  0.4740090000000 1.0
C      1  0.4998450000000  0.4745220000000  0.5259910000000 1.0
C      1  0.5001590000000  0.5256140000000  0.5258570000000 1.0
C      1  0.4721260000000  0.4708180000000  0.5159890000000 1.0
C      1  0.5278750000000  0.5292660000000  0.5158330000000 1.0
C      1  0.4721250000000  0.4707340000000  0.4841670000000 1.0
C      1  0.5278740000000  0.5291820000000  0.4840110000000 1.0
C      1  0.4235620000000  0.4833320000000  0.4390400000000 1.0
C      1  0.5764300000000  0.5163480000000  0.4389440000000 1.0
C      1  0.4235700000000  0.4836520000000  0.5610560000000 1.0
C      1  0.5764380000000  0.5166680000000  0.5609600000000 1.0
C      1  0.4284110000000  0.5599180000000  0.4718700000000 1.0
C      1  0.5715860000000  0.4399350000000  0.4721750000000 1.0
C      1  0.4284140000000  0.5600650000000  0.5278250000000 1.0
C      1  0.5715890000000  0.4400820000000  0.5281300000000 1.0
C      1  0.4113470000000  0.5403180000000  0.4854090000000 1.0
C      1  0.5886520000000  0.4596060000000  0.4856100000000 1.0
C      1  0.4113480000000  0.5403940000000  0.5143900000000 1.0
C      1  0.5886530000000  0.4596820000000  0.5145910000000 1.0
END
