TITL C-19532-725-8 3.29450958861817 125000 -477.480869702917 0 0 70 (C1) n - 1
REM
REM in /rds/project/t2_vol4/rds-t2-cs072/BORA/CARBON/from-Arr/AIRSS/Generating-Clusters/GAP-ML-2020/Higher-Symm/SD-CG/HFTN-CG
REM
REM
REM
REM
REM
REM ./C.cell (b20cbc046b6831c77cfcea5457e17084)
REM AIRSS Version 0.9.1 bugfix July 2018 build 013d7b7c2542+ Fri, 06 Jul 2018 19:26:36 +0100
REM compiler GCC version 9.3.0
REM options -cpp -mtune=generic -march=x86-64 -g -O0
REM seed -1628338951 2032172901 -907054615 -529242108 518587078 1921203163 -1429580486 1086966104 -1466751151 -861682109 1429591209 -2015517695 -1452838674 359576625 -832257414 1985256552 902357683 -1323703929 -342065461 -376399346 1161168051 605044477 -1157826638 2111692935 -1103634937 -1617631780 1250375715 -1133562958 -641541056 1223672174 -683577287 -526793757 -457162568
REM
CELL 1.54180   50.00000   50.00000   50.00000   90.00000   90.00000   90.00000
LATT -1
SFAC C  
C      1  0.4995100000000  0.4875630000000  0.5311290000000 1.0
C      1  0.4732800000000  0.4867730000000  0.4864780000000 1.0
C      1  0.5270590000000  0.4872380000000  0.4858920000000 1.0
C      1  0.4998070000000  0.4859590000000  0.4714830000000 1.0
C      1  0.4730180000000  0.4877000000000  0.5170370000000 1.0
C      1  0.5271970000000  0.4881790000000  0.5156180000000 1.0
C      1  0.5043640000000  0.4688500000000  0.5526950000000 1.0
C      1  0.4511180000000  0.4704190000000  0.4767350000000 1.0
C      1  0.5468590000000  0.4698160000000  0.4716460000000 1.0
C      1  0.5018350000000  0.4643480000000  0.4488610000000 1.0
C      1  0.4501430000000  0.4696770000000  0.5270470000000 1.0
C      1  0.5467960000000  0.4715440000000  0.5308860000000 1.0
C      1  0.5139310000000  0.5080430000000  0.5807970000000 1.0
C      1  0.4213120000000  0.5083980000000  0.4731890000000 1.0
C      1  0.5619370000000  0.5067910000000  0.4470560000000 1.0
C      1  0.5138360000000  0.5056070000000  0.4199310000000 1.0
C      1  0.4214690000000  0.5096170000000  0.5288070000000 1.0
C      1  0.5629440000000  0.5094690000000  0.5540560000000 1.0
C      1  0.5461960000000  0.5311750000000  0.4460360000000 1.0
C      1  0.5229810000000  0.5327190000000  0.5672280000000 1.0
C      1  0.4295420000000  0.5329080000000  0.4870980000000 1.0
C      1  0.5463610000000  0.5334690000000  0.5541580000000 1.0
C      1  0.5227460000000  0.5303500000000  0.4333180000000 1.0
C      1  0.4294820000000  0.5335720000000  0.5138300000000 1.0
C      1  0.4760220000000  0.5306270000000  0.4310740000000 1.0
C      1  0.5712370000000  0.5328390000000  0.5142150000000 1.0
C      1  0.4513860000000  0.5337710000000  0.5552210000000 1.0
C      1  0.4762020000000  0.5332090000000  0.5689870000000 1.0
C      1  0.5710680000000  0.5320080000000  0.4857410000000 1.0
C      1  0.4513940000000  0.5307170000000  0.4455940000000 1.0
C      1  0.4290420000000  0.5142950000000  0.4474710000000 1.0
C      1  0.5792120000000  0.5128770000000  0.4673540000000 1.0
C      1  0.4881220000000  0.5151380000000  0.5864490000000 1.0
C      1  0.4299460000000  0.5160950000000  0.5540710000000 1.0
C      1  0.5802220000000  0.5151510000000  0.5335860000000 1.0
C      1  0.4886080000000  0.5140210000000  0.4125290000000 1.0
C      1  0.5082430000000  0.4467100000000  0.5340940000000 1.0
C      1  0.4643840000000  0.4470480000000  0.4688550000000 1.0
C      1  0.5385830000000  0.4434550000000  0.4796320000000 1.0
C      1  0.5109960000000  0.4449100000000  0.4716230000000 1.0
C      1  0.4598060000000  0.4449950000000  0.5275030000000 1.0
C      1  0.5358990000000  0.4451370000000  0.5254940000000 1.0
C      1  0.5256300000000  0.5193080000000  0.5149690000000 1.0
C      1  0.4737100000000  0.5187860000000  0.5159030000000 1.0
C      1  0.4994030000000  0.5177220000000  0.4711080000000 1.0
C      1  0.5256440000000  0.5187090000000  0.4855410000000 1.0
C      1  0.4739670000000  0.5184340000000  0.4861050000000 1.0
C      1  0.4996090000000  0.5193810000000  0.5299500000000 1.0
C      1  0.5244140000000  0.5604730000000  0.4850580000000 1.0
C      1  0.4997900000000  0.5610740000000  0.5282610000000 1.0
C      1  0.4748190000000  0.5603940000000  0.4855300000000 1.0
C      1  0.5244760000000  0.5611190000000  0.5139680000000 1.0
C      1  0.4996390000000  0.5598690000000  0.4711040000000 1.0
C      1  0.4747680000000  0.5612620000000  0.5140710000000 1.0
C      1  0.5492190000000  0.4839780000000  0.5566420000000 1.0
C      1  0.4263390000000  0.4843000000000  0.5158440000000 1.0
C      1  0.5220920000000  0.4805070000000  0.4318940000000 1.0
C      1  0.5476340000000  0.4813690000000  0.4451900000000 1.0
C      1  0.4271090000000  0.4836740000000  0.4872360000000 1.0
C      1  0.5235150000000  0.4829570000000  0.5699850000000 1.0
C      1  0.4550020000000  0.5409540000000  0.4743950000000 1.0
C      1  0.5445570000000  0.5413810000000  0.4738990000000 1.0
C      1  0.4996090000000  0.5422630000000  0.5517080000000 1.0
C      1  0.4547470000000  0.5425940000000  0.5262140000000 1.0
C      1  0.5445470000000  0.5423170000000  0.5257710000000 1.0
C      1  0.4993160000000  0.5398130000000  0.4486950000000 1.0
C      1  0.4859960000000  0.4403640000000  0.5167500000000 1.0
C      1  0.4758440000000  0.4516110000000  0.4447420000000 1.0
C      1  0.5447910000000  0.4312530000000  0.5035440000000 1.0
C      1  0.4881700000000  0.4402180000000  0.4877730000000 1.0
END
