TITL C-19540-9154-7 0.0495175741669641 125000 -580.189336547394 0 0 82 (C1) n - 1
REM
REM in /rds/project/t2_vol4/rds-t2-cs072/BORA/CARBON/from-Arr/AIRSS/Generating-Clusters/GAP-ML-2020/Higher-Symm/SD-CG/HFTN-CG
REM
REM
REM
REM
REM
REM ./C.cell (b20cbc046b6831c77cfcea5457e17084)
REM AIRSS Version 0.9.1 bugfix July 2018 build 013d7b7c2542+ Fri, 06 Jul 2018 19:26:36 +0100
REM compiler GCC version 9.3.0
REM options -cpp -mtune=generic -march=x86-64 -g -O0
REM seed -1215825009 -572264818 -124953264 -18726619 -1577158494 -1699491683 -1027611747 437784776 1088409876 1642942218 1475166248 -1745221183 -657835855 -1204161801 1145063609 -1700278989 1801698475 1757317012 333204328 2051226182 1169905680 1085196061 662669065 -1441231201 89621177 1061247992 -1383838244 1612614520 -1226226642 -1524099749 -1295912810 -1289273453 289187325
REM
CELL 1.54180   50.00000   50.00000   50.00000   90.00000   90.00000   90.00000
LATT -1
SFAC C  
C      1  0.4545560000000  0.5173170000000  0.4390970000000 1.0
C      1  0.4589680000000  0.5430600000000  0.5419110000000 1.0
C      1  0.4528540000000  0.4368880000000  0.5140940000000 1.0
C      1  0.5175770000000  0.4313140000000  0.4770870000000 1.0
C      1  0.5126970000000  0.5572590000000  0.4631750000000 1.0
C      1  0.5153020000000  0.5077720000000  0.5734490000000 1.0
C      1  0.4620360000000  0.5974030000000  0.4906990000000 1.0
C      1  0.4897890000000  0.4645160000000  0.5714390000000 1.0
C      1  0.4751910000000  0.4562920000000  0.4120950000000 1.0
C      1  0.5425350000000  0.5216900000000  0.4396470000000 1.0
C      1  0.5493480000000  0.5402240000000  0.5558820000000 1.0
C      1  0.5475770000000  0.4286050000000  0.5140400000000 1.0
C      1  0.4407550000000  0.5380970000000  0.4533390000000 1.0
C      1  0.4478570000000  0.5193370000000  0.5543350000000 1.0
C      1  0.4356910000000  0.4439020000000  0.4932120000000 1.0
C      1  0.4820580000000  0.4436540000000  0.5521610000000 1.0
C      1  0.4772940000000  0.4817000000000  0.4214960000000 1.0
C      1  0.4725770000000  0.5801960000000  0.5098180000000 1.0
C      1  0.5405010000000  0.4587640000000  0.4500270000000 1.0
C      1  0.5444460000000  0.5633450000000  0.4966090000000 1.0
C      1  0.5402780000000  0.4705890000000  0.5628960000000 1.0
C      1  0.5056410000000  0.5625820000000  0.5388700000000 1.0
C      1  0.4983940000000  0.4396810000000  0.5279090000000 1.0
C      1  0.4978380000000  0.4982080000000  0.4368410000000 1.0
C      1  0.5109940000000  0.4531870000000  0.4579090000000 1.0
C      1  0.5174800000000  0.5694600000000  0.4898870000000 1.0
C      1  0.5145060000000  0.4788710000000  0.5732820000000 1.0
C      1  0.4993010000000  0.4839000000000  0.4665220000000 1.0
C      1  0.5000870000000  0.5743800000000  0.5130520000000 1.0
C      1  0.4982120000000  0.4712450000000  0.5186780000000 1.0
C      1  0.5438920000000  0.4325260000000  0.4869430000000 1.0
C      1  0.5380550000000  0.5433650000000  0.4565810000000 1.0
C      1  0.5419040000000  0.5154110000000  0.5650200000000 1.0
C      1  0.5261680000000  0.4305060000000  0.5338100000000 1.0
C      1  0.5256830000000  0.5009380000000  0.4280180000000 1.0
C      1  0.5328950000000  0.5616200000000  0.5445930000000 1.0
C      1  0.5129960000000  0.5134860000000  0.5050150000000 1.0
C      1  0.5203350000000  0.4860830000000  0.5103680000000 1.0
C      1  0.5200800000000  0.4958250000000  0.4839750000000 1.0
C      1  0.4602150000000  0.5597450000000  0.4557750000000 1.0
C      1  0.4675270000000  0.5090530000000  0.5723770000000 1.0
C      1  0.4854640000000  0.4365540000000  0.4539390000000 1.0
C      1  0.5672050000000  0.5416840000000  0.5330810000000 1.0
C      1  0.5637500000000  0.4480080000000  0.5274510000000 1.0
C      1  0.5621590000000  0.5014050000000  0.4478150000000 1.0
C      1  0.4897190000000  0.4236340000000  0.4799600000000 1.0
C      1  0.4873540000000  0.5497440000000  0.4505100000000 1.0
C      1  0.4916500000000  0.5239350000000  0.5702030000000 1.0
C      1  0.5742290000000  0.5197520000000  0.5178160000000 1.0
C      1  0.5736860000000  0.4709780000000  0.5148510000000 1.0
C      1  0.5733100000000  0.4989190000000  0.4734270000000 1.0
C      1  0.4651040000000  0.4458800000000  0.4365590000000 1.0
C      1  0.4495500000000  0.5774720000000  0.4762080000000 1.0
C      1  0.4665750000000  0.4805800000000  0.5735470000000 1.0
C      1  0.4261770000000  0.5368410000000  0.4791940000000 1.0
C      1  0.4362450000000  0.4950950000000  0.5424060000000 1.0
C      1  0.4343550000000  0.4642210000000  0.4743340000000 1.0
C      1  0.4754840000000  0.4914070000000  0.4837470000000 1.0
C      1  0.4611990000000  0.5312280000000  0.5028340000000 1.0
C      1  0.4750920000000  0.4881320000000  0.5133380000000 1.0
C      1  0.4379490000000  0.5151340000000  0.4960470000000 1.0
C      1  0.4433560000000  0.4925900000000  0.5152920000000 1.0
C      1  0.4450140000000  0.4897780000000  0.4847050000000 1.0
C      1  0.4821500000000  0.5234990000000  0.4390120000000 1.0
C      1  0.4859850000000  0.5464960000000  0.5527720000000 1.0
C      1  0.4795730000000  0.4276880000000  0.5072500000000 1.0
C      1  0.5724230000000  0.4943500000000  0.5311310000000 1.0
C      1  0.5731260000000  0.4728000000000  0.4859160000000 1.0
C      1  0.5724370000000  0.5228880000000  0.4889450000000 1.0
C      1  0.5458810000000  0.4812850000000  0.4353560000000 1.0
C      1  0.5519100000000  0.5636760000000  0.5227000000000 1.0
C      1  0.5446100000000  0.4471480000000  0.5494300000000 1.0
C      1  0.4460390000000  0.4711240000000  0.5556890000000 1.0
C      1  0.4430800000000  0.4648720000000  0.4465320000000 1.0
C      1  0.4325560000000  0.5611800000000  0.4934220000000 1.0
C      1  0.5576140000000  0.4529100000000  0.4722300000000 1.0
C      1  0.5566480000000  0.5450490000000  0.4786120000000 1.0
C      1  0.5566960000000  0.4930440000000  0.5554630000000 1.0
C      1  0.4551310000000  0.4467310000000  0.5428810000000 1.0
C      1  0.4514490000000  0.4896900000000  0.4334640000000 1.0
C      1  0.4538130000000  0.5565100000000  0.5161450000000 1.0
C      1  0.4836250000000  0.5136390000000  0.5031450000000 1.0
END
