TITL C-19938-9977-2 0.0054763109044745 125000 -29.7959809768427 0 0 5 (D(inf)h) n - 1
REM
REM in /rds/project/t2_vol4/rds-t2-cs072/BORA/CARBON/from-Arr/AIRSS/Generating-Clusters/GAP-ML-2020/Higher-Symm/SD-CG/HFTN-CG
REM
REM
REM
REM
REM
REM ./C.cell (b20cbc046b6831c77cfcea5457e17084)
REM AIRSS Version 0.9.1 bugfix July 2018 build 013d7b7c2542+ Fri, 06 Jul 2018 19:26:36 +0100
REM compiler GCC version 9.3.0
REM options -cpp -mtune=generic -march=x86-64 -g -O0
REM seed 545708493 1385474028 165108482 592591269 -670178123 -336757629 1804780947 -1512017868 1403977817 -954055285 1351931933 -158423399 -425922679 1798235627 -1656316712 1940624423 71512727 54272223 1933704590 -1736171209 -1443777701 -1255817149 -1217550052 1171057808 -1808233827 1607096759 184072168 944967540 -756700068 306178783 858523586 1854739675 948352035
REM
CELL 1.54180   50.00000   50.00000   50.00000   90.00000   90.00000   90.00000
LATT -1
SFAC C  
C      1  0.5128370000000  0.4964300000000  0.5481290000000 1.0
C      1  0.4833340000000  0.4958220000000  0.4490150000000 1.0
C      1  0.4907120000000  0.4959740000000  0.4738000000000 1.0
C      1  0.5054590000000  0.4962780000000  0.5233430000000 1.0
C      1  0.4980850000000  0.4961260000000  0.4985720000000 1.0
END
