TITL C-19930-9392-4 17.3886080810666 125000 -363.913211663097 0 0 53 (C1) n - 1
REM
REM in /rds/project/t2_vol4/rds-t2-cs072/BORA/CARBON/from-Arr/AIRSS/Generating-Clusters/GAP-ML-2020/Higher-Symm/SD-CG/HFTN-CG
REM
REM
REM
REM
REM
REM ./C.cell (b20cbc046b6831c77cfcea5457e17084)
REM AIRSS Version 0.9.1 bugfix July 2018 build 013d7b7c2542+ Fri, 06 Jul 2018 19:26:36 +0100
REM compiler GCC version 9.3.0
REM options -cpp -mtune=generic -march=x86-64 -g -O0
REM seed -1754411615 -645055171 1687818566 505863906 -1033205727 983217916 489131613 425170760 960628361 1011270310 175780648 421868326 92496130 -1181257443 1946626163 -20148297 158876532 509245121 1217053438 1182903946 -1921486835 1019724214 -941381082 -1717017677 -1044782072 -570151827 1989936126 -951656462 -1812006653 301773979 330104552 -1949201335 1097698785
REM
CELL 1.54180   50.00000   50.00000   50.00000   90.00000   90.00000   90.00000
LATT -1
SFAC C  
C      1  0.4718240000000  0.5329360000000  0.5451490000000 1.0
C      1  0.4584240000000  0.5095580000000  0.5425080000000 1.0
C      1  0.4703200000000  0.4853760000000  0.5510300000000 1.0
C      1  0.5143970000000  0.4650370000000  0.5477930000000 1.0
C      1  0.5399070000000  0.4763340000000  0.5412660000000 1.0
C      1  0.5381780000000  0.5038570000000  0.5477230000000 1.0
C      1  0.4982640000000  0.5338150000000  0.5554300000000 1.0
C      1  0.5100270000000  0.4488300000000  0.4605200000000 1.0
C      1  0.5262830000000  0.4689790000000  0.4491530000000 1.0
C      1  0.5323700000000  0.5082400000000  0.4528070000000 1.0
C      1  0.5251740000000  0.5310960000000  0.4665410000000 1.0
C      1  0.4759270000000  0.5449290000000  0.4528230000000 1.0
C      1  0.4785730000000  0.5234650000000  0.4364500000000 1.0
C      1  0.4692640000000  0.4783080000000  0.4513440000000 1.0
C      1  0.5384720000000  0.4878870000000  0.4963110000000 1.0
C      1  0.5515590000000  0.5150670000000  0.5038840000000 1.0
C      1  0.5049920000000  0.5168850000000  0.5114780000000 1.0
C      1  0.4831180000000  0.5276990000000  0.4965450000000 1.0
C      1  0.4661990000000  0.5037070000000  0.4914650000000 1.0
C      1  0.4880460000000  0.4840810000000  0.4908180000000 1.0
C      1  0.5104290000000  0.4910230000000  0.5048690000000 1.0
C      1  0.5341270000000  0.5581110000000  0.5026770000000 1.0
C      1  0.5077440000000  0.5644030000000  0.4959560000000 1.0
C      1  0.4388970000000  0.5453010000000  0.4820610000000 1.0
C      1  0.4431710000000  0.4667530000000  0.4894690000000 1.0
C      1  0.4676150000000  0.4516630000000  0.4914690000000 1.0
C      1  0.5328260000000  0.4181140000000  0.4968670000000 1.0
C      1  0.5742260000000  0.4741160000000  0.4748940000000 1.0
C      1  0.4497220000000  0.4879410000000  0.4710510000000 1.0
C      1  0.4842250000000  0.4599580000000  0.4687940000000 1.0
C      1  0.5239990000000  0.4311920000000  0.4765220000000 1.0
C      1  0.5458220000000  0.4842510000000  0.4672890000000 1.0
C      1  0.5437970000000  0.5367840000000  0.4870930000000 1.0
C      1  0.4976560000000  0.5438130000000  0.4748190000000 1.0
C      1  0.4491830000000  0.5541180000000  0.4604250000000 1.0
C      1  0.5479170000000  0.5237670000000  0.5307970000000 1.0
C      1  0.5103390000000  0.5547770000000  0.5408820000000 1.0
C      1  0.4688840000000  0.5466800000000  0.5195680000000 1.0
C      1  0.4450010000000  0.5075860000000  0.5162420000000 1.0
C      1  0.4591520000000  0.4661250000000  0.5332900000000 1.0
C      1  0.5050700000000  0.4473250000000  0.5279100000000 1.0
C      1  0.5479820000000  0.4656480000000  0.5144110000000 1.0
C      1  0.5285620000000  0.4419320000000  0.5127220000000 1.0
C      1  0.5751900000000  0.4646040000000  0.4987850000000 1.0
C      1  0.5363700000000  0.5500540000000  0.5305450000000 1.0
C      1  0.4927590000000  0.5642860000000  0.5203030000000 1.0
C      1  0.4417260000000  0.5379090000000  0.5082470000000 1.0
C      1  0.4391720000000  0.4785550000000  0.5151240000000 1.0
C      1  0.4769290000000  0.4487410000000  0.5192560000000 1.0
C      1  0.5141260000000  0.4918220000000  0.4382590000000 1.0
C      1  0.4975230000000  0.4853350000000  0.5585760000000 1.0
C      1  0.4857240000000  0.4970900000000  0.4367600000000 1.0
C      1  0.5124140000000  0.5096180000000  0.5598870000000 1.0
END
