TITL C-19926-184-2 3.94000178824397 125000 -242.57774192367 0 0 36 (Th) n - 1
REM
REM in /rds/project/t2_vol4/rds-t2-cs072/BORA/CARBON/from-Arr/AIRSS/Generating-Clusters/GAP-ML-2020/Higher-Symm/SD-CG/HFTN-CG
REM
REM
REM
REM
REM
REM ./C.cell (b20cbc046b6831c77cfcea5457e17084)
REM AIRSS Version 0.9.1 bugfix July 2018 build 013d7b7c2542+ Fri, 06 Jul 2018 19:26:36 +0100
REM compiler GCC version 9.3.0
REM options -cpp -mtune=generic -march=x86-64 -g -O0
REM seed -405840707 -1376563393 -727849870 -1435185553 -1600913872 848289673 468076988 731030586 1585788852 537233818 114534765 1498767880 84242885 -1644605897 1440740166 -507358050 1761566021 -484842420 -2058285442 -1785516471 2124036066 -1541579470 -633595174 -1730996747 -1627412145 1689007397 -1706439717 632820897 1538702564 -618243263 614931595 1636448368 -2057282124
REM
CELL 1.54180   50.00000   50.00000   50.00000   90.00000   90.00000   90.00000
LATT -1
SFAC C  
C      1  0.5291520000000  0.5239720000000  0.5459700000000 1.0
C      1  0.5459700000000  0.5291520000000  0.5239720000000 1.0
C      1  0.5239720000000  0.5459700000000  0.5291520000000 1.0
C      1  0.4708480000000  0.4760280000000  0.5459700000000 1.0
C      1  0.4708480000000  0.5239720000000  0.4540300000000 1.0
C      1  0.5291520000000  0.4760280000000  0.4540300000000 1.0
C      1  0.4540300000000  0.4708480000000  0.5239720000000 1.0
C      1  0.4540300000000  0.5291520000000  0.4760280000000 1.0
C      1  0.5459700000000  0.4708480000000  0.4760280000000 1.0
C      1  0.4760280000000  0.4540300000000  0.5291520000000 1.0
C      1  0.4760280000000  0.5459700000000  0.4708480000000 1.0
C      1  0.5239730000000  0.4540300000000  0.4708480000000 1.0
C      1  0.5291520000000  0.5239730000000  0.4540300000000 1.0
C      1  0.5459700000000  0.5291520000000  0.4760280000000 1.0
C      1  0.5239720000000  0.5459700000000  0.4708480000000 1.0
C      1  0.4708480000000  0.4760280000000  0.4540300000000 1.0
C      1  0.4708480000000  0.5239720000000  0.5459700000000 1.0
C      1  0.5291520000000  0.4760270000000  0.5459700000000 1.0
C      1  0.4540300000000  0.4708480000000  0.4760270000000 1.0
C      1  0.4540300000000  0.5291520000000  0.5239730000000 1.0
C      1  0.5459700000000  0.4708480000000  0.5239720000000 1.0
C      1  0.4760280000000  0.4540300000000  0.4708480000000 1.0
C      1  0.4760270000000  0.5459700000000  0.5291520000000 1.0
C      1  0.5239720000000  0.4540300000000  0.5291520000000 1.0
C      1  0.4484930000000  0.4858950000000  0.5000000000000 1.0
C      1  0.5000000000000  0.4484930000000  0.4858950000000 1.0
C      1  0.4858950000000  0.5000000000000  0.4484930000000 1.0
C      1  0.5515070000000  0.5141050000000  0.5000000000000 1.0
C      1  0.5515070000000  0.4858950000000  0.5000000000000 1.0
C      1  0.4484930000000  0.5141050000000  0.5000000000000 1.0
C      1  0.5000000000000  0.5515070000000  0.4858950000000 1.0
C      1  0.5000000000000  0.4484930000000  0.5141050000000 1.0
C      1  0.5000000000000  0.5515070000000  0.5141050000000 1.0
C      1  0.5141050000000  0.5000000000000  0.4484930000000 1.0
C      1  0.5141050000000  0.5000000000000  0.5515070000000 1.0
C      1  0.4858950000000  0.5000000000000  0.5515070000000 1.0
END
