TITL C-199734-9842-2 -39.8566726001698 125000 -606.169497650003 0 0 85 (C1) n - 1
REM
REM in /rds/project/t2_vol4/rds-t2-cs072/BORA/CARBON/from-Arr/AIRSS/Generating-Clusters/GAP-ML-2020/Higher-Symm/SD-CG/HFTN-CG
REM
REM
REM
REM
REM
REM ./C.cell (b20cbc046b6831c77cfcea5457e17084)
REM AIRSS Version 0.9.1 bugfix July 2018 build 013d7b7c2542+ Fri, 06 Jul 2018 19:26:36 +0100
REM compiler GCC version 9.3.0
REM options -cpp -mtune=generic -march=x86-64 -g -O0
REM seed 1534265048 1096575299 -1585269078 -315400834 -1494780882 -1239173629 2107926865 106785704 1601822583 38992907 -1422810222 -1209689604 1756174024 -153993732 -812979674 391158470 1307185836 1334578038 -288450936 1048895015 -940496295 1943839042 -383805822 521602321 1655424029 -947594647 -620112345 1080150750 464398249 1245791217 1186256103 -322826836 1457901805
REM
CELL 1.54180   50.00000   50.00000   50.00000   90.00000   90.00000   90.00000
LATT -1
SFAC C  
C      1  0.5300540000000  0.5437320000000  0.4447700000000 1.0
C      1  0.5037580000000  0.5525740000000  0.4455870000000 1.0
C      1  0.4741460000000  0.5452300000000  0.4443250000000 1.0
C      1  0.4550280000000  0.5250610000000  0.4442380000000 1.0
C      1  0.4495110000000  0.4947920000000  0.4428340000000 1.0
C      1  0.4602220000000  0.4692280000000  0.4432360000000 1.0
C      1  0.4855480000000  0.4517500000000  0.4433040000000 1.0
C      1  0.5133790000000  0.4508950000000  0.4430490000000 1.0
C      1  0.5398640000000  0.4662810000000  0.4442730000000 1.0
C      1  0.5531080000000  0.4918220000000  0.4453720000000 1.0
C      1  0.5491200000000  0.5202640000000  0.4460510000000 1.0
C      1  0.5588190000000  0.5409620000000  0.5511760000000 1.0
C      1  0.5143030000000  0.5708000000000  0.5507210000000 1.0
C      1  0.4854840000000  0.5714940000000  0.5504690000000 1.0
C      1  0.4390480000000  0.5438180000000  0.5485160000000 1.0
C      1  0.4268870000000  0.5173690000000  0.5484740000000 1.0
C      1  0.4424620000000  0.4627430000000  0.5462930000000 1.0
C      1  0.4563780000000  0.4372920000000  0.5413860000000 1.0
C      1  0.4851490000000  0.4337910000000  0.5464770000000 1.0
C      1  0.5416990000000  0.4396940000000  0.5487090000000 1.0
C      1  0.5616860000000  0.4609280000000  0.5485760000000 1.0
C      1  0.5699830000000  0.5144210000000  0.5496020000000 1.0
C      1  0.4178230000000  0.5021080000000  0.5273410000000 1.0
C      1  0.4251610000000  0.4738460000000  0.5259820000000 1.0
C      1  0.4449470000000  0.4203970000000  0.5231860000000 1.0
C      1  0.5019190000000  0.4215930000000  0.5263760000000 1.0
C      1  0.5309320000000  0.4253020000000  0.5277840000000 1.0
C      1  0.5760770000000  0.4717890000000  0.5276010000000 1.0
C      1  0.5815560000000  0.5003850000000  0.5284000000000 1.0
C      1  0.5574080000000  0.5606010000000  0.5314960000000 1.0
C      1  0.5327090000000  0.5761020000000  0.5303590000000 1.0
C      1  0.4677420000000  0.5779330000000  0.5299430000000 1.0
C      1  0.4435290000000  0.5616390000000  0.5279110000000 1.0
C      1  0.4562220000000  0.5738010000000  0.4852280000000 1.0
C      1  0.4243970000000  0.5360050000000  0.4875280000000 1.0
C      1  0.4157360000000  0.4903630000000  0.4831750000000 1.0
C      1  0.4337950000000  0.4452790000000  0.4831990000000 1.0
C      1  0.4724070000000  0.4187490000000  0.4834240000000 1.0
C      1  0.5209940000000  0.4183170000000  0.4837520000000 1.0
C      1  0.5604480000000  0.4430760000000  0.4879380000000 1.0
C      1  0.5837280000000  0.4863020000000  0.4842110000000 1.0
C      1  0.5777330000000  0.5345600000000  0.4901220000000 1.0
C      1  0.5487510000000  0.5713470000000  0.4870680000000 1.0
C      1  0.5014150000000  0.5850520000000  0.4900390000000 1.0
C      1  0.5665860000000  0.5568440000000  0.5044470000000 1.0
C      1  0.5266720000000  0.5816880000000  0.5024370000000 1.0
C      1  0.4759310000000  0.5844970000000  0.5032780000000 1.0
C      1  0.4373100000000  0.5579260000000  0.4997050000000 1.0
C      1  0.4143810000000  0.5125170000000  0.5008950000000 1.0
C      1  0.4226930000000  0.4666410000000  0.4975990000000 1.0
C      1  0.4476820000000  0.4242330000000  0.4970320000000 1.0
C      1  0.4962110000000  0.4162040000000  0.4980910000000 1.0
C      1  0.5420280000000  0.4254610000000  0.5014270000000 1.0
C      1  0.5758150000000  0.4633530000000  0.5000350000000 1.0
C      1  0.5850100000000  0.5096430000000  0.5013210000000 1.0
C      1  0.4683020000000  0.5695750000000  0.4602990000000 1.0
C      1  0.4302520000000  0.5280520000000  0.4603850000000 1.0
C      1  0.4245910000000  0.4995310000000  0.4580940000000 1.0
C      1  0.4463060000000  0.4476340000000  0.4577910000000 1.0
C      1  0.4702320000000  0.4311320000000  0.4578930000000 1.0
C      1  0.5264180000000  0.4292070000000  0.4585410000000 1.0
C      1  0.5511410000000  0.4449040000000  0.4605930000000 1.0
C      1  0.5795500000000  0.4875800000000  0.4577070000000 1.0
C      1  0.5671180000000  0.5361340000000  0.4632410000000 1.0
C      1  0.5492900000000  0.5591390000000  0.4617750000000 1.0
C      1  0.4965730000000  0.5759070000000  0.4630030000000 1.0
C      1  0.5367440000000  0.5314070000000  0.5689430000000 1.0
C      1  0.5139380000000  0.5468050000000  0.5688120000000 1.0
C      1  0.4839080000000  0.5476530000000  0.5680190000000 1.0
C      1  0.4598470000000  0.5339880000000  0.5678700000000 1.0
C      1  0.4467220000000  0.5070630000000  0.5669600000000 1.0
C      1  0.4542090000000  0.4799210000000  0.5665600000000 1.0
C      1  0.4815180000000  0.4745730000000  0.5736450000000 1.0
C      1  0.4967220000000  0.4512840000000  0.5666090000000 1.0
C      1  0.5246940000000  0.4544030000000  0.5670390000000 1.0
C      1  0.5449230000000  0.4765710000000  0.5678310000000 1.0
C      1  0.5487200000000  0.5038880000000  0.5676010000000 1.0
C      1  0.5010920000000  0.5003810000000  0.4437060000000 1.0
C      1  0.5011670000000  0.5007880000000  0.4188230000000 1.0
C      1  0.4964460000000  0.4968660000000  0.5670540000000 1.0
C      1  0.5029280000000  0.5029630000000  0.3939480000000 1.0
C      1  0.5061590000000  0.5110460000000  0.4919880000000 1.0
C      1  0.5008830000000  0.5008510000000  0.4695540000000 1.0
C      1  0.4993620000000  0.5013170000000  0.5411030000000 1.0
C      1  0.5049290000000  0.5098870000000  0.5184090000000 1.0
END
