TITL C-193870-2064-5 -39.3752046717493 125000 -680.463906829331 0 0 98 (C1) n - 1
REM
REM in /rds/project/t2_vol4/rds-t2-cs072/BORA/CARBON/from-Arr/AIRSS/Generating-Clusters/GAP-ML-2020/Higher-Symm/SD-CG/HFTN-CG
REM
REM
REM
REM
REM
REM ./C.cell (b20cbc046b6831c77cfcea5457e17084)
REM AIRSS Version 0.9.1 bugfix July 2018 build 013d7b7c2542+ Fri, 06 Jul 2018 19:26:36 +0100
REM compiler GCC version 9.3.0
REM options -cpp -mtune=generic -march=x86-64 -g -O0
REM seed -1590031887 -1116055140 323502233 -899244799 116176712 -457626216 119826221 -1204507394 315578950 -594296919 277955432 1960380999 -75708175 1702328016 -1647998083 1329357615 -1097463773 1692911360 172970052 2073749224 2064033800 1686561138 -1660139203 -1913464229 -13811692 1860674912 -1336347844 -353432845 -1181980376 1749868318 1355087363 -844198401 901328556
REM
CELL 1.54180   50.00000   50.00000   50.00000   90.00000   90.00000   90.00000
LATT -1
SFAC C  
C      1  0.5480230000000  0.5034930000000  0.5159660000000 1.0
C      1  0.4804950000000  0.4562500000000  0.5154170000000 1.0
C      1  0.4757460000000  0.5352970000000  0.5190710000000 1.0
C      1  0.4766090000000  0.4839460000000  0.5765650000000 1.0
C      1  0.4997000000000  0.5270830000000  0.5774000000000 1.0
C      1  0.5259760000000  0.4854230000000  0.5768120000000 1.0
C      1  0.4238330000000  0.4729720000000  0.5136810000000 1.0
C      1  0.5140080000000  0.5793320000000  0.5148910000000 1.0
C      1  0.5624300000000  0.4468620000000  0.5126720000000 1.0
C      1  0.4850560000000  0.4045260000000  0.5475570000000 1.0
C      1  0.4273500000000  0.5617830000000  0.5486100000000 1.0
C      1  0.5904250000000  0.5332580000000  0.5487290000000 1.0
C      1  0.5290760000000  0.5478630000000  0.4511010000000 1.0
C      1  0.5264820000000  0.4512020000000  0.4493690000000 1.0
C      1  0.4444110000000  0.5020780000000  0.4506240000000 1.0
C      1  0.4391430000000  0.4980170000000  0.5523650000000 1.0
C      1  0.5297820000000  0.5529380000000  0.5528730000000 1.0
C      1  0.5325000000000  0.4468820000000  0.5512210000000 1.0
C      1  0.5440630000000  0.4723030000000  0.5589870000000 1.0
C      1  0.4557960000000  0.4750730000000  0.5592450000000 1.0
C      1  0.5021430000000  0.5500980000000  0.5607410000000 1.0
C      1  0.5226060000000  0.5152410000000  0.5171610000000 1.0
C      1  0.5044240000000  0.4711030000000  0.5165380000000 1.0
C      1  0.4765800000000  0.5081770000000  0.5183930000000 1.0
C      1  0.5599310000000  0.5572980000000  0.5139690000000 1.0
C      1  0.5203060000000  0.4187260000000  0.5121400000000 1.0
C      1  0.4212580000000  0.5238290000000  0.5136710000000 1.0
C      1  0.4802400000000  0.4568390000000  0.4330540000000 1.0
C      1  0.4717380000000  0.5397890000000  0.4334810000000 1.0
C      1  0.5474890000000  0.5054780000000  0.4336510000000 1.0
C      1  0.4960190000000  0.5300770000000  0.4193230000000 1.0
C      1  0.5271190000000  0.4895140000000  0.4186840000000 1.0
C      1  0.4764920000000  0.4827710000000  0.4187710000000 1.0
C      1  0.4865380000000  0.5790180000000  0.5244390000000 1.0
C      1  0.5762390000000  0.4703660000000  0.5223190000000 1.0
C      1  0.4374150000000  0.4489920000000  0.5226630000000 1.0
C      1  0.5166160000000  0.5326560000000  0.4960650000000 1.0
C      1  0.5208780000000  0.4682350000000  0.4943590000000 1.0
C      1  0.4633180000000  0.4974820000000  0.4958440000000 1.0
C      1  0.5201120000000  0.5444040000000  0.4229080000000 1.0
C      1  0.5275010000000  0.4613360000000  0.4213670000000 1.0
C      1  0.4520250000000  0.4964710000000  0.4223190000000 1.0
C      1  0.4468620000000  0.4520300000000  0.4792120000000 1.0
C      1  0.4847040000000  0.5698160000000  0.4806750000000 1.0
C      1  0.5687500000000  0.4780580000000  0.4789120000000 1.0
C      1  0.4608730000000  0.4524670000000  0.5411890000000 1.0
C      1  0.4795290000000  0.5568790000000  0.5432540000000 1.0
C      1  0.5613710000000  0.4883460000000  0.5414630000000 1.0
C      1  0.5136030000000  0.4739890000000  0.4654230000000 1.0
C      1  0.4706870000000  0.5015660000000  0.4661920000000 1.0
C      1  0.5157460000000  0.5249620000000  0.4666270000000 1.0
C      1  0.5060350000000  0.4462300000000  0.4284030000000 1.0
C      1  0.4498470000000  0.5225150000000  0.4294850000000 1.0
C      1  0.5438460000000  0.5332200000000  0.4297760000000 1.0
C      1  0.5436970000000  0.5294930000000  0.5640420000000 1.0
C      1  0.5055590000000  0.4465080000000  0.5630270000000 1.0
C      1  0.4522700000000  0.5214170000000  0.5642720000000 1.0
C      1  0.4513790000000  0.5489770000000  0.5546880000000 1.0
C      1  0.5679810000000  0.5171130000000  0.5540040000000 1.0
C      1  0.4825360000000  0.4319460000000  0.5532070000000 1.0
C      1  0.5853920000000  0.4867750000000  0.5003410000000 1.0
C      1  0.4463800000000  0.4329880000000  0.5003300000000 1.0
C      1  0.4682070000000  0.5791420000000  0.5020360000000 1.0
C      1  0.4754370000000  0.5126140000000  0.5777990000000 1.0
C      1  0.5250890000000  0.5136720000000  0.5781270000000 1.0
C      1  0.5014840000000  0.4703760000000  0.5774940000000 1.0
C      1  0.4252220000000  0.5242280000000  0.4853700000000 1.0
C      1  0.5580760000000  0.5536010000000  0.4856230000000 1.0
C      1  0.5175350000000  0.4227350000000  0.4838630000000 1.0
C      1  0.5364430000000  0.5671980000000  0.4714530000000 1.0
C      1  0.5399220000000  0.4346750000000  0.4692560000000 1.0
C      1  0.4238130000000  0.4988900000000  0.4707320000000 1.0
C      1  0.4852570000000  0.5263080000000  0.4670380000000 1.0
C      1  0.5299570000000  0.4998030000000  0.4658980000000 1.0
C      1  0.4847790000000  0.4745050000000  0.4658160000000 1.0
C      1  0.4890110000000  0.4275750000000  0.4775900000000 1.0
C      1  0.4426880000000  0.5470460000000  0.4786100000000 1.0
C      1  0.5683050000000  0.5267250000000  0.4787040000000 1.0
C      1  0.4755990000000  0.4256750000000  0.5025760000000 1.0
C      1  0.4441790000000  0.5634290000000  0.5012810000000 1.0
C      1  0.5767850000000  0.5154860000000  0.5033420000000 1.0
C      1  0.4245600000000  0.4734980000000  0.4843860000000 1.0
C      1  0.5139210000000  0.5785890000000  0.4856320000000 1.0
C      1  0.5615630000000  0.4479030000000  0.4833010000000 1.0
C      1  0.5367200000000  0.5671890000000  0.5288170000000 1.0
C      1  0.5406950000000  0.4335020000000  0.5269020000000 1.0
C      1  0.4234310000000  0.4984880000000  0.5281990000000 1.0
C      1  0.4936790000000  0.4123630000000  0.5221850000000 1.0
C      1  0.4288850000000  0.5505200000000  0.5230580000000 1.0
C      1  0.5790020000000  0.5373290000000  0.5235620000000 1.0
C      1  0.4681400000000  0.5510310000000  0.4608680000000 1.0
C      1  0.5601130000000  0.5029150000000  0.4605550000000 1.0
C      1  0.4722550000000  0.4469980000000  0.4600490000000 1.0
C      1  0.5416050000000  0.4875330000000  0.4928950000000 1.0
C      1  0.4692110000000  0.4700780000000  0.4929030000000 1.0
C      1  0.4892720000000  0.5409290000000  0.4951760000000 1.0
C      1  0.5018660000000  0.4976770000000  0.5252260000000 1.0
C      1  0.4998940000000  0.5008160000000  0.4153760000000 1.0
END
