TITL C-19922-232-6 -0.00401902977811562 125000 -22.9478495034136 0 0 4 (D(inf)h) n - 1
REM
REM in /rds/project/t2_vol4/rds-t2-cs072/BORA/CARBON/from-Arr/AIRSS/Generating-Clusters/GAP-ML-2020/Higher-Symm/SD-CG/HFTN-CG
REM
REM
REM
REM
REM
REM ./C.cell (b20cbc046b6831c77cfcea5457e17084)
REM AIRSS Version 0.9.1 bugfix July 2018 build 013d7b7c2542+ Fri, 06 Jul 2018 19:26:36 +0100
REM compiler GCC version 9.3.0
REM options -cpp -mtune=generic -march=x86-64 -g -O0
REM seed -938825752 1491710460 -1321561158 1559916702 1668239024 -940750497 -1685203808 2129921907 413491682 -720837366 47978910 1611923157 1281081538 2060544302 -1025154470 638625224 1478756728 -1243108690 -2102178949 938526853 882677847 2041836061 -1626021573 -1758862933 1731308727 -1465944833 -239045006 -1143259567 -188564199 -782867499 -1640792449 189396105 1149538648
REM
CELL 1.54180   50.00000   50.00000   50.00000   90.00000   90.00000   90.00000
LATT -1
SFAC C  
C      1  0.5001020000000  0.4955910000000  0.5127230000000 1.0
C      1  0.4997050000000  0.5127250000000  0.4632800000000 1.0
C      1  0.5002950000000  0.4872750000000  0.5367200000000 1.0
C      1  0.4998980000000  0.5044090000000  0.4872770000000 1.0
END
