TITL C-19932-9185-4 -204.776943739396 125000 -404.761957157403 0 0 59 (C1) n - 1
REM
REM in /rds/project/t2_vol4/rds-t2-cs072/BORA/CARBON/from-Arr/AIRSS/Generating-Clusters/GAP-ML-2020/Higher-Symm/SD-CG/HFTN-CG
REM
REM
REM
REM
REM
REM ./C.cell (b20cbc046b6831c77cfcea5457e17084)
REM AIRSS Version 0.9.1 bugfix July 2018 build 013d7b7c2542+ Fri, 06 Jul 2018 19:26:36 +0100
REM compiler GCC version 9.3.0
REM options -cpp -mtune=generic -march=x86-64 -g -O0
REM seed 1523421139 -1167238297 -565369377 931843139 236555807 -927523523 876006560 -1872102018 -1147003494 1089291875 510218550 2052642480 855910314 1889261472 666217500 -1595588688 -153247876 409818946 -96228173 -571202476 -71745736 -1909017261 556140130 1013290330 465912877 278395101 -1331941042 985517199 1852188973 993139935 -2106701158 -1693356531 -1275307106
REM
CELL 1.54180   50.00000   50.00000   50.00000   90.00000   90.00000   90.00000
LATT -1
SFAC C  
C      1  0.5496260000000  0.4982510000000  0.4167310000000 1.0
C      1  0.4944600000000  0.4957380000000  0.4255290000000 1.0
C      1  0.4659510000000  0.4953550000000  0.4289470000000 1.0
C      1  0.4209640000000  0.4951870000000  0.4793080000000 1.0
C      1  0.4197940000000  0.4953700000000  0.5079970000000 1.0
C      1  0.4469760000000  0.5033340000000  0.5680580000000 1.0
C      1  0.4736840000000  0.4984790000000  0.5770510000000 1.0
C      1  0.5389660000000  0.5004410000000  0.5765380000000 1.0
C      1  0.5584350000000  0.4957190000000  0.5559110000000 1.0
C      1  0.5824850000000  0.4998040000000  0.4947660000000 1.0
C      1  0.5696320000000  0.4968330000000  0.4695950000000 1.0
C      1  0.5346500000000  0.4555320000000  0.5622040000000 1.0
C      1  0.5673950000000  0.4596200000000  0.5216670000000 1.0
C      1  0.5711400000000  0.4545310000000  0.4919840000000 1.0
C      1  0.5465570000000  0.4569610000000  0.4480010000000 1.0
C      1  0.5318040000000  0.4625040000000  0.4258550000000 1.0
C      1  0.4798170000000  0.4515900000000  0.4216060000000 1.0
C      1  0.4361040000000  0.4607340000000  0.4469200000000 1.0
C      1  0.4188760000000  0.4507420000000  0.4942050000000 1.0
C      1  0.4327440000000  0.4614320000000  0.5431560000000 1.0
C      1  0.4550520000000  0.4573210000000  0.5634670000000 1.0
C      1  0.5066630000000  0.4611480000000  0.5722160000000 1.0
C      1  0.5032770000000  0.4681700000000  0.4221800000000 1.0
C      1  0.4570040000000  0.4670650000000  0.4304130000000 1.0
C      1  0.4229130000000  0.4667230000000  0.4700930000000 1.0
C      1  0.4218720000000  0.4669380000000  0.5172720000000 1.0
C      1  0.4345110000000  0.4773520000000  0.5650280000000 1.0
C      1  0.4794010000000  0.4695520000000  0.5721650000000 1.0
C      1  0.5279270000000  0.4743900000000  0.5825920000000 1.0
C      1  0.5549750000000  0.4673510000000  0.5461640000000 1.0
C      1  0.5856010000000  0.4735260000000  0.5065190000000 1.0
C      1  0.5625530000000  0.4678390000000  0.4668240000000 1.0
C      1  0.5516730000000  0.4752520000000  0.4056250000000 1.0
C      1  0.5427990000000  0.5388810000000  0.5325870000000 1.0
C      1  0.5538240000000  0.5390030000000  0.5047670000000 1.0
C      1  0.5436740000000  0.5385990000000  0.4782860000000 1.0
C      1  0.5154880000000  0.5432420000000  0.4765600000000 1.0
C      1  0.4991630000000  0.5356640000000  0.4542340000000 1.0
C      1  0.4715970000000  0.5344590000000  0.4582050000000 1.0
C      1  0.4530080000000  0.5350420000000  0.4813130000000 1.0
C      1  0.4514790000000  0.5355540000000  0.5088300000000 1.0
C      1  0.4654000000000  0.5386220000000  0.5353030000000 1.0
C      1  0.4895820000000  0.5387450000000  0.5491240000000 1.0
C      1  0.5196720000000  0.5395030000000  0.5481620000000 1.0
C      1  0.5104080000000  0.5171580000000  0.4357360000000 1.0
C      1  0.4545930000000  0.5147840000000  0.4448720000000 1.0
C      1  0.4361400000000  0.5148130000000  0.4672070000000 1.0
C      1  0.4319080000000  0.5169920000000  0.5210240000000 1.0
C      1  0.4440180000000  0.5208850000000  0.5469820000000 1.0
C      1  0.4915890000000  0.5196150000000  0.5723270000000 1.0
C      1  0.5202530000000  0.5204910000000  0.5714080000000 1.0
C      1  0.5633870000000  0.5177260000000  0.5392870000000 1.0
C      1  0.5739840000000  0.5193160000000  0.5122630000000 1.0
C      1  0.5537880000000  0.5186840000000  0.4597100000000 1.0
C      1  0.5391010000000  0.5153690000000  0.4354490000000 1.0
C      1  0.4958790000000  0.4866760000000  0.4979960000000 1.0
C      1  0.4929710000000  0.4607540000000  0.4952130000000 1.0
C      1  0.5033070000000  0.5371570000000  0.5006240000000 1.0
C      1  0.5009140000000  0.5105900000000  0.5058410000000 1.0
END
