TITL C-19533-9530-9 -0.0576760182862164 125000 -465.414307079257 0 0 70 (C1) n - 1
REM
REM in /rds/project/t2_vol4/rds-t2-cs072/BORA/CARBON/from-Arr/AIRSS/Generating-Clusters/GAP-ML-2020/Higher-Symm/SD-CG/HFTN-CG
REM
REM
REM
REM
REM
REM ./C.cell (b20cbc046b6831c77cfcea5457e17084)
REM AIRSS Version 0.9.1 bugfix July 2018 build 013d7b7c2542+ Fri, 06 Jul 2018 19:26:36 +0100
REM compiler GCC version 9.3.0
REM options -cpp -mtune=generic -march=x86-64 -g -O0
REM seed 981667698 872143926 -912165726 2140732844 2026608973 -1084197198 -910935417 -333223127 -1955363351 -2055696812 1679683858 1739528854 -288599989 52067851 369522674 690957019 -363310723 725601033 -1707681388 837674015 -559333032 -1184024667 1575728746 -2134526876 968060336 -420784279 -738332078 -301723429 -1755414920 987481096 100673952 -1903060260 -1757751113
REM
CELL 1.54180   50.00000   50.00000   50.00000   90.00000   90.00000   90.00000
LATT -1
SFAC C  
C      1  0.5377970000000  0.5094970000000  0.5591510000000 1.0
C      1  0.5293890000000  0.5549930000000  0.5312050000000 1.0
C      1  0.5322430000000  0.5587690000000  0.4730480000000 1.0
C      1  0.5297050000000  0.5162460000000  0.4362760000000 1.0
C      1  0.5289090000000  0.4612450000000  0.4480520000000 1.0
C      1  0.5304200000000  0.4364150000000  0.4992400000000 1.0
C      1  0.5289340000000  0.4651190000000  0.5482020000000 1.0
C      1  0.4834970000000  0.4783050000000  0.4808070000000 1.0
C      1  0.4835540000000  0.4701130000000  0.5059460000000 1.0
C      1  0.4837370000000  0.4849820000000  0.5278200000000 1.0
C      1  0.4834270000000  0.5110800000000  0.5280440000000 1.0
C      1  0.4898950000000  0.5296000000000  0.5100090000000 1.0
C      1  0.4906560000000  0.5264200000000  0.4837420000000 1.0
C      1  0.4840890000000  0.5032480000000  0.4721970000000 1.0
C      1  0.5418500000000  0.4780020000000  0.4699940000000 1.0
C      1  0.5425040000000  0.4640100000000  0.4978550000000 1.0
C      1  0.5432420000000  0.4772590000000  0.5252290000000 1.0
C      1  0.5445230000000  0.5067850000000  0.5312240000000 1.0
C      1  0.5438570000000  0.5320890000000  0.5153720000000 1.0
C      1  0.5434050000000  0.5328450000000  0.4838950000000 1.0
C      1  0.5420810000000  0.5085880000000  0.4634480000000 1.0
C      1  0.4428790000000  0.5042700000000  0.4538660000000 1.0
C      1  0.4474410000000  0.4549850000000  0.4577860000000 1.0
C      1  0.4426810000000  0.4494710000000  0.5074500000000 1.0
C      1  0.4455590000000  0.4688570000000  0.5536410000000 1.0
C      1  0.4392990000000  0.5172950000000  0.5419480000000 1.0
C      1  0.4487180000000  0.5535080000000  0.5071880000000 1.0
C      1  0.4493630000000  0.5494350000000  0.4779810000000 1.0
C      1  0.4321440000000  0.4629650000000  0.5303650000000 1.0
C      1  0.4307030000000  0.4898780000000  0.5430210000000 1.0
C      1  0.4323320000000  0.5329940000000  0.5189140000000 1.0
C      1  0.4228020000000  0.5230740000000  0.4951590000000 1.0
C      1  0.4342350000000  0.5262170000000  0.4705260000000 1.0
C      1  0.4330100000000  0.4783280000000  0.4606930000000 1.0
C      1  0.4333890000000  0.4554650000000  0.4812850000000 1.0
C      1  0.4667910000000  0.5221350000000  0.5517820000000 1.0
C      1  0.4754910000000  0.5568960000000  0.5165390000000 1.0
C      1  0.4764100000000  0.5502060000000  0.4694080000000 1.0
C      1  0.4716300000000  0.5057580000000  0.4452550000000 1.0
C      1  0.4756870000000  0.4580320000000  0.4603260000000 1.0
C      1  0.4719590000000  0.4433670000000  0.5097400000000 1.0
C      1  0.4737240000000  0.4713620000000  0.5532870000000 1.0
C      1  0.5767930000000  0.5049930000000  0.5290000000000 1.0
C      1  0.5749610000000  0.5275850000000  0.5133310000000 1.0
C      1  0.5739420000000  0.5273140000000  0.4853800000000 1.0
C      1  0.5734590000000  0.5062940000000  0.4675510000000 1.0
C      1  0.5736270000000  0.4792350000000  0.4731380000000 1.0
C      1  0.5745640000000  0.4669990000000  0.4978750000000 1.0
C      1  0.5762340000000  0.4780990000000  0.5232020000000 1.0
C      1  0.4845090000000  0.4345350000000  0.4821420000000 1.0
C      1  0.4836790000000  0.4444880000000  0.5405960000000 1.0
C      1  0.4775470000000  0.4994930000000  0.5697170000000 1.0
C      1  0.4810090000000  0.5498830000000  0.5466950000000 1.0
C      1  0.4887400000000  0.5691080000000  0.4910070000000 1.0
C      1  0.4831140000000  0.5344860000000  0.4423590000000 1.0
C      1  0.4838270000000  0.4778940000000  0.4374070000000 1.0
C      1  0.5105790000000  0.5382290000000  0.4370780000000 1.0
C      1  0.5108670000000  0.4766030000000  0.4295950000000 1.0
C      1  0.5117680000000  0.4291640000000  0.4781320000000 1.0
C      1  0.5115070000000  0.4414140000000  0.5423880000000 1.0
C      1  0.5035280000000  0.5027450000000  0.5775130000000 1.0
C      1  0.5089410000000  0.5471340000000  0.5518810000000 1.0
C      1  0.5161270000000  0.5741080000000  0.4922060000000 1.0
C      1  0.5207740000000  0.4261040000000  0.5224180000000 1.0
C      1  0.5250990000000  0.4851430000000  0.5678720000000 1.0
C      1  0.5171800000000  0.5270630000000  0.5691280000000 1.0
C      1  0.5259360000000  0.5785110000000  0.5176260000000 1.0
C      1  0.5226590000000  0.5602100000000  0.4476010000000 1.0
C      1  0.5224290000000  0.4979390000000  0.4168990000000 1.0
C      1  0.5226400000000  0.4351200000000  0.4533460000000 1.0
END
