TITL C-193861-2065-8 0.652224224696118 125000 -1192.08789670179 0 0 175 (D5) n - 1
REM
REM in /rds/project/t2_vol4/rds-t2-cs072/BORA/CARBON/from-Arr/AIRSS/Generating-Clusters/GAP-ML-2020/Higher-Symm/SD-CG/HFTN-CG
REM
REM
REM
REM
REM
REM ./C.cell (b20cbc046b6831c77cfcea5457e17084)
REM AIRSS Version 0.9.1 bugfix July 2018 build 013d7b7c2542+ Fri, 06 Jul 2018 19:26:36 +0100
REM compiler GCC version 9.3.0
REM options -cpp -mtune=generic -march=x86-64 -g -O0
REM seed 1603361981 802632987 -2038993421 824640391 -1097921984 -1630813346 1890974998 837009320 -933797513 1715334890 1275279805 1256683475 324904469 240481249 1992180104 2139268216 356518253 -1384236026 -1317153246 127623726 -2073293248 -1153643314 -1096146589 1418435944 1794107072 -313137119 -232395136 -981778167 -1023365699 -2144979442 613330115 -481312699 -1284265667
REM
CELL 1.54180   50.00000   50.00000   50.00000   90.00000   90.00000   90.00000
LATT -1
SFAC C  
C      1  0.5314000000000  0.5036840000000  0.4402550000000 1.0
C      1  0.5314020000000  0.5579580000000  0.4850420000000 1.0
C      1  0.5314020000000  0.5321350000000  0.5505010000000 1.0
C      1  0.5313990000000  0.4619000000000  0.5461680000000 1.0
C      1  0.5313980000000  0.4443170000000  0.4780330000000 1.0
C      1  0.4684240000000  0.4963130000000  0.4402560000000 1.0
C      1  0.4684230000000  0.4420410000000  0.4850460000000 1.0
C      1  0.4684240000000  0.4678680000000  0.5505030000000 1.0
C      1  0.4684270000000  0.5381020000000  0.5461670000000 1.0
C      1  0.4684270000000  0.5556820000000  0.4780310000000 1.0
C      1  0.5383100000000  0.5419160000000  0.4043630000000 1.0
C      1  0.5383130000000  0.6039080000000  0.5103120000000 1.0
C      1  0.5383110000000  0.5223000000000  0.6020100000000 1.0
C      1  0.5383070000000  0.4098730000000  0.5527330000000 1.0
C      1  0.5383060000000  0.4219960000000  0.4305800000000 1.0
C      1  0.4615130000000  0.4580800000000  0.4043660000000 1.0
C      1  0.4615120000000  0.3960930000000  0.5103180000000 1.0
C      1  0.4615160000000  0.4777040000000  0.6020110000000 1.0
C      1  0.4615200000000  0.5901300000000  0.5527290000000 1.0
C      1  0.4615180000000  0.5780010000000  0.4305780000000 1.0
C      1  0.4696440000000  0.6039770000000  0.4763770000000 1.0
C      1  0.4696440000000  0.5545990000000  0.5915880000000 1.0
C      1  0.4696390000000  0.4297680000000  0.5802280000000 1.0
C      1  0.4696370000000  0.4019970000000  0.4579970000000 1.0
C      1  0.4696400000000  0.5096640000000  0.3938130000000 1.0
C      1  0.5301800000000  0.3960220000000  0.4763800000000 1.0
C      1  0.5301830000000  0.4454050000000  0.5915890000000 1.0
C      1  0.5301880000000  0.5702350000000  0.5802240000000 1.0
C      1  0.5301880000000  0.5980010000000  0.4579920000000 1.0
C      1  0.5301830000000  0.4903310000000  0.3938130000000 1.0
C      1  0.4924050000000  0.6198030000000  0.5187520000000 1.0
C      1  0.4924030000000  0.5191880000000  0.6197340000000 1.0
C      1  0.4923970000000  0.3920560000000  0.5552480000000 1.0
C      1  0.4923970000000  0.4141000000000  0.4144120000000 1.0
C      1  0.4924020000000  0.5548550000000  0.3918560000000 1.0
C      1  0.5074200000000  0.3801980000000  0.5187570000000 1.0
C      1  0.5074250000000  0.4808180000000  0.6197340000000 1.0
C      1  0.5074290000000  0.6079460000000  0.5552430000000 1.0
C      1  0.5074270000000  0.5858960000000  0.4144080000000 1.0
C      1  0.5074210000000  0.4451400000000  0.3918580000000 1.0
C      1  0.5087260000000  0.5884700000000  0.5752750000000 1.0
C      1  0.5087210000000  0.4557480000000  0.6074010000000 1.0
C      1  0.5087180000000  0.3841800000000  0.4911030000000 1.0
C      1  0.5087200000000  0.4726710000000  0.3871000000000 1.0
C      1  0.5087250000000  0.5989290000000  0.4391210000000 1.0
C      1  0.4911010000000  0.4115340000000  0.5752790000000 1.0
C      1  0.4911060000000  0.5442570000000  0.6073990000000 1.0
C      1  0.4911070000000  0.6158190000000  0.4910980000000 1.0
C      1  0.4911030000000  0.5273240000000  0.3870990000000 1.0
C      1  0.4910990000000  0.4010680000000  0.4391260000000 1.0
C      1  0.5625190000000  0.4321760000000  0.5110920000000 1.0
C      1  0.5625200000000  0.4684900000000  0.4389250000000 1.0
C      1  0.5625230000000  0.5483470000000  0.4511610000000 1.0
C      1  0.5625240000000  0.5613860000000  0.5308900000000 1.0
C      1  0.5625220000000  0.4895890000000  0.5679290000000 1.0
C      1  0.4373060000000  0.5678240000000  0.5110900000000 1.0
C      1  0.4373040000000  0.5315070000000  0.4389250000000 1.0
C      1  0.4373010000000  0.4516510000000  0.4511640000000 1.0
C      1  0.4373020000000  0.4386150000000  0.5308940000000 1.0
C      1  0.4373050000000  0.5104140000000  0.5679300000000 1.0
C      1  0.4207680000000  0.5266220000000  0.5477520000000 1.0
C      1  0.4207660000000  0.4628140000000  0.5400730000000 1.0
C      1  0.4207650000000  0.4504000000000  0.4770150000000 1.0
C      1  0.4207670000000  0.5065350000000  0.4457230000000 1.0
C      1  0.4207690000000  0.5536430000000  0.4894410000000 1.0
C      1  0.5790580000000  0.4733800000000  0.5477520000000 1.0
C      1  0.5790600000000  0.5371880000000  0.5400700000000 1.0
C      1  0.5790600000000  0.5495990000000  0.4770110000000 1.0
C      1  0.5790580000000  0.4934620000000  0.4457210000000 1.0
C      1  0.5790560000000  0.4463560000000  0.4894410000000 1.0
C      1  0.4776870000000  0.4657270000000  0.4694810000000 1.0
C      1  0.4776890000000  0.5184350000000  0.4579730000000 1.0
C      1  0.4776910000000  0.5456670000000  0.5045450000000 1.0
C      1  0.4776900000000  0.5097900000000  0.5448360000000 1.0
C      1  0.4776880000000  0.4603850000000  0.5231660000000 1.0
C      1  0.5221370000000  0.5342710000000  0.4694790000000 1.0
C      1  0.5221350000000  0.4815630000000  0.4579740000000 1.0
C      1  0.5221350000000  0.4543330000000  0.5045470000000 1.0
C      1  0.5221360000000  0.4902120000000  0.5448360000000 1.0
C      1  0.5221380000000  0.5396160000000  0.5231630000000 1.0
C      1  0.4799760000000  0.3851430000000  0.5296660000000 1.0
C      1  0.4799770000000  0.4362930000000  0.3999310000000 1.0
C      1  0.4799820000000  0.5754850000000  0.4084880000000 1.0
C      1  0.4799840000000  0.6103600000000  0.5435110000000 1.0
C      1  0.4799810000000  0.4927220000000  0.6184040000000 1.0
C      1  0.5198500000000  0.6148580000000  0.5296610000000 1.0
C      1  0.5198470000000  0.5637020000000  0.3999280000000 1.0
C      1  0.5198420000000  0.4245110000000  0.4084910000000 1.0
C      1  0.5198420000000  0.3896420000000  0.5435160000000 1.0
C      1  0.5198470000000  0.5072830000000  0.6184030000000 1.0
C      1  0.5490960000000  0.5742910000000  0.4642490000000 1.0
C      1  0.5490970000000  0.5569570000000  0.5596080000000 1.0
C      1  0.5490930000000  0.4609080000000  0.5725910000000 1.0
C      1  0.5490910000000  0.4188800000000  0.4852550000000 1.0
C      1  0.5490930000000  0.4889550000000  0.4182950000000 1.0
C      1  0.4507280000000  0.4257080000000  0.4642530000000 1.0
C      1  0.4507300000000  0.4430460000000  0.5596120000000 1.0
C      1  0.4507330000000  0.5390950000000  0.5725900000000 1.0
C      1  0.4507340000000  0.5811190000000  0.4852520000000 1.0
C      1  0.4507310000000  0.5110420000000  0.4182960000000 1.0
C      1  0.5706560000000  0.5089540000000  0.4221020000000 1.0
C      1  0.5706590000000  0.5768490000000  0.4844460000000 1.0
C      1  0.5706590000000  0.5385380000000  0.5682840000000 1.0
C      1  0.5706550000000  0.4469650000000  0.5577550000000 1.0
C      1  0.5706530000000  0.4286810000000  0.4674100000000 1.0
C      1  0.4291680000000  0.4910430000000  0.4221040000000 1.0
C      1  0.4291660000000  0.4231500000000  0.4844510000000 1.0
C      1  0.4291680000000  0.4614650000000  0.5682870000000 1.0
C      1  0.4291710000000  0.5530380000000  0.5577540000000 1.0
C      1  0.4291710000000  0.5713180000000  0.4674080000000 1.0
C      1  0.5613440000000  0.4381040000000  0.4406800000000 1.0
C      1  0.5613480000000  0.5372870000000  0.4228040000000 1.0
C      1  0.5613510000000  0.5849380000000  0.5116090000000 1.0
C      1  0.5613490000000  0.5152040000000  0.5843700000000 1.0
C      1  0.5613450000000  0.4244550000000  0.5405340000000 1.0
C      1  0.4384800000000  0.5618940000000  0.4406790000000 1.0
C      1  0.4384760000000  0.4627090000000  0.4228070000000 1.0
C      1  0.4384750000000  0.4150620000000  0.5116140000000 1.0
C      1  0.4384780000000  0.4848000000000  0.5843720000000 1.0
C      1  0.4384810000000  0.5755460000000  0.5405310000000 1.0
C      1  0.4296390000000  0.4960090000000  0.4736830000000 1.0
C      1  0.4296400000000  0.5237980000000  0.4880700000000 1.0
C      1  0.4296400000000  0.5187020000000  0.5189450000000 1.0
C      1  0.4296390000000  0.4877640000000  0.5236390000000 1.0
C      1  0.4296380000000  0.4737390000000  0.4956660000000 1.0
C      1  0.5701860000000  0.5039890000000  0.4736810000000 1.0
C      1  0.5701850000000  0.4762010000000  0.4880700000000 1.0
C      1  0.5701850000000  0.4812990000000  0.5189440000000 1.0
C      1  0.5701870000000  0.5122370000000  0.5236370000000 1.0
C      1  0.5701870000000  0.5262610000000  0.4956630000000 1.0
C      1  0.4923310000000  0.5112570000000  0.5705040000000 1.0
C      1  0.4923280000000  0.4364260000000  0.5324930000000 1.0
C      1  0.4923270000000  0.4494520000000  0.4495780000000 1.0
C      1  0.4923300000000  0.5323340000000  0.4363450000000 1.0
C      1  0.4923330000000  0.5705320000000  0.5110810000000 1.0
C      1  0.5074960000000  0.4887460000000  0.5705040000000 1.0
C      1  0.5074980000000  0.5635750000000  0.5324900000000 1.0
C      1  0.5074970000000  0.5505450000000  0.4495760000000 1.0
C      1  0.5074940000000  0.4676630000000  0.4363460000000 1.0
C      1  0.5074930000000  0.4294690000000  0.5110840000000 1.0
C      1  0.4912830000000  0.4877470000000  0.4235010000000 1.0
C      1  0.4912860000000  0.5689680000000  0.4647070000000 1.0
C      1  0.4912860000000  0.5548780000000  0.5546860000000 1.0
C      1  0.4912830000000  0.4649490000000  0.5690910000000 1.0
C      1  0.4912810000000  0.4234590000000  0.4880150000000 1.0
C      1  0.5085410000000  0.5122500000000  0.4235010000000 1.0
C      1  0.5085380000000  0.4310300000000  0.4647100000000 1.0
C      1  0.5085400000000  0.4451240000000  0.5546890000000 1.0
C      1  0.5085430000000  0.5350540000000  0.5690900000000 1.0
C      1  0.5085440000000  0.5765400000000  0.4880110000000 1.0
C      1  0.4534620000000  0.5419460000000  0.5204550000000 1.0
C      1  0.4534600000000  0.4935090000000  0.5462120000000 1.0
C      1  0.4534590000000  0.4540450000000  0.5081060000000 1.0
C      1  0.4534590000000  0.4780920000000  0.4587980000000 1.0
C      1  0.4534610000000  0.5324170000000  0.4664300000000 1.0
C      1  0.5463640000000  0.4580550000000  0.5204560000000 1.0
C      1  0.5463660000000  0.5064930000000  0.5462110000000 1.0
C      1  0.5463670000000  0.5459550000000  0.5081030000000 1.0
C      1  0.5463650000000  0.5219070000000  0.4587960000000 1.0
C      1  0.5463630000000  0.4675820000000  0.4664310000000 1.0
C      1  0.4799310000000  0.5926190000000  0.4507820000000 1.0
C      1  0.4799320000000  0.5754310000000  0.5728770000000 1.0
C      1  0.4799270000000  0.4540000000000  0.5942580000000 1.0
C      1  0.4799240000000  0.3961410000000  0.4853790000000 1.0
C      1  0.4799260000000  0.4818120000000  0.3967050000000 1.0
C      1  0.5198930000000  0.4073780000000  0.4507860000000 1.0
C      1  0.5198950000000  0.4245720000000  0.5728790000000 1.0
C      1  0.5199000000000  0.5460040000000  0.5942560000000 1.0
C      1  0.5199010000000  0.6038580000000  0.4853740000000 1.0
C      1  0.5198970000000  0.5181830000000  0.3967040000000 1.0
C      1  0.4999130000000  0.5150560000000  0.4792770000000 1.0
C      1  0.4999120000000  0.4849440000000  0.4792780000000 1.0
C      1  0.4999120000000  0.4756390000000  0.5079160000000 1.0
C      1  0.4999130000000  0.5000010000000  0.5256150000000 1.0
C      1  0.4999140000000  0.5243610000000  0.5079150000000 1.0
END
