TITL C-199741-9765-1 0.00530969001358749 125000 -26.2679892553711 0 0 5 (C2v) n - 1
REM
REM in /rds/project/t2_vol4/rds-t2-cs072/BORA/CARBON/from-Arr/AIRSS/Generating-Clusters/GAP-ML-2020/Higher-Symm/SD-CG/HFTN-CG
REM
REM
REM
REM
REM
REM ./C.cell (b20cbc046b6831c77cfcea5457e17084)
REM AIRSS Version 0.9.1 bugfix July 2018 build 013d7b7c2542+ Fri, 06 Jul 2018 19:26:36 +0100
REM compiler GCC version 9.3.0
REM options -cpp -mtune=generic -march=x86-64 -g -O0
REM seed 438330823 2122272722 1073533162 1813106060 -1170451634 -2055324254 2578968 1145507473 -539305626 -132572310 -680083629 522608450 1563181341 1318961517 -1763874732 983215422 1867931438 -1378027735 762695909 752609440 -1312929253 727143 -1190368722 -985781518 1251340257 -1945790900 -963731723 1476852244 -531954296 -1900199217 1982742513 497106155 1098307873
REM
CELL 1.54180   50.00000   50.00000   50.00000   90.00000   90.00000   90.00000
LATT -1
SFAC C  
C      1  0.4999970000000  0.5000000000000  0.4705970000000 1.0
C      1  0.4859120000000  0.5000000000000  0.5215820000000 1.0
C      1  0.5153640000000  0.5000000000000  0.4931190000000 1.0
C      1  0.4846350000000  0.5000000000000  0.4931220000000 1.0
C      1  0.5140920000000  0.5000000000000  0.5215790000000 1.0
END
