TITL C-19918-421-13 -0.17762207960308 125000 -477.831848374177 0 0 71 (C1) n - 1
REM
REM in /rds/project/t2_vol4/rds-t2-cs072/BORA/CARBON/from-Arr/AIRSS/Generating-Clusters/GAP-ML-2020/Higher-Symm/SD-CG/HFTN-CG
REM
REM
REM
REM
REM
REM ./C.cell (b20cbc046b6831c77cfcea5457e17084)
REM AIRSS Version 0.9.1 bugfix July 2018 build 013d7b7c2542+ Fri, 06 Jul 2018 19:26:36 +0100
REM compiler GCC version 9.3.0
REM options -cpp -mtune=generic -march=x86-64 -g -O0
REM seed -570444493 145222274 -2041608482 -1804548702 1403658148 -987319935 -516654405 -444499516 -177269895 -539528924 1179643496 1853699329 -1714755534 808649181 -886143130 -1524947711 39351966 -1159126743 1427829965 -1051677211 -1318648389 2075392308 451576590 121192569 1263432759 -1453973967 -1170012617 -2023240994 760064307 -1876496868 2127491732 -1618066320 -109673717
REM
CELL 1.54180   50.00000   50.00000   50.00000   90.00000   90.00000   90.00000
LATT -1
SFAC C  
C      1  0.4760510000000  0.5629350000000  0.5385320000000 1.0
C      1  0.5233600000000  0.4355430000000  0.4589760000000 1.0
C      1  0.4735460000000  0.4244840000000  0.5101880000000 1.0
C      1  0.5277270000000  0.5786110000000  0.4903010000000 1.0
C      1  0.4281640000000  0.4811160000000  0.4986410000000 1.0
C      1  0.5626350000000  0.5170890000000  0.5022920000000 1.0
C      1  0.4422040000000  0.4587540000000  0.4878290000000 1.0
C      1  0.5561270000000  0.5422310000000  0.5133500000000 1.0
C      1  0.4963070000000  0.5146620000000  0.5218150000000 1.0
C      1  0.5080050000000  0.4838540000000  0.4789030000000 1.0
C      1  0.5014080000000  0.4373640000000  0.5091080000000 1.0
C      1  0.4991990000000  0.5683700000000  0.4900500000000 1.0
C      1  0.4588830000000  0.4652790000000  0.4655640000000 1.0
C      1  0.5417230000000  0.5392440000000  0.5374840000000 1.0
C      1  0.5182880000000  0.5312440000000  0.4607530000000 1.0
C      1  0.4807430000000  0.4707400000000  0.5412630000000 1.0
C      1  0.4783640000000  0.5306620000000  0.5032950000000 1.0
C      1  0.5297450000000  0.4627520000000  0.4825390000000 1.0
C      1  0.4582340000000  0.5420640000000  0.5467680000000 1.0
C      1  0.5411920000000  0.4584960000000  0.4534680000000 1.0
C      1  0.5225470000000  0.5944480000000  0.4663260000000 1.0
C      1  0.4804760000000  0.4072460000000  0.5325740000000 1.0
C      1  0.5038510000000  0.4905900000000  0.5696830000000 1.0
C      1  0.4955800000000  0.5114050000000  0.4322630000000 1.0
C      1  0.4463120000000  0.5336450000000  0.4527040000000 1.0
C      1  0.5548460000000  0.4692390000000  0.5459410000000 1.0
C      1  0.5522910000000  0.4961830000000  0.5405240000000 1.0
C      1  0.4412030000000  0.5061420000000  0.4579810000000 1.0
C      1  0.5452450000000  0.4957390000000  0.5114500000000 1.0
C      1  0.4343610000000  0.5050300000000  0.4855720000000 1.0
C      1  0.5152900000000  0.5014350000000  0.4548160000000 1.0
C      1  0.4842640000000  0.5004400000000  0.5474030000000 1.0
C      1  0.4693710000000  0.5489500000000  0.4604870000000 1.0
C      1  0.5318550000000  0.4537370000000  0.5389380000000 1.0
C      1  0.4988630000000  0.4468490000000  0.4480430000000 1.0
C      1  0.5004400000000  0.5547780000000  0.5520220000000 1.0
C      1  0.5135410000000  0.4404300000000  0.5573890000000 1.0
C      1  0.4874710000000  0.5622370000000  0.4419260000000 1.0
C      1  0.5468340000000  0.5577730000000  0.4913690000000 1.0
C      1  0.4529570000000  0.4438190000000  0.5099350000000 1.0
C      1  0.5248850000000  0.4781000000000  0.4377020000000 1.0
C      1  0.4736760000000  0.5239450000000  0.5629850000000 1.0
C      1  0.4795370000000  0.4887420000000  0.4289860000000 1.0
C      1  0.5187850000000  0.5146510000000  0.5732220000000 1.0
C      1  0.5637970000000  0.4693860000000  0.4693080000000 1.0
C      1  0.4397100000000  0.5297410000000  0.5289300000000 1.0
C      1  0.4553910000000  0.4850930000000  0.4456350000000 1.0
C      1  0.5422640000000  0.5175380000000  0.5557310000000 1.0
C      1  0.5032280000000  0.5385570000000  0.4351100000000 1.0
C      1  0.4970000000000  0.4631240000000  0.5660570000000 1.0
C      1  0.4304460000000  0.5059320000000  0.5388240000000 1.0
C      1  0.5701950000000  0.4948590000000  0.4609000000000 1.0
C      1  0.4472080000000  0.5282050000000  0.4993390000000 1.0
C      1  0.5534560000000  0.4691610000000  0.4988120000000 1.0
C      1  0.4793260000000  0.5634260000000  0.5111760000000 1.0
C      1  0.5203910000000  0.4347580000000  0.4873320000000 1.0
C      1  0.4997440000000  0.4672140000000  0.4294120000000 1.0
C      1  0.4986150000000  0.5356040000000  0.5716630000000 1.0
C      1  0.4867990000000  0.4626800000000  0.4690090000000 1.0
C      1  0.5143280000000  0.5396260000000  0.5324640000000 1.0
C      1  0.4935460000000  0.5400820000000  0.4790370000000 1.0
C      1  0.5051520000000  0.4657680000000  0.5220920000000 1.0
C      1  0.5571740000000  0.4534690000000  0.5229870000000 1.0
C      1  0.4446530000000  0.5480040000000  0.4760720000000 1.0
C      1  0.4542620000000  0.4622200000000  0.5319480000000 1.0
C      1  0.5450290000000  0.5391040000000  0.4696200000000 1.0
C      1  0.4999260000000  0.5803710000000  0.4609490000000 1.0
C      1  0.5013460000000  0.4232280000000  0.5384350000000 1.0
C      1  0.5653190000000  0.5180700000000  0.4736130000000 1.0
C      1  0.4334430000000  0.4821240000000  0.5269960000000 1.0
C      1  0.5111050000000  0.4928180000000  0.5072050000000 1.0
END
