TITL C-199727-9395-7 43.5989761203547 125000 -787.243010617575 0 0 113 (C1) n - 1
REM
REM in /rds/project/t2_vol4/rds-t2-cs072/BORA/CARBON/from-Arr/AIRSS/Generating-Clusters/GAP-ML-2020/Higher-Symm/SD-CG/HFTN-CG
REM
REM
REM
REM
REM
REM ./C.cell (b20cbc046b6831c77cfcea5457e17084)
REM AIRSS Version 0.9.1 bugfix July 2018 build 013d7b7c2542+ Fri, 06 Jul 2018 19:26:36 +0100
REM compiler GCC version 9.3.0
REM options -cpp -mtune=generic -march=x86-64 -g -O0
REM seed 342029498 1039470390 707481412 754824905 1331121164 -693830430 1938975256 -991920860 -619526301 -1301973992 1438481835 1685875645 -1702168822 -584347470 1887912820 1625834951 220055844 1813465046 995788444 680331480 -2106295451 -1236330957 453354338 651268764 107284361 1652306114 -996580213 -1164155316 -1918265492 955559448 1072120244 1250923180 1883475682
REM
CELL 1.54180   50.00000   50.00000   50.00000   90.00000   90.00000   90.00000
LATT -1
SFAC C  
C      1  0.5835690000000  0.5255270000000  0.4698700000000 1.0
C      1  0.5183110000000  0.5060610000000  0.4893950000000 1.0
C      1  0.5414390000000  0.4669250000000  0.4968100000000 1.0
C      1  0.5165290000000  0.4499580000000  0.5590450000000 1.0
C      1  0.5039280000000  0.5146590000000  0.4415890000000 1.0
C      1  0.4460270000000  0.4279090000000  0.4851750000000 1.0
C      1  0.4792470000000  0.5354040000000  0.4841660000000 1.0
C      1  0.4689410000000  0.4952790000000  0.5076570000000 1.0
C      1  0.5895590000000  0.5081930000000  0.4931560000000 1.0
C      1  0.4379720000000  0.4383510000000  0.5107170000000 1.0
C      1  0.4248660000000  0.4681890000000  0.5446060000000 1.0
C      1  0.5125780000000  0.5526510000000  0.5473060000000 1.0
C      1  0.5367150000000  0.4301760000000  0.4646860000000 1.0
C      1  0.4798110000000  0.5251270000000  0.5739130000000 1.0
C      1  0.5026800000000  0.5409400000000  0.5222610000000 1.0
C      1  0.5070020000000  0.5234140000000  0.5623900000000 1.0
C      1  0.4304220000000  0.5301220000000  0.5046220000000 1.0
C      1  0.5132460000000  0.4085430000000  0.5022550000000 1.0
C      1  0.4708140000000  0.5796610000000  0.5445310000000 1.0
C      1  0.4846330000000  0.5603390000000  0.4406840000000 1.0
C      1  0.4588290000000  0.5337290000000  0.5548490000000 1.0
C      1  0.5732000000000  0.4865320000000  0.4355010000000 1.0
C      1  0.5788050000000  0.5157580000000  0.5182080000000 1.0
C      1  0.4880310000000  0.5356970000000  0.4271600000000 1.0
C      1  0.5517210000000  0.4910530000000  0.4175670000000 1.0
C      1  0.4747820000000  0.5322960000000  0.5295580000000 1.0
C      1  0.4768470000000  0.4852650000000  0.4115260000000 1.0
C      1  0.4911340000000  0.4857200000000  0.5239280000000 1.0
C      1  0.5882790000000  0.4567410000000  0.5020810000000 1.0
C      1  0.4195120000000  0.4591720000000  0.5182470000000 1.0
C      1  0.5329370000000  0.4537900000000  0.4450840000000 1.0
C      1  0.5732920000000  0.5508910000000  0.4794460000000 1.0
C      1  0.4171470000000  0.5067040000000  0.5184690000000 1.0
C      1  0.5024710000000  0.4849140000000  0.4280090000000 1.0
C      1  0.5621610000000  0.5467450000000  0.5513600000000 1.0
C      1  0.4892680000000  0.4678480000000  0.4741600000000 1.0
C      1  0.5428680000000  0.4577140000000  0.5483270000000 1.0
C      1  0.4959000000000  0.4543370000000  0.4971540000000 1.0
C      1  0.5288890000000  0.5211260000000  0.5825640000000 1.0
C      1  0.4763780000000  0.4757910000000  0.5841160000000 1.0
C      1  0.4588170000000  0.4393030000000  0.5323160000000 1.0
C      1  0.5714040000000  0.4358180000000  0.5081280000000 1.0
C      1  0.5283850000000  0.4890700000000  0.5845930000000 1.0
C      1  0.4588710000000  0.5649600000000  0.4543760000000 1.0
C      1  0.4456050000000  0.5776040000000  0.5027250000000 1.0
C      1  0.4152620000000  0.4555750000000  0.4623010000000 1.0
C      1  0.4307640000000  0.5267170000000  0.4741460000000 1.0
C      1  0.5271660000000  0.4190810000000  0.5261400000000 1.0
C      1  0.4453380000000  0.4517930000000  0.5561170000000 1.0
C      1  0.4176570000000  0.4791200000000  0.4759220000000 1.0
C      1  0.4424140000000  0.5101260000000  0.5629090000000 1.0
C      1  0.5319110000000  0.5537830000000  0.4509580000000 1.0
C      1  0.5492900000000  0.5723310000000  0.5151420000000 1.0
C      1  0.4639840000000  0.5012140000000  0.5796390000000 1.0
C      1  0.4386330000000  0.4981290000000  0.4671440000000 1.0
C      1  0.5149950000000  0.4143800000000  0.4734700000000 1.0
C      1  0.5583810000000  0.4686590000000  0.4524840000000 1.0
C      1  0.4499700000000  0.5591680000000  0.5434320000000 1.0
C      1  0.4886390000000  0.4171900000000  0.4631000000000 1.0
C      1  0.5803800000000  0.5416350000000  0.5290590000000 1.0
C      1  0.4967250000000  0.5536570000000  0.4966390000000 1.0
C      1  0.5246650000000  0.5201850000000  0.5143790000000 1.0
C      1  0.4545040000000  0.4740750000000  0.4267090000000 1.0
C      1  0.4694480000000  0.5900990000000  0.5181120000000 1.0
C      1  0.5570090000000  0.4818900000000  0.4772580000000 1.0
C      1  0.4404430000000  0.4963540000000  0.4379520000000 1.0
C      1  0.4588020000000  0.5809000000000  0.4774990000000 1.0
C      1  0.4701150000000  0.4128630000000  0.4847150000000 1.0
C      1  0.5780240000000  0.5138030000000  0.4443040000000 1.0
C      1  0.4830110000000  0.4374100000000  0.4433850000000 1.0
C      1  0.5409810000000  0.5081560000000  0.4720750000000 1.0
C      1  0.4377990000000  0.4403710000000  0.4596840000000 1.0
C      1  0.4829110000000  0.5907740000000  0.4921710000000 1.0
C      1  0.4715070000000  0.5048820000000  0.3931330000000 1.0
C      1  0.5733960000000  0.5584600000000  0.5073760000000 1.0
C      1  0.4243630000000  0.4970650000000  0.5453040000000 1.0
C      1  0.5556890000000  0.5261310000000  0.5699010000000 1.0
C      1  0.5076660000000  0.5778070000000  0.4827270000000 1.0
C      1  0.4409250000000  0.5418700000000  0.4521240000000 1.0
C      1  0.4947460000000  0.5730000000000  0.5602070000000 1.0
C      1  0.5516610000000  0.4329480000000  0.5315250000000 1.0
C      1  0.5860590000000  0.4803570000000  0.4889260000000 1.0
C      1  0.5468420000000  0.4755910000000  0.5236770000000 1.0
C      1  0.5027140000000  0.4961520000000  0.5496280000000 1.0
C      1  0.4810660000000  0.4196640000000  0.5332480000000 1.0
C      1  0.5298060000000  0.4740470000000  0.4212480000000 1.0
C      1  0.4346370000000  0.5573960000000  0.5181810000000 1.0
C      1  0.5044810000000  0.4747260000000  0.5726340000000 1.0
C      1  0.4446360000000  0.5232420000000  0.4299960000000 1.0
C      1  0.5186320000000  0.5463100000000  0.5969250000000 1.0
C      1  0.5512390000000  0.4391310000000  0.4877120000000 1.0
C      1  0.5613070000000  0.5018200000000  0.5581930000000 1.0
C      1  0.5499670000000  0.5639140000000  0.4701560000000 1.0
C      1  0.5078590000000  0.5682370000000  0.4540370000000 1.0
C      1  0.4575690000000  0.4561790000000  0.5802430000000 1.0
C      1  0.4670380000000  0.5240300000000  0.4119290000000 1.0
C      1  0.5326600000000  0.5246400000000  0.4460320000000 1.0
C      1  0.5361230000000  0.5780520000000  0.4906570000000 1.0
C      1  0.4119120000000  0.4827670000000  0.5033770000000 1.0
C      1  0.4855370000000  0.4075420000000  0.5082510000000 1.0
C      1  0.5068910000000  0.4269830000000  0.5446280000000 1.0
C      1  0.4617700000000  0.5237930000000  0.5064710000000 1.0
C      1  0.5048330000000  0.5657550000000  0.5858040000000 1.0
C      1  0.4713400000000  0.4905320000000  0.4782250000000 1.0
C      1  0.5542380000000  0.5181560000000  0.4272990000000 1.0
C      1  0.5015740000000  0.4608420000000  0.4476890000000 1.0
C      1  0.4568370000000  0.4482370000000  0.4392310000000 1.0
C      1  0.4920700000000  0.5125760000000  0.4718420000000 1.0
C      1  0.5410410000000  0.5623570000000  0.5415720000000 1.0
C      1  0.5528110000000  0.5035470000000  0.5280470000000 1.0
C      1  0.4791250000000  0.4592750000000  0.5202050000000 1.0
C      1  0.5502570000000  0.4791290000000  0.5699660000000 1.0
C      1  0.5141320000000  0.4774110000000  0.5005360000000 1.0
END
