TITL C-193880-2069-5 0.140016987126985 125000 -182.149362479454 0 0 28 (C1) n - 1
REM
REM in /rds/project/t2_vol4/rds-t2-cs072/BORA/CARBON/from-Arr/AIRSS/Generating-Clusters/GAP-ML-2020/Higher-Symm/SD-CG/HFTN-CG
REM
REM
REM
REM
REM
REM ./C.cell (b20cbc046b6831c77cfcea5457e17084)
REM AIRSS Version 0.9.1 bugfix July 2018 build 013d7b7c2542+ Fri, 06 Jul 2018 19:26:36 +0100
REM compiler GCC version 9.3.0
REM options -cpp -mtune=generic -march=x86-64 -g -O0
REM seed 807571615 -1650889026 -665385507 282794243 -647532906 940093574 -1384131115 -222527185 -160737872 -1306754214 -1417206411 1045638949 -230346088 -388662243 -1029618645 -1082548073 949054661 1682062697 -1579742359 1415825693 -690547225 1236083020 765481707 975659222 304472892 737317841 552863505 -881841107 1292205464 1964853933 -2146799310 -1399082833 -715568849
REM
CELL 1.54180   50.00000   50.00000   50.00000   90.00000   90.00000   90.00000
LATT -1
SFAC C  
C      1  0.4704560000000  0.4852030000000  0.5304620000000 1.0
C      1  0.4951050000000  0.4782270000000  0.5398730000000 1.0
C      1  0.5001720000000  0.4572130000000  0.4720840000000 1.0
C      1  0.4752640000000  0.5556250000000  0.5122970000000 1.0
C      1  0.4656740000000  0.5105740000000  0.5175140000000 1.0
C      1  0.4398720000000  0.5031010000000  0.4720030000000 1.0
C      1  0.4669670000000  0.5428060000000  0.4863040000000 1.0
C      1  0.4920240000000  0.5097290000000  0.5049830000000 1.0
C      1  0.4904190000000  0.5074970000000  0.4605630000000 1.0
C      1  0.5544000000000  0.4628490000000  0.4735350000000 1.0
C      1  0.5564790000000  0.5086060000000  0.4931080000000 1.0
C      1  0.5209990000000  0.4866190000000  0.5318350000000 1.0
C      1  0.5170490000000  0.5438290000000  0.4902230000000 1.0
C      1  0.4881750000000  0.4800000000000  0.4605290000000 1.0
C      1  0.5163570000000  0.5126530000000  0.5219340000000 1.0
C      1  0.5294460000000  0.4529210000000  0.4755350000000 1.0
C      1  0.5030100000000  0.5351980000000  0.5350850000000 1.0
C      1  0.4505370000000  0.5182970000000  0.4920820000000 1.0
C      1  0.5354110000000  0.5232470000000  0.4998700000000 1.0
C      1  0.5553260000000  0.4812260000000  0.4955750000000 1.0
C      1  0.4742010000000  0.5348050000000  0.5322290000000 1.0
C      1  0.4960280000000  0.4495830000000  0.5006940000000 1.0
C      1  0.5247400000000  0.4470850000000  0.5046570000000 1.0
C      1  0.4930510000000  0.5292500000000  0.4804510000000 1.0
C      1  0.5377170000000  0.4692630000000  0.5175710000000 1.0
C      1  0.4823130000000  0.4617780000000  0.5214260000000 1.0
C      1  0.4646580000000  0.4959520000000  0.4630550000000 1.0
C      1  0.5041500000000  0.5568640000000  0.5145210000000 1.0
END
