TITL C-193866-2085-2 0.0419047676954776 125000 -354.577727611041 0 0 58 (T23) n - 1
REM
REM in /rds/project/t2_vol4/rds-t2-cs072/BORA/CARBON/from-Arr/AIRSS/Generating-Clusters/GAP-ML-2020/Higher-Symm/SD-CG/HFTN-CG
REM
REM
REM
REM
REM
REM ./C.cell (b20cbc046b6831c77cfcea5457e17084)
REM AIRSS Version 0.9.1 bugfix July 2018 build 013d7b7c2542+ Fri, 06 Jul 2018 19:26:36 +0100
REM compiler GCC version 9.3.0
REM options -cpp -mtune=generic -march=x86-64 -g -O0
REM seed -1548293733 971248835 250822991 -1618767575 661483203 944311355 965998050 -149885205 1389343312 -1415036949 -60591670 -942724398 -1196470522 1357978660 -1707996204 -1276575073 1882688369 -349847829 566648838 262484164 1890455036 1399869637 -2023170618 -1767502537 633283470 -81295770 -408238412 2027942259 -337109929 2109880064 -298748742 -1554223774 388960105
REM
CELL 1.54180   50.00000   50.00000   50.00000   90.00000   90.00000   90.00000
LATT -1
SFAC C  
C      1  0.5198270000000  0.5214380000000  0.5576950000000 1.0
C      1  0.5596960000000  0.5195800000000  0.5196710000000 1.0
C      1  0.5216780000000  0.5594540000000  0.5178190000000 1.0
C      1  0.5198070000000  0.4810350000000  0.4412590000000 1.0
C      1  0.4831460000000  0.4810330000000  0.5577020000000 1.0
C      1  0.4831220000000  0.5214360000000  0.4412660000000 1.0
C      1  0.5596900000000  0.4828970000000  0.4792680000000 1.0
C      1  0.4432620000000  0.4828910000000  0.5196940000000 1.0
C      1  0.4432530000000  0.5195750000000  0.4792910000000 1.0
C      1  0.5216760000000  0.4430190000000  0.4811350000000 1.0
C      1  0.4812800000000  0.4430170000000  0.5178260000000 1.0
C      1  0.4812680000000  0.5594530000000  0.4811430000000 1.0
C      1  0.5196080000000  0.4478080000000  0.5483130000000 1.0
C      1  0.5503000000000  0.5193580000000  0.4460430000000 1.0
C      1  0.4480480000000  0.5500690000000  0.5176110000000 1.0
C      1  0.5195840000000  0.5546650000000  0.4506420000000 1.0
C      1  0.4833620000000  0.5546630000000  0.5483200000000 1.0
C      1  0.4833480000000  0.4478070000000  0.4506480000000 1.0
C      1  0.5503220000000  0.4831180000000  0.5529000000000 1.0
C      1  0.4526300000000  0.4831130000000  0.4460620000000 1.0
C      1  0.4526490000000  0.5193530000000  0.5529190000000 1.0
C      1  0.4480460000000  0.4523970000000  0.4813710000000 1.0
C      1  0.5549090000000  0.4524020000000  0.5175910000000 1.0
C      1  0.5548980000000  0.5500740000000  0.4813500000000 1.0
C      1  0.5013180000000  0.5223300000000  0.4788550000000 1.0
C      1  0.4808540000000  0.5010820000000  0.5205790000000 1.0
C      1  0.5225710000000  0.4806110000000  0.4993240000000 1.0
C      1  0.5013280000000  0.4801410000000  0.5201070000000 1.0
C      1  0.5016250000000  0.4801410000000  0.4788550000000 1.0
C      1  0.5016310000000  0.5223300000000  0.5201070000000 1.0
C      1  0.4808460000000  0.5013880000000  0.4783910000000 1.0
C      1  0.5221050000000  0.5013890000000  0.5205710000000 1.0
C      1  0.5220970000000  0.5010840000000  0.4783830000000 1.0
C      1  0.5225690000000  0.5218620000000  0.4996300000000 1.0
C      1  0.4803800000000  0.5218600000000  0.4993320000000 1.0
C      1  0.4803820000000  0.4806090000000  0.4996380000000 1.0
C      1  0.4955300000000  0.4591270000000  0.5398640000000 1.0
C      1  0.5418500000000  0.4952820000000  0.4573650000000 1.0
C      1  0.4593640000000  0.5416160000000  0.4935340000000 1.0
C      1  0.4955100000000  0.5433440000000  0.4591000000000 1.0
C      1  0.5074370000000  0.5433440000000  0.5398620000000 1.0
C      1  0.5074250000000  0.4591280000000  0.4590980000000 1.0
C      1  0.5418650000000  0.5071930000000  0.5415820000000 1.0
C      1  0.4610850000000  0.5071890000000  0.4573800000000 1.0
C      1  0.4611020000000  0.4952780000000  0.5415970000000 1.0
C      1  0.4593700000000  0.4608520000000  0.5054440000000 1.0
C      1  0.5435850000000  0.4608560000000  0.4935170000000 1.0
C      1  0.5435830000000  0.5416200000000  0.5054280000000 1.0
C      1  0.5014880000000  0.5012350000000  0.5651130000000 1.0
C      1  0.5014630000000  0.5012360000000  0.4338480000000 1.0
C      1  0.5671080000000  0.5012390000000  0.4994680000000 1.0
C      1  0.5014720000000  0.5668680000000  0.4994810000000 1.0
C      1  0.4358430000000  0.5012330000000  0.4994930000000 1.0
C      1  0.5014780000000  0.4356030000000  0.4994810000000 1.0
C      1  0.5431950000000  0.4595280000000  0.5411820000000 1.0
C      1  0.4597720000000  0.5429430000000  0.5411980000000 1.0
C      1  0.5431750000000  0.5429470000000  0.4577640000000 1.0
C      1  0.4597600000000  0.4595240000000  0.4577790000000 1.0
END
