TITL C-193855-2059-7 -50.9334001269006 125000 -997.421794123867 0 0 147 (C1) n - 1
REM
REM in /rds/project/t2_vol4/rds-t2-cs072/BORA/CARBON/from-Arr/AIRSS/Generating-Clusters/GAP-ML-2020/Higher-Symm/SD-CG/HFTN-CG
REM
REM
REM
REM
REM
REM ./C.cell (b20cbc046b6831c77cfcea5457e17084)
REM AIRSS Version 0.9.1 bugfix July 2018 build 013d7b7c2542+ Fri, 06 Jul 2018 19:26:36 +0100
REM compiler GCC version 9.3.0
REM options -cpp -mtune=generic -march=x86-64 -g -O0
REM seed 177787804 1123173490 -1214124049 714288271 89052469 62983146 2057065272 -1290461527 739920148 -43688564 1299071056 -1649831186 -2011000324 -328817825 121990362 409546887 -446516622 1552077690 340243470 -2004828214 -251515037 -687409185 -563172073 -1067677864 -1046662574 15233306 -1377085401 921439313 -1895861920 1662984880 1960230312 -157937940 -1643197958
REM
CELL 1.54180   50.00000   50.00000   50.00000   90.00000   90.00000   90.00000
LATT -1
SFAC C  
C      1  0.4924870000000  0.5819150000000  0.4527910000000 1.0
C      1  0.5387700000000  0.5786360000000  0.4792180000000 1.0
C      1  0.5299910000000  0.5786570000000  0.5316800000000 1.0
C      1  0.4793360000000  0.5786990000000  0.5394210000000 1.0
C      1  0.4544090000000  0.5808190000000  0.4934520000000 1.0
C      1  0.5446010000000  0.5675130000000  0.5553190000000 1.0
C      1  0.4615280000000  0.5678360000000  0.5604300000000 1.0
C      1  0.4297760000000  0.5677610000000  0.4835810000000 1.0
C      1  0.4825060000000  0.5759860000000  0.4268100000000 1.0
C      1  0.5656460000000  0.5673880000000  0.4750100000000 1.0
C      1  0.5237200000000  0.4282000000000  0.5060990000000 1.0
C      1  0.5053190000000  0.4271590000000  0.5310120000000 1.0
C      1  0.4748600000000  0.4264700000000  0.5206670000000 1.0
C      1  0.4745120000000  0.4266310000000  0.4889730000000 1.0
C      1  0.5038770000000  0.4310800000000  0.4824160000000 1.0
C      1  0.5985310000000  0.4967130000000  0.5456910000000 1.0
C      1  0.4877200000000  0.4980920000000  0.6094520000000 1.0
C      1  0.3972730000000  0.4953230000000  0.5219390000000 1.0
C      1  0.4478340000000  0.4958090000000  0.4076560000000 1.0
C      1  0.5711750000000  0.4927430000000  0.4240520000000 1.0
C      1  0.4810930000000  0.5038680000000  0.4701430000000 1.0
C      1  0.5242070000000  0.4958890000000  0.4869840000000 1.0
C      1  0.5227000000000  0.4897400000000  0.5178190000000 1.0
C      1  0.4944190000000  0.4867590000000  0.5272430000000 1.0
C      1  0.4814250000000  0.4749320000000  0.5056450000000 1.0
C      1  0.5686390000000  0.5520680000000  0.5027720000000 1.0
C      1  0.5198400000000  0.5509230000000  0.5660840000000 1.0
C      1  0.4445160000000  0.5510570000000  0.5396040000000 1.0
C      1  0.4442550000000  0.5517780000000  0.4595480000000 1.0
C      1  0.5283270000000  0.5505730000000  0.4338270000000 1.0
C      1  0.4880080000000  0.4548150000000  0.6006930000000 1.0
C      1  0.4023930000000  0.4511660000000  0.5212640000000 1.0
C      1  0.4525070000000  0.4509020000000  0.4156100000000 1.0
C      1  0.5761940000000  0.4481850000000  0.4265730000000 1.0
C      1  0.5882630000000  0.4530600000000  0.5414300000000 1.0
C      1  0.5467200000000  0.4819600000000  0.5721610000000 1.0
C      1  0.4483560000000  0.4827170000000  0.5666140000000 1.0
C      1  0.4214970000000  0.4811950000000  0.4718970000000 1.0
C      1  0.5032640000000  0.4851250000000  0.4109170000000 1.0
C      1  0.5763330000000  0.4804590000000  0.4782160000000 1.0
C      1  0.4173510000000  0.4401890000000  0.5003610000000 1.0
C      1  0.4794590000000  0.4469620000000  0.4264230000000 1.0
C      1  0.5699920000000  0.4393710000000  0.4521730000000 1.0
C      1  0.5653870000000  0.4409810000000  0.5506400000000 1.0
C      1  0.4723800000000  0.4422620000000  0.5816240000000 1.0
C      1  0.4120130000000  0.5238470000000  0.4841770000000 1.0
C      1  0.4856500000000  0.5279420000000  0.4105020000000 1.0
C      1  0.5796880000000  0.5231420000000  0.4633030000000 1.0
C      1  0.5625810000000  0.5248200000000  0.5680200000000 1.0
C      1  0.4568430000000  0.5251780000000  0.5797700000000 1.0
C      1  0.5522630000000  0.4343840000000  0.4289250000000 1.0
C      1  0.5725460000000  0.4364600000000  0.5238880000000 1.0
C      1  0.4998670000000  0.4371990000000  0.5820690000000 1.0
C      1  0.4252580000000  0.4358020000000  0.5270850000000 1.0
C      1  0.4535390000000  0.4336250000000  0.4373800000000 1.0
C      1  0.6085060000000  0.4713080000000  0.5462570000000 1.0
C      1  0.4896720000000  0.4735170000000  0.6212350000000 1.0
C      1  0.3848650000000  0.4715180000000  0.5284470000000 1.0
C      1  0.4396920000000  0.4703800000000  0.4009760000000 1.0
C      1  0.5809860000000  0.4709030000000  0.4106130000000 1.0
C      1  0.4744010000000  0.6034410000000  0.4960480000000 1.0
C      1  0.4956740000000  0.6032660000000  0.4753650000000 1.0
C      1  0.5211370000000  0.6011160000000  0.4889090000000 1.0
C      1  0.5161200000000  0.6009740000000  0.5176210000000 1.0
C      1  0.4875620000000  0.6018760000000  0.5220330000000 1.0
C      1  0.5206480000000  0.5668060000000  0.4569300000000 1.0
C      1  0.5408330000000  0.5631860000000  0.5086390000000 1.0
C      1  0.5047030000000  0.5622790000000  0.5420340000000 1.0
C      1  0.4609660000000  0.5637940000000  0.5182340000000 1.0
C      1  0.4694480000000  0.5672760000000  0.4688920000000 1.0
C      1  0.4255530000000  0.4910270000000  0.5877580000000 1.0
C      1  0.3936230000000  0.4889350000000  0.4584060000000 1.0
C      1  0.5065730000000  0.4979680000000  0.3823440000000 1.0
C      1  0.6064490000000  0.4870190000000  0.4732410000000 1.0
C      1  0.5605310000000  0.4903150000000  0.5996470000000 1.0
C      1  0.5239260000000  0.5035840000000  0.4273600000000 1.0
C      1  0.5739920000000  0.5012190000000  0.5030080000000 1.0
C      1  0.5219920000000  0.5017440000000  0.5757120000000 1.0
C      1  0.4401610000000  0.5016490000000  0.5424440000000 1.0
C      1  0.4394920000000  0.4996100000000  0.4537850000000 1.0
C      1  0.5819230000000  0.5430120000000  0.5281670000000 1.0
C      1  0.4997750000000  0.5432530000000  0.5872040000000 1.0
C      1  0.4187150000000  0.5418150000000  0.5273070000000 1.0
C      1  0.4458650000000  0.5425280000000  0.4310140000000 1.0
C      1  0.5538690000000  0.5408410000000  0.4311060000000 1.0
C      1  0.4714350000000  0.4986620000000  0.5826140000000 1.0
C      1  0.4167370000000  0.4971400000000  0.4984050000000 1.0
C      1  0.4759010000000  0.4988170000000  0.4187930000000 1.0
C      1  0.5662960000000  0.4959460000000  0.4541160000000 1.0
C      1  0.5689740000000  0.4976050000000  0.5546940000000 1.0
C      1  0.5501010000000  0.4450040000000  0.5049710000000 1.0
C      1  0.5122330000000  0.4451790000000  0.5555990000000 1.0
C      1  0.4534640000000  0.4448830000000  0.5314930000000 1.0
C      1  0.4570530000000  0.4416270000000  0.4665020000000 1.0
C      1  0.5281070000000  0.4472790000000  0.4304920000000 1.0
C      1  0.4719020000000  0.5510220000000  0.5818290000000 1.0
C      1  0.4141450000000  0.5495370000000  0.4995670000000 1.0
C      1  0.4695480000000  0.5529880000000  0.4179870000000 1.0
C      1  0.5710290000000  0.5494390000000  0.4526810000000 1.0
C      1  0.5680370000000  0.5505310000000  0.5529350000000 1.0
C      1  0.4128630000000  0.5152340000000  0.5368530000000 1.0
C      1  0.4367510000000  0.5149060000000  0.4273380000000 1.0
C      1  0.5514090000000  0.5138770000000  0.4198090000000 1.0
C      1  0.5933550000000  0.5164360000000  0.5239120000000 1.0
C      1  0.5072530000000  0.5174590000000  0.5986760000000 1.0
C      1  0.4781260000000  0.4600470000000  0.4534080000000 1.0
C      1  0.5312220000000  0.4620550000000  0.4563310000000 1.0
C      1  0.5426750000000  0.4684850000000  0.5245180000000 1.0
C      1  0.4921820000000  0.4687450000000  0.5514800000000 1.0
C      1  0.4537060000000  0.4675050000000  0.5078520000000 1.0
C      1  0.4949590000000  0.4952540000000  0.5648740000000 1.0
C      1  0.4444070000000  0.4952460000000  0.5115630000000 1.0
C      1  0.4678770000000  0.4890650000000  0.4484240000000 1.0
C      1  0.5356960000000  0.4912600000000  0.4557990000000 1.0
C      1  0.5583170000000  0.4939570000000  0.5271090000000 1.0
C      1  0.5313480000000  0.5241760000000  0.4864060000000 1.0
C      1  0.5360590000000  0.5142800000000  0.5310310000000 1.0
C      1  0.4865610000000  0.5136010000000  0.5414140000000 1.0
C      1  0.4607550000000  0.5160260000000  0.4930630000000 1.0
C      1  0.4941520000000  0.5261880000000  0.4565000000000 1.0
C      1  0.4889100000000  0.5516260000000  0.4835410000000 1.0
C      1  0.5123930000000  0.5414410000000  0.4716100000000 1.0
C      1  0.5264090000000  0.5350520000000  0.5131610000000 1.0
C      1  0.4987650000000  0.5359790000000  0.5255300000000 1.0
C      1  0.4764410000000  0.5394820000000  0.5057800000000 1.0
C      1  0.4395770000000  0.5243550000000  0.4720500000000 1.0
C      1  0.5077840000000  0.5278660000000  0.4302580000000 1.0
C      1  0.5639650000000  0.5252970000000  0.4884510000000 1.0
C      1  0.5336850000000  0.5237550000000  0.5606700000000 1.0
C      1  0.4571250000000  0.5239740000000  0.5493960000000 1.0
C      1  0.4950450000000  0.5204560000000  0.3818020000000 1.0
C      1  0.6085180000000  0.5114560000000  0.4677570000000 1.0
C      1  0.5676850000000  0.5144850000000  0.5962750000000 1.0
C      1  0.4310930000000  0.5148980000000  0.5941120000000 1.0
C      1  0.3892970000000  0.5128050000000  0.4654090000000 1.0
C      1  0.4782920000000  0.3955270000000  0.5181700000000 1.0
C      1  0.4782160000000  0.3966930000000  0.4889670000000 1.0
C      1  0.5058890000000  0.4002240000000  0.4782490000000 1.0
C      1  0.5225850000000  0.3972210000000  0.5028540000000 1.0
C      1  0.5054550000000  0.3955120000000  0.5269680000000 1.0
C      1  0.5406590000000  0.4569250000000  0.5542420000000 1.0
C      1  0.4628680000000  0.4576350000000  0.5576770000000 1.0
C      1  0.4356040000000  0.4555840000000  0.4829720000000 1.0
C      1  0.5051450000000  0.4550710000000  0.4155580000000 1.0
C      1  0.5584260000000  0.4539420000000  0.4756050000000 1.0
C      1  0.4974890000000  0.4828010000000  0.4831530000000 1.0
C      1  0.5039770000000  0.4577590000000  0.4682220000000 1.0
END
