TITL C-19530-8887-3 0.047227761794484 125000 -279.59328243891 0 0 41 (C1) n - 1
REM
REM in /rds/project/t2_vol4/rds-t2-cs072/BORA/CARBON/from-Arr/AIRSS/Generating-Clusters/GAP-ML-2020/Higher-Symm/SD-CG/HFTN-CG
REM
REM
REM
REM
REM
REM ./C.cell (b20cbc046b6831c77cfcea5457e17084)
REM AIRSS Version 0.9.1 bugfix July 2018 build 013d7b7c2542+ Fri, 06 Jul 2018 19:26:36 +0100
REM compiler GCC version 9.3.0
REM options -cpp -mtune=generic -march=x86-64 -g -O0
REM seed -1495928284 94440021 839056510 388017696 -95294058 -1266566904 318251412 -971586044 1877577294 249124041 644242820 -1154282601 1978730918 -362757097 -718639310 -1199926121 -1543813682 880300253 -924096161 -207789035 -1228477482 977699749 116935898 573735561 1967146370 -1025532257 1926357271 -1833900549 -1883064852 365648166 1335067976 -297091288 -1916117470
REM
CELL 1.54180   50.00000   50.00000   50.00000   90.00000   90.00000   90.00000
LATT -1
SFAC C  
C      1  0.4726660000000  0.4724260000000  0.5467150000000 1.0
C      1  0.4572670000000  0.4689060000000  0.4748380000000 1.0
C      1  0.5272020000000  0.4719640000000  0.4518250000000 1.0
C      1  0.5374590000000  0.4690980000000  0.5216020000000 1.0
C      1  0.4704320000000  0.5241070000000  0.5528620000000 1.0
C      1  0.4572910000000  0.5367680000000  0.4811570000000 1.0
C      1  0.5278470000000  0.5321400000000  0.4493550000000 1.0
C      1  0.5380110000000  0.5339140000000  0.5212560000000 1.0
C      1  0.4607460000000  0.4692720000000  0.5212620000000 1.0
C      1  0.4734630000000  0.4721770000000  0.4512910000000 1.0
C      1  0.5430310000000  0.4690010000000  0.4752470000000 1.0
C      1  0.5247600000000  0.4729920000000  0.5471550000000 1.0
C      1  0.4543150000000  0.5308440000000  0.5303870000000 1.0
C      1  0.4755960000000  0.5348650000000  0.4568430000000 1.0
C      1  0.5451530000000  0.5339640000000  0.4722380000000 1.0
C      1  0.5228260000000  0.5271360000000  0.5464190000000 1.0
C      1  0.4401920000000  0.4890660000000  0.5125520000000 1.0
C      1  0.4630230000000  0.4909120000000  0.4327350000000 1.0
C      1  0.5601300000000  0.4897360000000  0.4855380000000 1.0
C      1  0.5427220000000  0.4847680000000  0.5656700000000 1.0
C      1  0.4334210000000  0.5115890000000  0.5257980000000 1.0
C      1  0.4571100000000  0.5140140000000  0.4451330000000 1.0
C      1  0.5644430000000  0.5134360000000  0.4733510000000 1.0
C      1  0.5447760000000  0.5091230000000  0.5548960000000 1.0
C      1  0.5264080000000  0.4594950000000  0.4972240000000 1.0
C      1  0.4988510000000  0.4840460000000  0.5501020000000 1.0
C      1  0.4730060000000  0.4597390000000  0.4970410000000 1.0
C      1  0.5000360000000  0.4644700000000  0.4591370000000 1.0
C      1  0.5364860000000  0.5446510000000  0.4969490000000 1.0
C      1  0.4977650000000  0.5142590000000  0.5516950000000 1.0
C      1  0.4610720000000  0.5441030000000  0.5065240000000 1.0
C      1  0.5015160000000  0.5358500000000  0.4535200000000 1.0
C      1  0.5578020000000  0.4887710000000  0.5142940000000 1.0
C      1  0.4564390000000  0.4861250000000  0.5651760000000 1.0
C      1  0.4399160000000  0.4897340000000  0.4836990000000 1.0
C      1  0.5361940000000  0.4903880000000  0.4331840000000 1.0
C      1  0.5585910000000  0.5130520000000  0.5297260000000 1.0
C      1  0.4552840000000  0.5104480000000  0.5733050000000 1.0
C      1  0.4408220000000  0.5146540000000  0.4698610000000 1.0
C      1  0.5386520000000  0.5148970000000  0.4278140000000 1.0
C      1  0.4997840000000  0.4563620000000  0.4872110000000 1.0
END
