TITL C-193871-2137-7 -0.0124077924154579 125000 -247.968583051293 0 0 38 (C1) n - 1
REM
REM in /rds/project/t2_vol4/rds-t2-cs072/BORA/CARBON/from-Arr/AIRSS/Generating-Clusters/GAP-ML-2020/Higher-Symm/SD-CG/HFTN-CG
REM
REM
REM
REM
REM
REM ./C.cell (b20cbc046b6831c77cfcea5457e17084)
REM AIRSS Version 0.9.1 bugfix July 2018 build 013d7b7c2542+ Fri, 06 Jul 2018 19:26:36 +0100
REM compiler GCC version 9.3.0
REM options -cpp -mtune=generic -march=x86-64 -g -O0
REM seed -631941238 2110928526 -1926261399 -1532462949 -496870121 -414192500 1435347047 -162620018 -845358493 1632422747 -809047536 -105640151 976614152 984853739 -566502194 465126883 -1275868809 -1786851124 1808051295 -2016037753 840712690 -535389981 -2051672674 -1635921268 -208290221 -1958764018 794621295 -616223167 -114789769 -238841170 -1299648115 -746465086 979917335
REM
CELL 1.54180   50.00000   50.00000   50.00000   90.00000   90.00000   90.00000
LATT -1
SFAC C  
C      1  0.4786120000000  0.4742050000000  0.4625720000000 1.0
C      1  0.5255040000000  0.4579310000000  0.4939740000000 1.0
C      1  0.4682420000000  0.4792070000000  0.5492810000000 1.0
C      1  0.5192440000000  0.5167990000000  0.5385700000000 1.0
C      1  0.4766880000000  0.5396830000000  0.5048950000000 1.0
C      1  0.5277350000000  0.5205000000000  0.4515970000000 1.0
C      1  0.4932570000000  0.4689280000000  0.5570250000000 1.0
C      1  0.5001930000000  0.5233450000000  0.5574500000000 1.0
C      1  0.4967480000000  0.5554270000000  0.5139300000000 1.0
C      1  0.5090490000000  0.5389890000000  0.4405980000000 1.0
C      1  0.4970820000000  0.4691480000000  0.4428690000000 1.0
C      1  0.5057920000000  0.4407870000000  0.4878700000000 1.0
C      1  0.5193200000000  0.4746550000000  0.4306940000000 1.0
C      1  0.4808200000000  0.4345470000000  0.4850120000000 1.0
C      1  0.5157640000000  0.4622870000000  0.5474630000000 1.0
C      1  0.4766450000000  0.5238360000000  0.5693930000000 1.0
C      1  0.5213200000000  0.5611570000000  0.5204700000000 1.0
C      1  0.4876480000000  0.5430070000000  0.4548000000000 1.0
C      1  0.4840020000000  0.4909490000000  0.5116720000000 1.0
C      1  0.5291510000000  0.5266210000000  0.4798620000000 1.0
C      1  0.4856980000000  0.4948860000000  0.4814510000000 1.0
C      1  0.5147630000000  0.5029300000000  0.4896310000000 1.0
C      1  0.4648590000000  0.4702450000000  0.5222070000000 1.0
C      1  0.5125160000000  0.4956680000000  0.5192630000000 1.0
C      1  0.5294760000000  0.4693060000000  0.5224850000000 1.0
C      1  0.4664160000000  0.5082420000000  0.5481540000000 1.0
C      1  0.5347430000000  0.5364080000000  0.5230930000000 1.0
C      1  0.4725980000000  0.5337300000000  0.4763330000000 1.0
C      1  0.5300730000000  0.4915380000000  0.4503070000000 1.0
C      1  0.4640730000000  0.4562660000000  0.4798270000000 1.0
C      1  0.4595710000000  0.5084240000000  0.4755290000000 1.0
C      1  0.5339640000000  0.4827950000000  0.4788530000000 1.0
C      1  0.4478700000000  0.4706200000000  0.5003330000000 1.0
C      1  0.5552440000000  0.4833120000000  0.5202300000000 1.0
C      1  0.4652910000000  0.5149520000000  0.5192060000000 1.0
C      1  0.5492950000000  0.5251580000000  0.5002350000000 1.0
C      1  0.5558570000000  0.4973110000000  0.4974780000000 1.0
C      1  0.4448750000000  0.4999770000000  0.4979420000000 1.0
END
