TITL C-199729-9350-2 77.4797609259618 125000 -822.365619730718 0 0 122 (D2h) n - 1
REM
REM in /rds/project/t2_vol4/rds-t2-cs072/BORA/CARBON/from-Arr/AIRSS/Generating-Clusters/GAP-ML-2020/Higher-Symm/SD-CG/HFTN-CG
REM
REM
REM
REM
REM
REM ./C.cell (b20cbc046b6831c77cfcea5457e17084)
REM AIRSS Version 0.9.1 bugfix July 2018 build 013d7b7c2542+ Fri, 06 Jul 2018 19:26:36 +0100
REM compiler GCC version 9.3.0
REM options -cpp -mtune=generic -march=x86-64 -g -O0
REM seed -1301768842 -1205774612 -1506632283 18123764 -1925186616 -1477752988 1086820727 -763184346 1928485961 1173848762 -97845393 1795159 -502245989 484454205 -325983518 1355052200 743116948 676302248 -439247288 -1375692094 -1390654002 -70069892 -591737120 -539314924 1999013603 -1834117187 729988732 -923665876 -1674462432 348941045 647452061 638520572 -1371220877
REM
CELL 1.54180   50.00000   50.00000   50.00000   90.00000   90.00000   90.00000
LATT -1
SFAC C  
C      1  0.4851430000000  0.4751600000000  0.5152120000000 1.0
C      1  0.5148560000000  0.4751600000000  0.4847880000000 1.0
C      1  0.4851440000000  0.5255650000000  0.5152120000000 1.0
C      1  0.5148570000000  0.5255650000000  0.4847880000000 1.0
C      1  0.4851430000000  0.4751600000000  0.4847880000000 1.0
C      1  0.5148560000000  0.4751600000000  0.5152120000000 1.0
C      1  0.4851440000000  0.5255650000000  0.4847880000000 1.0
C      1  0.5148570000000  0.5255650000000  0.5152120000000 1.0
C      1  0.5156590000000  0.5811570000000  0.4675490000000 1.0
C      1  0.4843420000000  0.5811570000000  0.5324520000000 1.0
C      1  0.5156580000000  0.4195680000000  0.4675480000000 1.0
C      1  0.4843410000000  0.4195680000000  0.5324510000000 1.0
C      1  0.5156590000000  0.5811570000000  0.5324520000000 1.0
C      1  0.4843420000000  0.5811570000000  0.4675490000000 1.0
C      1  0.5156580000000  0.4195680000000  0.5324510000000 1.0
C      1  0.4843410000000  0.4195690000000  0.4675480000000 1.0
C      1  0.5681230000000  0.5149360000000  0.5771170000000 1.0
C      1  0.4318770000000  0.5149380000000  0.4228840000000 1.0
C      1  0.5681230000000  0.4857870000000  0.5771160000000 1.0
C      1  0.4318770000000  0.4857890000000  0.4228840000000 1.0
C      1  0.5681230000000  0.5149370000000  0.4228830000000 1.0
C      1  0.4318770000000  0.5149370000000  0.5771170000000 1.0
C      1  0.5681230000000  0.4857880000000  0.4228830000000 1.0
C      1  0.4318770000000  0.4857880000000  0.5771160000000 1.0
C      1  0.4849740000000  0.4449670000000  0.5147000000000 1.0
C      1  0.5150260000000  0.4449670000000  0.4852990000000 1.0
C      1  0.4849750000000  0.5557580000000  0.5147010000000 1.0
C      1  0.5150260000000  0.5557580000000  0.4853000000000 1.0
C      1  0.4849740000000  0.4449670000000  0.4852990000000 1.0
C      1  0.5150260000000  0.4449670000000  0.5147000000000 1.0
C      1  0.4849750000000  0.5557580000000  0.4853000000000 1.0
C      1  0.5150260000000  0.5557580000000  0.5147010000000 1.0
C      1  0.5326620000000  0.5983740000000  0.4848430000000 1.0
C      1  0.4673390000000  0.5983740000000  0.5151590000000 1.0
C      1  0.5326610000000  0.4023510000000  0.4848410000000 1.0
C      1  0.4673380000000  0.4023510000000  0.5151570000000 1.0
C      1  0.5326620000000  0.5983740000000  0.5151590000000 1.0
C      1  0.4673390000000  0.5983750000000  0.4848430000000 1.0
C      1  0.5326610000000  0.4023510000000  0.5151570000000 1.0
C      1  0.4673380000000  0.4023510000000  0.4848410000000 1.0
C      1  0.5268860000000  0.4867290000000  0.3966580000000 1.0
C      1  0.4731140000000  0.4867280000000  0.6033420000000 1.0
C      1  0.5268860000000  0.5139970000000  0.3966580000000 1.0
C      1  0.4731140000000  0.5139960000000  0.6033420000000 1.0
C      1  0.5268860000000  0.4867280000000  0.6033420000000 1.0
C      1  0.4731140000000  0.4867290000000  0.3966580000000 1.0
C      1  0.5268860000000  0.5139960000000  0.6033420000000 1.0
C      1  0.4731140000000  0.5139980000000  0.3966580000000 1.0
C      1  0.4684760000000  0.5359390000000  0.4421760000000 1.0
C      1  0.5315240000000  0.5359380000000  0.5578240000000 1.0
C      1  0.4684760000000  0.4647880000000  0.4421760000000 1.0
C      1  0.5315240000000  0.4647860000000  0.5578240000000 1.0
C      1  0.4684760000000  0.5359380000000  0.5578240000000 1.0
C      1  0.5315240000000  0.5359390000000  0.4421760000000 1.0
C      1  0.4684760000000  0.4647870000000  0.5578240000000 1.0
C      1  0.5315240000000  0.4647870000000  0.4421760000000 1.0
C      1  0.4583720000000  0.5272480000000  0.4171040000000 1.0
C      1  0.5416280000000  0.5272460000000  0.5828960000000 1.0
C      1  0.4583720000000  0.4734790000000  0.4171040000000 1.0
C      1  0.5416280000000  0.4734770000000  0.5828960000000 1.0
C      1  0.4583720000000  0.5272470000000  0.5828960000000 1.0
C      1  0.5416280000000  0.5272470000000  0.4171040000000 1.0
C      1  0.4583720000000  0.4734780000000  0.5828960000000 1.0
C      1  0.5416270000000  0.4734780000000  0.4171040000000 1.0
C      1  0.4655210000000  0.5627090000000  0.5465500000000 1.0
C      1  0.5344800000000  0.5627090000000  0.4534500000000 1.0
C      1  0.4655200000000  0.4380160000000  0.5465500000000 1.0
C      1  0.5344800000000  0.4380160000000  0.4534500000000 1.0
C      1  0.4655200000000  0.5627100000000  0.4534500000000 1.0
C      1  0.5344810000000  0.5627090000000  0.5465500000000 1.0
C      1  0.4655200000000  0.4380160000000  0.4534500000000 1.0
C      1  0.5344800000000  0.4380150000000  0.5465490000000 1.0
C      1  0.5587940000000  0.5851790000000  0.4856130000000 1.0
C      1  0.4412070000000  0.5851800000000  0.5143880000000 1.0
C      1  0.5587930000000  0.4155450000000  0.4856120000000 1.0
C      1  0.4412060000000  0.4155460000000  0.5143870000000 1.0
C      1  0.5587940000000  0.5851790000000  0.5143880000000 1.0
C      1  0.4412070000000  0.5851800000000  0.4856130000000 1.0
C      1  0.5587930000000  0.4155450000000  0.5143870000000 1.0
C      1  0.4412060000000  0.4155460000000  0.4856120000000 1.0
C      1  0.4238380000000  0.5388020000000  0.5332910000000 1.0
C      1  0.5761620000000  0.5388010000000  0.4667090000000 1.0
C      1  0.4238380000000  0.4619240000000  0.5332900000000 1.0
C      1  0.5761620000000  0.4619240000000  0.4667090000000 1.0
C      1  0.4238380000000  0.5388020000000  0.4667100000000 1.0
C      1  0.5761620000000  0.5388000000000  0.5332910000000 1.0
C      1  0.4238380000000  0.4619250000000  0.4667090000000 1.0
C      1  0.5761620000000  0.4619230000000  0.5332900000000 1.0
C      1  0.5630030000000  0.4846740000000  0.4841580000000 1.0
C      1  0.4369970000000  0.4846750000000  0.5158420000000 1.0
C      1  0.5630030000000  0.5160510000000  0.4841580000000 1.0
C      1  0.4369980000000  0.5160510000000  0.5158420000000 1.0
C      1  0.5630030000000  0.4846740000000  0.5158420000000 1.0
C      1  0.4369970000000  0.4846750000000  0.4841580000000 1.0
C      1  0.5630030000000  0.5160500000000  0.5158420000000 1.0
C      1  0.4369980000000  0.5160510000000  0.4841580000000 1.0
C      1  0.4401660000000  0.4369410000000  0.5330300000000 1.0
C      1  0.5598330000000  0.4369400000000  0.4669690000000 1.0
C      1  0.4401670000000  0.5637850000000  0.5330310000000 1.0
C      1  0.5598340000000  0.5637850000000  0.4669700000000 1.0
C      1  0.4401660000000  0.4369410000000  0.4669690000000 1.0
C      1  0.5598330000000  0.4369400000000  0.5330300000000 1.0
C      1  0.4401670000000  0.5637850000000  0.4669700000000 1.0
C      1  0.5598340000000  0.5637840000000  0.5330310000000 1.0
C      1  0.4181150000000  0.5288110000000  0.5577720000000 1.0
C      1  0.5818860000000  0.5288110000000  0.4422280000000 1.0
C      1  0.4181140000000  0.4719150000000  0.5577720000000 1.0
C      1  0.5818850000000  0.4719140000000  0.4422280000000 1.0
C      1  0.4181150000000  0.5288120000000  0.4422280000000 1.0
C      1  0.5818860000000  0.5288100000000  0.5577720000000 1.0
C      1  0.4181140000000  0.4719160000000  0.4422280000000 1.0
C      1  0.5818850000000  0.4719130000000  0.5577720000000 1.0
C      1  0.5345600000000  0.4854270000000  0.5338550000000 1.0
C      1  0.4654400000000  0.4854280000000  0.4661450000000 1.0
C      1  0.5345600000000  0.5152970000000  0.5338550000000 1.0
C      1  0.4654400000000  0.5152980000000  0.4661450000000 1.0
C      1  0.5345600000000  0.4854280000000  0.4661450000000 1.0
C      1  0.4654400000000  0.4854280000000  0.5338550000000 1.0
C      1  0.5345600000000  0.5152980000000  0.4661450000000 1.0
C      1  0.4654400000000  0.5152980000000  0.5338550000000 1.0
C      1  0.5000000000000  0.5003620000000  0.6062810000000 1.0
C      1  0.5000000000000  0.5003630000000  0.3937190000000 1.0
END
