TITL C-19934-9285-5 85.8148245637261 125000 -626.236014588923 0 0 89 (C1) n - 1
REM
REM in /rds/project/t2_vol4/rds-t2-cs072/BORA/CARBON/from-Arr/AIRSS/Generating-Clusters/GAP-ML-2020/Higher-Symm/SD-CG/HFTN-CG
REM
REM
REM
REM
REM
REM ./C.cell (b20cbc046b6831c77cfcea5457e17084)
REM AIRSS Version 0.9.1 bugfix July 2018 build 013d7b7c2542+ Fri, 06 Jul 2018 19:26:36 +0100
REM compiler GCC version 9.3.0
REM options -cpp -mtune=generic -march=x86-64 -g -O0
REM seed 1362834414 -1491395390 -1089171729 1438145194 295033309 836404146 2082529056 -1915859510 -1416865510 810699860 1238747375 -1195471124 -747428387 1166444333 943548848 1998146201 129687954 345954083 -453661953 -678366445 83018340 -403514248 -1013316546 -2005251786 -321810823 413785134 -175956391 590188052 -1307152376 338177620 -1196051330 465654547 -1858227862
REM
CELL 1.54180   50.00000   50.00000   50.00000   90.00000   90.00000   90.00000
LATT -1
SFAC C  
C      1  0.5615220000000  0.4974640000000  0.4365390000000 1.0
C      1  0.5617240000000  0.5465100000000  0.4593610000000 1.0
C      1  0.5616710000000  0.5591650000000  0.5118080000000 1.0
C      1  0.5617320000000  0.5262610000000  0.5553020000000 1.0
C      1  0.5636480000000  0.4722430000000  0.5568250000000 1.0
C      1  0.5612360000000  0.4374770000000  0.5145160000000 1.0
C      1  0.5609930000000  0.4486430000000  0.4612930000000 1.0
C      1  0.5145860000000  0.4881870000000  0.5753340000000 1.0
C      1  0.5138080000000  0.4323720000000  0.5364360000000 1.0
C      1  0.5137790000000  0.4266480000000  0.4700810000000 1.0
C      1  0.5146690000000  0.4771910000000  0.4249980000000 1.0
C      1  0.5152190000000  0.5439080000000  0.4356690000000 1.0
C      1  0.5154410000000  0.5773690000000  0.4944330000000 1.0
C      1  0.5153470000000  0.5524420000000  0.5577110000000 1.0
C      1  0.4672800000000  0.4391810000000  0.5148760000000 1.0
C      1  0.4680760000000  0.4505140000000  0.4626970000000 1.0
C      1  0.4691220000000  0.4985700000000  0.4390440000000 1.0
C      1  0.4689590000000  0.5474660000000  0.4603210000000 1.0
C      1  0.4690780000000  0.5597900000000  0.5122810000000 1.0
C      1  0.4685160000000  0.5278420000000  0.5553120000000 1.0
C      1  0.4673550000000  0.4739440000000  0.5568630000000 1.0
C      1  0.4266570000000  0.4749690000000  0.4495240000000 1.0
C      1  0.4270220000000  0.5239090000000  0.4481830000000 1.0
C      1  0.4269320000000  0.5549350000000  0.4857830000000 1.0
C      1  0.4266730000000  0.5448640000000  0.5336580000000 1.0
C      1  0.4259150000000  0.5014800000000  0.5565930000000 1.0
C      1  0.4259720000000  0.4566810000000  0.5359120000000 1.0
C      1  0.4255660000000  0.4446640000000  0.4881690000000 1.0
C      1  0.5933400000000  0.5303240000000  0.4909620000000 1.0
C      1  0.5925810000000  0.5242230000000  0.5191720000000 1.0
C      1  0.5931820000000  0.4987580000000  0.5324620000000 1.0
C      1  0.5929290000000  0.4720580000000  0.5202670000000 1.0
C      1  0.5925230000000  0.4650540000000  0.4921540000000 1.0
C      1  0.5918820000000  0.4830660000000  0.4696260000000 1.0
C      1  0.5922540000000  0.5117280000000  0.4691400000000 1.0
C      1  0.5727060000000  0.5406350000000  0.5319890000000 1.0
C      1  0.5747880000000  0.4993980000000  0.5544000000000 1.0
C      1  0.5735750000000  0.4561770000000  0.5341930000000 1.0
C      1  0.5730300000000  0.4444310000000  0.4881160000000 1.0
C      1  0.5724080000000  0.4739070000000  0.4506770000000 1.0
C      1  0.5729830000000  0.5208280000000  0.4499430000000 1.0
C      1  0.5734080000000  0.5508780000000  0.4860940000000 1.0
C      1  0.4146590000000  0.5267940000000  0.5515610000000 1.0
C      1  0.4143600000000  0.4759640000000  0.5529950000000 1.0
C      1  0.4140170000000  0.4435260000000  0.5139190000000 1.0
C      1  0.4144200000000  0.4541410000000  0.4640730000000 1.0
C      1  0.4154940000000  0.4993240000000  0.4407930000000 1.0
C      1  0.4154790000000  0.5458530000000  0.4616570000000 1.0
C      1  0.4153230000000  0.5577440000000  0.5112870000000 1.0
C      1  0.5351160000000  0.4265580000000  0.5169990000000 1.0
C      1  0.5351830000000  0.4394340000000  0.4540880000000 1.0
C      1  0.5361910000000  0.4977640000000  0.4239130000000 1.0
C      1  0.5365060000000  0.5567480000000  0.4517600000000 1.0
C      1  0.5365820000000  0.5724260000000  0.5144360000000 1.0
C      1  0.5363380000000  0.5327100000000  0.5662780000000 1.0
C      1  0.5349630000000  0.4734680000000  0.5583850000000 1.0
C      1  0.5325720000000  0.4920420000000  0.5291570000000 1.0
C      1  0.5377460000000  0.4803620000000  0.5044130000000 1.0
C      1  0.5103600000000  0.4772290000000  0.4913990000000 1.0
C      1  0.5185530000000  0.4983590000000  0.4729010000000 1.0
C      1  0.5133120000000  0.5240140000000  0.4811830000000 1.0
C      1  0.5136970000000  0.5289660000000  0.5069630000000 1.0
C      1  0.5096520000000  0.5075060000000  0.5237590000000 1.0
C      1  0.4551090000000  0.4418800000000  0.4880270000000 1.0
C      1  0.4563650000000  0.4735780000000  0.4484110000000 1.0
C      1  0.4565560000000  0.5244030000000  0.4466880000000 1.0
C      1  0.4564860000000  0.5565790000000  0.4855620000000 1.0
C      1  0.4563750000000  0.5459960000000  0.5352410000000 1.0
C      1  0.4553900000000  0.5011660000000  0.5593470000000 1.0
C      1  0.4552550000000  0.4544140000000  0.5376630000000 1.0
C      1  0.5154090000000  0.5710420000000  0.4673470000000 1.0
C      1  0.5155170000000  0.5690700000000  0.5351790000000 1.0
C      1  0.5145110000000  0.5157160000000  0.5763410000000 1.0
C      1  0.5142400000000  0.4519320000000  0.5559170000000 1.0
C      1  0.5138340000000  0.4205660000000  0.4972390000000 1.0
C      1  0.5139970000000  0.4521780000000  0.4374160000000 1.0
C      1  0.5152000000000  0.5188490000000  0.4236720000000 1.0
C      1  0.4935100000000  0.4695880000000  0.5668200000000 1.0
C      1  0.4927580000000  0.4273340000000  0.5165830000000 1.0
C      1  0.4931330000000  0.4405480000000  0.4547390000000 1.0
C      1  0.4941590000000  0.4981850000000  0.4260720000000 1.0
C      1  0.4944270000000  0.5568510000000  0.4521900000000 1.0
C      1  0.4944450000000  0.5723090000000  0.5146230000000 1.0
C      1  0.4938820000000  0.5341260000000  0.5665070000000 1.0
C      1  0.4686440000000  0.4973950000000  0.5011050000000 1.0
C      1  0.5464670000000  0.4973730000000  0.4834190000000 1.0
C      1  0.4433930000000  0.4956070000000  0.5027850000000 1.0
C      1  0.4919520000000  0.4883120000000  0.5094460000000 1.0
C      1  0.4199800000000  0.5013340000000  0.4988150000000 1.0
END
