TITL C-19914-9238-5 15.9901097516426 125000 -411.72820882006 0 0 60 (Cs) n - 1
REM
REM in /rds/project/t2_vol4/rds-t2-cs072/BORA/CARBON/from-Arr/AIRSS/Generating-Clusters/GAP-ML-2020/Higher-Symm/SD-CG/HFTN-CG
REM
REM
REM
REM
REM
REM ./C.cell (b20cbc046b6831c77cfcea5457e17084)
REM AIRSS Version 0.9.1 bugfix July 2018 build 013d7b7c2542+ Fri, 06 Jul 2018 19:26:36 +0100
REM compiler GCC version 9.3.0
REM options -cpp -mtune=generic -march=x86-64 -g -O0
REM seed 1134320405 2081413811 -927992816 162448407 -314373400 -1409561264 684107880 -813468897 577471217 -1569131382 1357524588 428563945 1033197932 -1281484224 1025806886 -671713765 -1890326086 622751171 1332715344 650197542 -465852625 -18117663 558923632 139007615 -123723986 -2097144771 -927786476 -137966744 1294308602 -1766855579 -1903691471 -1283211258 1808215146
REM
CELL 1.54180   50.00000   50.00000   50.00000   90.00000   90.00000   90.00000
LATT -1
SFAC C  
C      1  0.4304900000000  0.4997200000000  0.4905850000000 1.0
C      1  0.4650850000000  0.4302950000000  0.4824000000000 1.0
C      1  0.5559750000000  0.4519650000000  0.4861050000000 1.0
C      1  0.5564970000000  0.5432980000000  0.4871990000000 1.0
C      1  0.4864650000000  0.5759820000000  0.4825270000000 1.0
C      1  0.4298540000000  0.5008350000000  0.5193810000000 1.0
C      1  0.4655370000000  0.4298040000000  0.5120130000000 1.0
C      1  0.5571870000000  0.4518070000000  0.5142410000000 1.0
C      1  0.5586390000000  0.5420840000000  0.5160830000000 1.0
C      1  0.4872330000000  0.5765390000000  0.5120350000000 1.0
C      1  0.4787200000000  0.5078110000000  0.5332480000000 1.0
C      1  0.4866760000000  0.4797660000000  0.5307700000000 1.0
C      1  0.5161040000000  0.4788590000000  0.5327310000000 1.0
C      1  0.5259780000000  0.5062830000000  0.5326070000000 1.0
C      1  0.5027210000000  0.5243280000000  0.5305700000000 1.0
C      1  0.4770910000000  0.5081040000000  0.4679430000000 1.0
C      1  0.4856760000000  0.4802560000000  0.4673550000000 1.0
C      1  0.5149830000000  0.4787100000000  0.4673010000000 1.0
C      1  0.5250220000000  0.5065910000000  0.4671760000000 1.0
C      1  0.5014560000000  0.5240830000000  0.4671580000000 1.0
C      1  0.5605520000000  0.5667670000000  0.5301110000000 1.0
C      1  0.4656530000000  0.5845720000000  0.5278110000000 1.0
C      1  0.4140620000000  0.4818370000000  0.5331660000000 1.0
C      1  0.4784890000000  0.4100110000000  0.5269020000000 1.0
C      1  0.5824030000000  0.4569710000000  0.5260480000000 1.0
C      1  0.5570850000000  0.5679090000000  0.4727940000000 1.0
C      1  0.4643230000000  0.5851000000000  0.4659580000000 1.0
C      1  0.4146190000000  0.4810070000000  0.4758840000000 1.0
C      1  0.4759810000000  0.4097460000000  0.4649150000000 1.0
C      1  0.5804690000000  0.4574120000000  0.4725030000000 1.0
C      1  0.5526880000000  0.5153020000000  0.5259860000000 1.0
C      1  0.5026860000000  0.5491440000000  0.5127820000000 1.0
C      1  0.4515550000000  0.5175750000000  0.5294590000000 1.0
C      1  0.4707790000000  0.4605270000000  0.5131810000000 1.0
C      1  0.5309150000000  0.4548310000000  0.5262580000000 1.0
C      1  0.5508430000000  0.5166170000000  0.4764090000000 1.0
C      1  0.5018040000000  0.5489990000000  0.4822320000000 1.0
C      1  0.4517480000000  0.5172840000000  0.4802040000000 1.0
C      1  0.4701040000000  0.4609570000000  0.4826270000000 1.0
C      1  0.5285130000000  0.4546000000000  0.4766880000000 1.0
C      1  0.5389260000000  0.5845680000000  0.4641290000000 1.0
C      1  0.4462530000000  0.5688670000000  0.4754890000000 1.0
C      1  0.4181670000000  0.4569070000000  0.4665350000000 1.0
C      1  0.5006170000000  0.4110740000000  0.4734990000000 1.0
C      1  0.5890700000000  0.4812980000000  0.4723950000000 1.0
C      1  0.5408670000000  0.5832580000000  0.5261230000000 1.0
C      1  0.4454590000000  0.5690390000000  0.5327740000000 1.0
C      1  0.4197050000000  0.4569570000000  0.5283850000000 1.0
C      1  0.5041800000000  0.4102000000000  0.5308150000000 1.0
C      1  0.5909940000000  0.4808310000000  0.5259410000000 1.0
C      1  0.5158930000000  0.4305250000000  0.4877050000000 1.0
C      1  0.5737080000000  0.5012160000000  0.4858840000000 1.0
C      1  0.5174820000000  0.5758210000000  0.4817460000000 1.0
C      1  0.4465950000000  0.5444500000000  0.4903840000000 1.0
C      1  0.4410860000000  0.4499490000000  0.4830930000000 1.0
C      1  0.5184000000000  0.4303250000000  0.5165850000000 1.0
C      1  0.5748240000000  0.5007900000000  0.5140210000000 1.0
C      1  0.5182280000000  0.5761460000000  0.5113550000000 1.0
C      1  0.4454770000000  0.5442260000000  0.5191860000000 1.0
C      1  0.4414080000000  0.4492640000000  0.5126070000000 1.0
END
