TITL C-199719-9389-2 12.6428611769198 125000 -756.877416605237 0 0 109 (C1) n - 1
REM
REM in /rds/project/t2_vol4/rds-t2-cs072/BORA/CARBON/from-Arr/AIRSS/Generating-Clusters/GAP-ML-2020/Higher-Symm/SD-CG/HFTN-CG
REM
REM
REM
REM
REM
REM ./C.cell (b20cbc046b6831c77cfcea5457e17084)
REM AIRSS Version 0.9.1 bugfix July 2018 build 013d7b7c2542+ Fri, 06 Jul 2018 19:26:36 +0100
REM compiler GCC version 9.3.0
REM options -cpp -mtune=generic -march=x86-64 -g -O0
REM seed -2110570714 -102342258 -1656478759 2094426491 1773227020 1217634318 -414691971 -568315965 -1196431908 1718809307 -313384988 913180702 -1540361660 1526773421 303775186 1944711516 -1875476360 -1884977391 1387000548 1500892532 -906724624 1452396627 -1273964613 -1858450062 -331960960 870264945 -888058171 474066728 -660167334 179640323 244339760 -179268305 1639388482
REM
CELL 1.54180   50.00000   50.00000   50.00000   90.00000   90.00000   90.00000
LATT -1
SFAC C  
C      1  0.5017210000000  0.5850580000000  0.5369670000000 1.0
C      1  0.4975650000000  0.5839400000000  0.4610570000000 1.0
C      1  0.4484420000000  0.5359220000000  0.4558260000000 1.0
C      1  0.5512260000000  0.5371800000000  0.5434150000000 1.0
C      1  0.4793090000000  0.4155590000000  0.4989290000000 1.0
C      1  0.5195400000000  0.4143710000000  0.4975100000000 1.0
C      1  0.4348320000000  0.5092480000000  0.4911910000000 1.0
C      1  0.5659370000000  0.5106720000000  0.5086860000000 1.0
C      1  0.5448950000000  0.4909270000000  0.5168660000000 1.0
C      1  0.4567250000000  0.4894940000000  0.4830870000000 1.0
C      1  0.4329540000000  0.4357000000000  0.4979210000000 1.0
C      1  0.5658910000000  0.4349400000000  0.5016300000000 1.0
C      1  0.4578800000000  0.4828600000000  0.5275740000000 1.0
C      1  0.5417980000000  0.4828900000000  0.4727750000000 1.0
C      1  0.5367080000000  0.4378700000000  0.4620500000000 1.0
C      1  0.4634730000000  0.4366570000000  0.5368680000000 1.0
C      1  0.5373640000000  0.5787930000000  0.4970540000000 1.0
C      1  0.4620310000000  0.5783260000000  0.5011470000000 1.0
C      1  0.4775530000000  0.4996470000000  0.4148530000000 1.0
C      1  0.5196410000000  0.5003440000000  0.5828080000000 1.0
C      1  0.5658030000000  0.5117200000000  0.5565440000000 1.0
C      1  0.4328000000000  0.5114010000000  0.4439800000000 1.0
C      1  0.5538810000000  0.4927120000000  0.4255690000000 1.0
C      1  0.4476380000000  0.4932420000000  0.5744200000000 1.0
C      1  0.5678200000000  0.4335890000000  0.5295530000000 1.0
C      1  0.4306370000000  0.4352870000000  0.4699190000000 1.0
C      1  0.5715740000000  0.4779920000000  0.4418550000000 1.0
C      1  0.4296960000000  0.4779620000000  0.5588630000000 1.0
C      1  0.5781130000000  0.4511330000000  0.4816720000000 1.0
C      1  0.4215300000000  0.4511060000000  0.5191590000000 1.0
C      1  0.5074360000000  0.5232790000000  0.5678630000000 1.0
C      1  0.4924570000000  0.5217310000000  0.4305740000000 1.0
C      1  0.5181370000000  0.5143210000000  0.4471000000000 1.0
C      1  0.4817830000000  0.5153710000000  0.5517170000000 1.0
C      1  0.5323640000000  0.5493740000000  0.4309290000000 1.0
C      1  0.4673520000000  0.5503670000000  0.5677290000000 1.0
C      1  0.4424480000000  0.4573560000000  0.5391160000000 1.0
C      1  0.5579560000000  0.4580570000000  0.4613080000000 1.0
C      1  0.5186850000000  0.5164180000000  0.4966370000000 1.0
C      1  0.4816410000000  0.5159010000000  0.5025470000000 1.0
C      1  0.6069770000000  0.4919980000000  0.5285520000000 1.0
C      1  0.3924420000000  0.4924540000000  0.4739090000000 1.0
C      1  0.4415450000000  0.5581880000000  0.5027590000000 1.0
C      1  0.5581050000000  0.5588120000000  0.4961180000000 1.0
C      1  0.4918640000000  0.4315990000000  0.5425710000000 1.0
C      1  0.5082250000000  0.4355970000000  0.4554480000000 1.0
C      1  0.5145140000000  0.5294160000000  0.4725490000000 1.0
C      1  0.4852230000000  0.5299900000000  0.5260680000000 1.0
C      1  0.5377870000000  0.5653840000000  0.5467900000000 1.0
C      1  0.4617750000000  0.5637280000000  0.4515950000000 1.0
C      1  0.5206760000000  0.4861320000000  0.4521520000000 1.0
C      1  0.4791480000000  0.4866910000000  0.5479610000000 1.0
C      1  0.4943090000000  0.4751670000000  0.4570150000000 1.0
C      1  0.5052300000000  0.4756760000000  0.5385430000000 1.0
C      1  0.5125630000000  0.5313700000000  0.5201100000000 1.0
C      1  0.4872700000000  0.5305250000000  0.4786390000000 1.0
C      1  0.5298210000000  0.4933460000000  0.5411060000000 1.0
C      1  0.4704500000000  0.4924350000000  0.4583820000000 1.0
C      1  0.4706850000000  0.5807430000000  0.4737820000000 1.0
C      1  0.5286730000000  0.5819040000000  0.5242900000000 1.0
C      1  0.5248530000000  0.5814580000000  0.4699450000000 1.0
C      1  0.4744660000000  0.5818700000000  0.5281950000000 1.0
C      1  0.3881020000000  0.4802500000000  0.4963890000000 1.0
C      1  0.6108450000000  0.4799660000000  0.5058100000000 1.0
C      1  0.5429700000000  0.4886420000000  0.5673590000000 1.0
C      1  0.4552640000000  0.4887470000000  0.4326530000000 1.0
C      1  0.5114330000000  0.5696010000000  0.5598440000000 1.0
C      1  0.4881950000000  0.5677790000000  0.4385540000000 1.0
C      1  0.4962910000000  0.5506860000000  0.5729670000000 1.0
C      1  0.5035910000000  0.5492900000000  0.4249970000000 1.0
C      1  0.5873630000000  0.4898700000000  0.4629660000000 1.0
C      1  0.4132720000000  0.4897650000000  0.5382060000000 1.0
C      1  0.4998950000000  0.4833640000000  0.5912940000000 1.0
C      1  0.4877470000000  0.4819590000000  0.3965280000000 1.0
C      1  0.4544560000000  0.5221140000000  0.5629410000000 1.0
C      1  0.5458390000000  0.5215920000000  0.4362440000000 1.0
C      1  0.5833590000000  0.5049030000000  0.5353590000000 1.0
C      1  0.4162420000000  0.5043030000000  0.4660810000000 1.0
C      1  0.5255840000000  0.5227890000000  0.5436720000000 1.0
C      1  0.4745480000000  0.5214000000000  0.4550290000000 1.0
C      1  0.4931980000000  0.4589320000000  0.5822710000000 1.0
C      1  0.5047860000000  0.4680490000000  0.4135950000000 1.0
C      1  0.5661310000000  0.5044140000000  0.4776780000000 1.0
C      1  0.4341190000000  0.5037820000000  0.5223270000000 1.0
C      1  0.4397630000000  0.4418140000000  0.4466300000000 1.0
C      1  0.5590150000000  0.4411540000000  0.5526350000000 1.0
C      1  0.5405110000000  0.4568200000000  0.5647590000000 1.0
C      1  0.4580770000000  0.4573810000000  0.4339930000000 1.0
C      1  0.5632930000000  0.5269190000000  0.4593600000000 1.0
C      1  0.4365950000000  0.5267380000000  0.5400480000000 1.0
C      1  0.4391550000000  0.5521720000000  0.5302660000000 1.0
C      1  0.5605700000000  0.5524880000000  0.4686560000000 1.0
C      1  0.5413120000000  0.5658960000000  0.4521450000000 1.0
C      1  0.4582720000000  0.5662710000000  0.5463230000000 1.0
C      1  0.4015290000000  0.4712300000000  0.5193900000000 1.0
C      1  0.5982480000000  0.4711220000000  0.4824390000000 1.0
C      1  0.5429180000000  0.4251060000000  0.4870970000000 1.0
C      1  0.4565320000000  0.4259380000000  0.5111360000000 1.0
C      1  0.4750170000000  0.4857640000000  0.5038020000000 1.0
C      1  0.5258140000000  0.4865740000000  0.4969480000000 1.0
C      1  0.4985550000000  0.4186920000000  0.4768730000000 1.0
C      1  0.5004330000000  0.4159950000000  0.5197900000000 1.0
C      1  0.5091510000000  0.4511010000000  0.5580790000000 1.0
C      1  0.4903440000000  0.4538640000000  0.4374850000000 1.0
C      1  0.4381770000000  0.5375790000000  0.4836590000000 1.0
C      1  0.5619850000000  0.5387090000000  0.5157090000000 1.0
C      1  0.5291190000000  0.4772590000000  0.4249230000000 1.0
C      1  0.4731060000000  0.4785090000000  0.5762050000000 1.0
C      1  0.5016010000000  0.4729960000000  0.5078470000000 1.0
END
