TITL C-19920-9999-1 -0.0610330634147604 125000 -199.425982888528 0 0 30 (D5d) n - 1
REM
REM in /rds/project/t2_vol4/rds-t2-cs072/BORA/CARBON/from-Arr/AIRSS/Generating-Clusters/GAP-ML-2020/Higher-Symm/SD-CG/HFTN-CG
REM
REM
REM
REM
REM
REM ./C.cell (b20cbc046b6831c77cfcea5457e17084)
REM AIRSS Version 0.9.1 bugfix July 2018 build 013d7b7c2542+ Fri, 06 Jul 2018 19:26:36 +0100
REM compiler GCC version 9.3.0
REM options -cpp -mtune=generic -march=x86-64 -g -O0
REM seed -1266377200 1438030713 -429019317 1333742305 -1458614336 257167983 1872353463 -1997893207 1967145021 420351427 -655203402 -1378686282 -1652344870 260649543 -226522689 -1310085367 69362384 501485840 338584042 -2071932023 -1342963440 -358186179 -1867481272 -1318668006 -1961685239 889165538 -493723366 -1710899213 162282581 -305260679 2031374694 -666871995 1681950375
REM
CELL 1.54180   50.00000   50.00000   50.00000   90.00000   90.00000   90.00000
LATT -1
SFAC C  
C      1  0.5041770000000  0.4416790000000  0.4860150000000 1.0
C      1  0.5567580000000  0.4859510000000  0.4860160000000 1.0
C      1  0.5309010000000  0.5496390000000  0.4860170000000 1.0
C      1  0.4623400000000  0.5447280000000  0.4860170000000 1.0
C      1  0.4458240000000  0.4780050000000  0.4860160000000 1.0
C      1  0.4958290000000  0.4416780000000  0.5139820000000 1.0
C      1  0.4432440000000  0.4859440000000  0.5139830000000 1.0
C      1  0.4690940000000  0.5496350000000  0.5139850000000 1.0
C      1  0.5376550000000  0.5447310000000  0.5139840000000 1.0
C      1  0.5541790000000  0.4780100000000  0.5139830000000 1.0
C      1  0.4690990000000  0.4503610000000  0.5139830000000 1.0
C      1  0.5376600000000  0.4552720000000  0.5139830000000 1.0
C      1  0.5541760000000  0.5219950000000  0.5139840000000 1.0
C      1  0.4958230000000  0.5583210000000  0.5139850000000 1.0
C      1  0.4432420000000  0.5140490000000  0.5139840000000 1.0
C      1  0.5309060000000  0.4503650000000  0.4860150000000 1.0
C      1  0.4623450000000  0.4552690000000  0.4860160000000 1.0
C      1  0.4458210000000  0.5219900000000  0.4860170000000 1.0
C      1  0.5041710000000  0.5583220000000  0.4860180000000 1.0
C      1  0.5567560000000  0.5140560000000  0.4860170000000 1.0
C      1  0.5163150000000  0.5502210000000  0.5302680000000 1.0
C      1  0.4572780000000  0.5310350000000  0.5302680000000 1.0
C      1  0.4572810000000  0.4689590000000  0.5302660000000 1.0
C      1  0.5163210000000  0.4497790000000  0.5302660000000 1.0
C      1  0.5528060000000  0.5000020000000  0.5302670000000 1.0
C      1  0.4836790000000  0.5502210000000  0.4697340000000 1.0
C      1  0.5427190000000  0.5310410000000  0.4697340000000 1.0
C      1  0.5427220000000  0.4689650000000  0.4697320000000 1.0
C      1  0.4836850000000  0.4497790000000  0.4697320000000 1.0
C      1  0.4471940000000  0.4999980000000  0.4697330000000 1.0
END
