TITL C-19524-706-7 -18.2686664492536 125000 -1130.3791140625 0 0 160 (C4h) n - 1
REM
REM in /rds/project/t2_vol4/rds-t2-cs072/BORA/CARBON/from-Arr/AIRSS/Generating-Clusters/GAP-ML-2020/Higher-Symm/SD-CG/HFTN-CG
REM
REM
REM
REM
REM
REM ./C.cell (b20cbc046b6831c77cfcea5457e17084)
REM AIRSS Version 0.9.1 bugfix July 2018 build 013d7b7c2542+ Fri, 06 Jul 2018 19:26:36 +0100
REM compiler GCC version 9.3.0
REM options -cpp -mtune=generic -march=x86-64 -g -O0
REM seed -1592931528 447755885 698011933 -709347058 -1289842378 -1993886085 1548306302 -1439964965 1341360899 1557960799 -1846953930 1429185318 -1137895881 -1997204259 -1338666009 503241468 -1336403376 -8727773 706853643 67964006 -559370433 -1046133215 -856948268 -1758253541 743356589 -1304089155 -2035102344 -561842394 -685106575 892262342 -1450669311 1561240847 1607949391
REM
CELL 1.54180   50.00000   50.00000   50.00000   90.00000   90.00000   90.00000
LATT -1
SFAC C  
C      1  0.4880270000000  0.4829130000000  0.3964810000000 1.0
C      1  0.4829150000000  0.5119610000000  0.3964790000000 1.0
C      1  0.5119630000000  0.5170730000000  0.3964780000000 1.0
C      1  0.5170750000000  0.4880260000000  0.3964790000000 1.0
C      1  0.4880370000000  0.4829270000000  0.6035220000000 1.0
C      1  0.4829250000000  0.5119740000000  0.6035210000000 1.0
C      1  0.5119730000000  0.5170870000000  0.6035190000000 1.0
C      1  0.5170850000000  0.4880390000000  0.6035210000000 1.0
C      1  0.4792200000000  0.4374590000000  0.5798280000000 1.0
C      1  0.4374580000000  0.5207900000000  0.5798240000000 1.0
C      1  0.5207880000000  0.5625510000000  0.5798170000000 1.0
C      1  0.5625500000000  0.4792210000000  0.5798210000000 1.0
C      1  0.4792120000000  0.4374490000000  0.4201830000000 1.0
C      1  0.4374500000000  0.5207790000000  0.4201790000000 1.0
C      1  0.5207800000000  0.5625410000000  0.4201720000000 1.0
C      1  0.5625420000000  0.4792100000000  0.4201760000000 1.0
C      1  0.4669760000000  0.4789390000000  0.4857050000000 1.0
C      1  0.4789390000000  0.5330230000000  0.4857010000000 1.0
C      1  0.5330230000000  0.5210590000000  0.4856990000000 1.0
C      1  0.5210590000000  0.4669750000000  0.4857030000000 1.0
C      1  0.4669770000000  0.4789410000000  0.5143010000000 1.0
C      1  0.4789410000000  0.5330250000000  0.5142970000000 1.0
C      1  0.5330240000000  0.5210610000000  0.5142950000000 1.0
C      1  0.5210610000000  0.4669770000000  0.5142990000000 1.0
C      1  0.6017360000000  0.4607820000000  0.5147840000000 1.0
C      1  0.4607820000000  0.3982650000000  0.5147950000000 1.0
C      1  0.3982650000000  0.5392200000000  0.5147880000000 1.0
C      1  0.5392200000000  0.6017370000000  0.5147770000000 1.0
C      1  0.6017350000000  0.4607800000000  0.4852120000000 1.0
C      1  0.4607800000000  0.3982630000000  0.4852230000000 1.0
C      1  0.3982640000000  0.5392180000000  0.4852160000000 1.0
C      1  0.5392180000000  0.6017350000000  0.4852050000000 1.0
C      1  0.5612890000000  0.5672100000000  0.4462430000000 1.0
C      1  0.5672110000000  0.4387050000000  0.4462520000000 1.0
C      1  0.4387060000000  0.4327830000000  0.4462580000000 1.0
C      1  0.4327840000000  0.5612880000000  0.4462500000000 1.0
C      1  0.5612940000000  0.5672170000000  0.5537420000000 1.0
C      1  0.5672160000000  0.4387120000000  0.5537500000000 1.0
C      1  0.4387110000000  0.4327900000000  0.5537570000000 1.0
C      1  0.4327890000000  0.5612950000000  0.5537480000000 1.0
C      1  0.4766190000000  0.5643950000000  0.4747460000000 1.0
C      1  0.5643960000000  0.5233780000000  0.4747450000000 1.0
C      1  0.5233790000000  0.4356020000000  0.4747530000000 1.0
C      1  0.4356020000000  0.4766190000000  0.4747540000000 1.0
C      1  0.4766210000000  0.5643980000000  0.5252470000000 1.0
C      1  0.5643980000000  0.5233810000000  0.5252460000000 1.0
C      1  0.5233810000000  0.4356050000000  0.5252540000000 1.0
C      1  0.4356040000000  0.4766220000000  0.5252550000000 1.0
C      1  0.4264990000000  0.4291440000000  0.5282540000000 1.0
C      1  0.4291430000000  0.5735040000000  0.5282450000000 1.0
C      1  0.5735030000000  0.5708600000000  0.5282380000000 1.0
C      1  0.5708590000000  0.4265000000000  0.5282480000000 1.0
C      1  0.4264970000000  0.4291400000000  0.4717620000000 1.0
C      1  0.4291410000000  0.5735000000000  0.4717520000000 1.0
C      1  0.5735010000000  0.5708560000000  0.4717460000000 1.0
C      1  0.5708570000000  0.4264960000000  0.4717550000000 1.0
C      1  0.4327870000000  0.4936140000000  0.4213860000000 1.0
C      1  0.4936160000000  0.5672040000000  0.4213780000000 1.0
C      1  0.5672060000000  0.5063750000000  0.4213780000000 1.0
C      1  0.5063770000000  0.4327850000000  0.4213860000000 1.0
C      1  0.4327940000000  0.4936250000000  0.5786220000000 1.0
C      1  0.4936230000000  0.5672150000000  0.5786140000000 1.0
C      1  0.5672130000000  0.5063860000000  0.5786140000000 1.0
C      1  0.5063840000000  0.4327960000000  0.5786220000000 1.0
C      1  0.4300120000000  0.4548200000000  0.5678580000000 1.0
C      1  0.4548180000000  0.5699960000000  0.5678490000000 1.0
C      1  0.5699940000000  0.5451890000000  0.5678450000000 1.0
C      1  0.5451880000000  0.4300140000000  0.5678540000000 1.0
C      1  0.4300060000000  0.4548110000000  0.4321550000000 1.0
C      1  0.4548120000000  0.5699860000000  0.4321460000000 1.0
C      1  0.5699880000000  0.5451800000000  0.4321420000000 1.0
C      1  0.5451820000000  0.4300040000000  0.4321510000000 1.0
C      1  0.4330360000000  0.4060090000000  0.4854530000000 1.0
C      1  0.4060090000000  0.5669630000000  0.4854440000000 1.0
C      1  0.5669630000000  0.5939890000000  0.4854340000000 1.0
C      1  0.5939890000000  0.4330350000000  0.4854440000000 1.0
C      1  0.4330370000000  0.4060110000000  0.5145660000000 1.0
C      1  0.4060110000000  0.5669650000000  0.5145560000000 1.0
C      1  0.5669640000000  0.5939910000000  0.5145470000000 1.0
C      1  0.5939910000000  0.4330370000000  0.5145560000000 1.0
C      1  0.5092990000000  0.5357000000000  0.4750940000000 1.0
C      1  0.5357000000000  0.4906990000000  0.4750960000000 1.0
C      1  0.4906990000000  0.4642970000000  0.4751000000000 1.0
C      1  0.4642980000000  0.5092980000000  0.4750980000000 1.0
C      1  0.5093010000000  0.5357030000000  0.5249000000000 1.0
C      1  0.5357020000000  0.4907020000000  0.5249020000000 1.0
C      1  0.4907010000000  0.4643000000000  0.5249060000000 1.0
C      1  0.4643000000000  0.5093010000000  0.5249040000000 1.0
C      1  0.5057810000000  0.5656340000000  0.4845130000000 1.0
C      1  0.5656350000000  0.4942170000000  0.4845150000000 1.0
C      1  0.4942170000000  0.4343640000000  0.4845220000000 1.0
C      1  0.4343640000000  0.5057810000000  0.4845200000000 1.0
C      1  0.5057830000000  0.5656360000000  0.5154780000000 1.0
C      1  0.5656360000000  0.4942190000000  0.5154800000000 1.0
C      1  0.4942190000000  0.4343660000000  0.5154870000000 1.0
C      1  0.4343650000000  0.5057830000000  0.5154850000000 1.0
C      1  0.5041260000000  0.5203830000000  0.4509520000000 1.0
C      1  0.5203840000000  0.4958680000000  0.4509530000000 1.0
C      1  0.4958690000000  0.4796100000000  0.4509560000000 1.0
C      1  0.4796110000000  0.5041250000000  0.4509550000000 1.0
C      1  0.5041310000000  0.5203900000000  0.5490440000000 1.0
C      1  0.5203890000000  0.4958750000000  0.5490450000000 1.0
C      1  0.4958740000000  0.4796170000000  0.5490480000000 1.0
C      1  0.4796160000000  0.5041320000000  0.5490470000000 1.0
C      1  0.4693100000000  0.5550880000000  0.5871700000000 1.0
C      1  0.5550860000000  0.5307000000000  0.5871680000000 1.0
C      1  0.5306980000000  0.4449240000000  0.5871750000000 1.0
C      1  0.4449220000000  0.4693120000000  0.5871770000000 1.0
C      1  0.4693020000000  0.5550760000000  0.4128250000000 1.0
C      1  0.5550780000000  0.5306880000000  0.4128230000000 1.0
C      1  0.5306900000000  0.4449120000000  0.4128300000000 1.0
C      1  0.4449140000000  0.4693000000000  0.4128320000000 1.0
C      1  0.4245760000000  0.5351890000000  0.5583950000000 1.0
C      1  0.5351880000000  0.5754300000000  0.5583870000000 1.0
C      1  0.5754290000000  0.4648190000000  0.5583930000000 1.0
C      1  0.4648180000000  0.4245770000000  0.5584010000000 1.0
C      1  0.4245710000000  0.5351810000000  0.4416070000000 1.0
C      1  0.5351820000000  0.5754230000000  0.4415990000000 1.0
C      1  0.5754240000000  0.4648110000000  0.4416050000000 1.0
C      1  0.4648120000000  0.4245700000000  0.4416130000000 1.0
C      1  0.5037180000000  0.4000330000000  0.5453230000000 1.0
C      1  0.4000320000000  0.4962870000000  0.5453220000000 1.0
C      1  0.4962860000000  0.5999730000000  0.5453100000000 1.0
C      1  0.5999720000000  0.5037190000000  0.5453110000000 1.0
C      1  0.5037140000000  0.4000270000000  0.4546900000000 1.0
C      1  0.4000280000000  0.4962810000000  0.4546890000000 1.0
C      1  0.4962820000000  0.5999670000000  0.4546770000000 1.0
C      1  0.5999680000000  0.5037130000000  0.4546780000000 1.0
C      1  0.5203560000000  0.5884190000000  0.5338570000000 1.0
C      1  0.5884180000000  0.4796480000000  0.5338610000000 1.0
C      1  0.4796470000000  0.4115860000000  0.5338710000000 1.0
C      1  0.4115850000000  0.5203560000000  0.5338670000000 1.0
C      1  0.5203530000000  0.5884140000000  0.4661290000000 1.0
C      1  0.5884150000000  0.4796440000000  0.4661330000000 1.0
C      1  0.4796440000000  0.4115810000000  0.4661430000000 1.0
C      1  0.4115820000000  0.5203520000000  0.4661390000000 1.0
C      1  0.5291870000000  0.5388400000000  0.4052560000000 1.0
C      1  0.5388420000000  0.4708020000000  0.4052600000000 1.0
C      1  0.4708030000000  0.4611470000000  0.4052640000000 1.0
C      1  0.4611490000000  0.5291860000000  0.4052600000000 1.0
C      1  0.5291970000000  0.5388530000000  0.5947360000000 1.0
C      1  0.5388510000000  0.4708140000000  0.5947400000000 1.0
C      1  0.4708120000000  0.4611600000000  0.5947440000000 1.0
C      1  0.4611580000000  0.5291980000000  0.5947400000000 1.0
C      1  0.5201390000000  0.4212940000000  0.5540230000000 1.0
C      1  0.4212930000000  0.4798670000000  0.5540230000000 1.0
C      1  0.4798660000000  0.5787140000000  0.5540140000000 1.0
C      1  0.5787120000000  0.5201400000000  0.5540130000000 1.0
C      1  0.5201340000000  0.4212860000000  0.4459860000000 1.0
C      1  0.4212880000000  0.4798600000000  0.4459870000000 1.0
C      1  0.4798610000000  0.5787060000000  0.4459770000000 1.0
C      1  0.5787070000000  0.5201330000000  0.4459770000000 1.0
C      1  0.4232050000000  0.4528790000000  0.5139260000000 1.0
C      1  0.4528790000000  0.5767960000000  0.5139170000000 1.0
C      1  0.5767960000000  0.5471220000000  0.5139130000000 1.0
C      1  0.5471220000000  0.4232060000000  0.5139230000000 1.0
C      1  0.4232040000000  0.4528780000000  0.4860870000000 1.0
C      1  0.4528780000000  0.5767940000000  0.4860770000000 1.0
C      1  0.5767950000000  0.5471210000000  0.4860740000000 1.0
C      1  0.5471210000000  0.4232040000000  0.4860830000000 1.0
END
