TITL C-19914-9995-3 -1095.62202523695 125000 -558.412532975519 0 0 81 (C1) n - 1
REM
REM in /rds/project/t2_vol4/rds-t2-cs072/BORA/CARBON/from-Arr/AIRSS/Generating-Clusters/GAP-ML-2020/Higher-Symm/SD-CG/HFTN-CG
REM
REM
REM
REM
REM
REM ./C.cell (b20cbc046b6831c77cfcea5457e17084)
REM AIRSS Version 0.9.1 bugfix July 2018 build 013d7b7c2542+ Fri, 06 Jul 2018 19:26:36 +0100
REM compiler GCC version 9.3.0
REM options -cpp -mtune=generic -march=x86-64 -g -O0
REM seed -882846589 -2125072000 341176637 -343581303 -2087782407 25819125 -1346178975 262943266 -1718147848 528346480 1360037296 982525269 -626813210 245352384 2119054671 -1315127572 1449606342 797620289 -316980708 -1238527130 -1787972342 -1067147605 -1670112574 789659383 -1994540434 1393025647 1236044047 2094522326 -744325827 -458787884 1592045449 -1219769355 -591583856
REM
CELL 1.54180   50.00000   50.00000   50.00000   90.00000   90.00000   90.00000
LATT -1
SFAC C  
C      1  0.5128240000000  0.4906980000000  0.5745120000000 1.0
C      1  0.4868200000000  0.4905440000000  0.4255890000000 1.0
C      1  0.5469550000000  0.4726450000000  0.5435250000000 1.0
C      1  0.4522950000000  0.4718150000000  0.4563100000000 1.0
C      1  0.4338030000000  0.5122830000000  0.5337270000000 1.0
C      1  0.5664340000000  0.5110700000000  0.4657580000000 1.0
C      1  0.5385770000000  0.4926470000000  0.5616220000000 1.0
C      1  0.4607100000000  0.4916530000000  0.4378970000000 1.0
C      1  0.5226190000000  0.4294920000000  0.5216590000000 1.0
C      1  0.4776820000000  0.4289250000000  0.4778310000000 1.0
C      1  0.5282150000000  0.5705570000000  0.4919030000000 1.0
C      1  0.4764020000000  0.5684290000000  0.5027920000000 1.0
C      1  0.5055670000000  0.4477920000000  0.5547210000000 1.0
C      1  0.4942710000000  0.4476000000000  0.4448160000000 1.0
C      1  0.4199170000000  0.5225380000000  0.4887740000000 1.0
C      1  0.5793810000000  0.5232990000000  0.5112280000000 1.0
C      1  0.4454890000000  0.5277000000000  0.4749930000000 1.0
C      1  0.5534450000000  0.5292970000000  0.5247120000000 1.0
C      1  0.4355720000000  0.4499250000000  0.5111010000000 1.0
C      1  0.5645280000000  0.4509370000000  0.4882090000000 1.0
C      1  0.4727910000000  0.4257670000000  0.5263480000000 1.0
C      1  0.5276220000000  0.4261990000000  0.4730720000000 1.0
C      1  0.5001840000000  0.5353510000000  0.5307050000000 1.0
C      1  0.4987590000000  0.5371800000000  0.4693660000000 1.0
C      1  0.5284270000000  0.4768640000000  0.4703120000000 1.0
C      1  0.4711270000000  0.4765370000000  0.5294530000000 1.0
C      1  0.4227130000000  0.5320730000000  0.5155460000000 1.0
C      1  0.5783080000000  0.5311200000000  0.4835440000000 1.0
C      1  0.4584240000000  0.4501070000000  0.5288020000000 1.0
C      1  0.5416240000000  0.4507660000000  0.4705810000000 1.0
C      1  0.4982580000000  0.4792430000000  0.4838780000000 1.0
C      1  0.5014210000000  0.4793640000000  0.5154680000000 1.0
C      1  0.5039680000000  0.4683300000000  0.4300550000000 1.0
C      1  0.4958080000000  0.4684940000000  0.5694990000000 1.0
C      1  0.4767340000000  0.4581790000000  0.4681550000000 1.0
C      1  0.5228750000000  0.4587460000000  0.5313030000000 1.0
C      1  0.4511110000000  0.4946450000000  0.5158730000000 1.0
C      1  0.5483110000000  0.4951970000000  0.4839290000000 1.0
C      1  0.4635640000000  0.4165160000000  0.4991890000000 1.0
C      1  0.5369470000000  0.4172590000000  0.5003040000000 1.0
C      1  0.5413790000000  0.5544170000000  0.5384940000000 1.0
C      1  0.4557970000000  0.5527300000000  0.4615830000000 1.0
C      1  0.4482240000000  0.5226780000000  0.5556920000000 1.0
C      1  0.5525360000000  0.5214860000000  0.4432220000000 1.0
C      1  0.5553350000000  0.5759530000000  0.4897850000000 1.0
C      1  0.4491120000000  0.5765340000000  0.5096960000000 1.0
C      1  0.4722400000000  0.4808830000000  0.5590100000000 1.0
C      1  0.5274270000000  0.4806550000000  0.4407130000000 1.0
C      1  0.5161290000000  0.5619200000000  0.5280960000000 1.0
C      1  0.4786020000000  0.5603390000000  0.4750850000000 1.0
C      1  0.5481560000000  0.5181590000000  0.5538200000000 1.0
C      1  0.4509130000000  0.5169530000000  0.4455820000000 1.0
C      1  0.5316400000000  0.5067550000000  0.4314900000000 1.0
C      1  0.4679260000000  0.5070560000000  0.5681430000000 1.0
C      1  0.4925910000000  0.5354630000000  0.4397180000000 1.0
C      1  0.5059560000000  0.5350790000000  0.5606820000000 1.0
C      1  0.4356550000000  0.4250860000000  0.4985570000000 1.0
C      1  0.5647090000000  0.4260430000000  0.5008200000000 1.0
C      1  0.4953270000000  0.5139170000000  0.5749270000000 1.0
C      1  0.5039530000000  0.5140610000000  0.4259010000000 1.0
C      1  0.4648430000000  0.5399590000000  0.4374190000000 1.0
C      1  0.5337310000000  0.5404740000000  0.5626410000000 1.0
C      1  0.4310690000000  0.4769630000000  0.5020340000000 1.0
C      1  0.5683290000000  0.4776420000000  0.4980840000000 1.0
C      1  0.5014770000000  0.4253200000000  0.4616070000000 1.0
C      1  0.4989130000000  0.4254030000000  0.5379060000000 1.0
C      1  0.4735980000000  0.5413690000000  0.5191210000000 1.0
C      1  0.5267150000000  0.5429730000000  0.4788530000000 1.0
C      1  0.5696520000000  0.4776550000000  0.5284620000000 1.0
C      1  0.4296140000000  0.4769650000000  0.4715560000000 1.0
C      1  0.5092220000000  0.5100930000000  0.5122190000000 1.0
C      1  0.4905780000000  0.5098600000000  0.4869290000000 1.0
C      1  0.4645820000000  0.5174890000000  0.4985220000000 1.0
C      1  0.5349770000000  0.5187700000000  0.5006060000000 1.0
C      1  0.4342930000000  0.5573640000000  0.5230970000000 1.0
C      1  0.5684590000000  0.5561720000000  0.4745330000000 1.0
C      1  0.5849640000000  0.4957700000000  0.5155810000000 1.0
C      1  0.4141740000000  0.4947880000000  0.4849680000000 1.0
C      1  0.4541280000000  0.5458260000000  0.5409100000000 1.0
C      1  0.5479270000000  0.5449620000000  0.4577520000000 1.0
C      1  0.5054190000000  0.5779440000000  0.5083640000000 1.0
END
