TITL C-19921-9961-12 0.000322836404311853 125000 -44.193384205772 0 0 7 (D(inf)h) n - 1
REM
REM in /rds/project/t2_vol4/rds-t2-cs072/BORA/CARBON/from-Arr/AIRSS/Generating-Clusters/GAP-ML-2020/Higher-Symm/SD-CG/HFTN-CG
REM
REM
REM
REM
REM
REM ./C.cell (b20cbc046b6831c77cfcea5457e17084)
REM AIRSS Version 0.9.1 bugfix July 2018 build 013d7b7c2542+ Fri, 06 Jul 2018 19:26:36 +0100
REM compiler GCC version 9.3.0
REM options -cpp -mtune=generic -march=x86-64 -g -O0
REM seed -1860837378 1426049498 1632319060 -676898347 -309533483 -628218320 -1281058180 -2018554862 -835129319 -1694624688 -2105913296 -1206690117 1092623043 1345289389 -1002122369 281147140 -2110743018 -356639210 -2117355467 -1575756785 -1446439729 909752367 -1700082610 -1704100788 -1493047286 1748588703 -219822982 542859731 644702803 -501907428 916107036 -632141779 -1197781936
REM
CELL 1.54180   50.00000   50.00000   50.00000   90.00000   90.00000   90.00000
LATT -1
SFAC C  
C      1  0.5000000000000  0.4997210000000  0.5002280000000 1.0
C      1  0.4232650000000  0.4997210000000  0.5002280000000 1.0
C      1  0.4489020000000  0.4997210000000  0.5002280000000 1.0
C      1  0.5510980000000  0.4997210000000  0.5002280000000 1.0
C      1  0.4746190000000  0.4997210000000  0.5002280000000 1.0
C      1  0.5253810000000  0.4997210000000  0.5002280000000 1.0
C      1  0.5767350000000  0.4997210000000  0.5002280000000 1.0
END
