TITL C-19525-9025-3 -24.6373447257053 125000 -482.969506951512 0 0 71 (C3h) n - 1
REM
REM in /rds/project/t2_vol4/rds-t2-cs072/BORA/CARBON/from-Arr/AIRSS/Generating-Clusters/GAP-ML-2020/Higher-Symm/SD-CG/HFTN-CG
REM
REM
REM
REM
REM
REM ./C.cell (b20cbc046b6831c77cfcea5457e17084)
REM AIRSS Version 0.9.1 bugfix July 2018 build 013d7b7c2542+ Fri, 06 Jul 2018 19:26:36 +0100
REM compiler GCC version 9.3.0
REM options -cpp -mtune=generic -march=x86-64 -g -O0
REM seed 254879239 1500019994 -626953470 -1115022437 1931146232 -1849708976 1767495596 321008500 191839880 -837147050 54836548 -1649983900 -569352631 1506622731 -2111003219 766425523 -189097034 -1769831743 751983694 -1024460504 1465257206 58961328 1747350526 -1138264779 1649434903 769015105 60437283 -403041661 121101582 749147295 2121635136 1853746532 -731686851
REM
CELL 1.54180   50.00000   50.00000   50.00000   90.00000   90.00000   90.00000
LATT -1
SFAC C  
C      1  0.5367950000000  0.4378190000000  0.5245840000000 1.0
C      1  0.5354710000000  0.5629910000000  0.5245840000000 1.0
C      1  0.4277310000000  0.4992590000000  0.5245850000000 1.0
C      1  0.5367950000000  0.4378190000000  0.4784260000000 1.0
C      1  0.5354710000000  0.5629910000000  0.4784260000000 1.0
C      1  0.4277310000000  0.4992580000000  0.4784270000000 1.0
C      1  0.5292540000000  0.5000500000000  0.5555850000000 1.0
C      1  0.4853480000000  0.5253440000000  0.5555850000000 1.0
C      1  0.4853960000000  0.4746740000000  0.5555850000000 1.0
C      1  0.5292530000000  0.5000500000000  0.4474250000000 1.0
C      1  0.4853480000000  0.5253440000000  0.4474260000000 1.0
C      1  0.4853950000000  0.4746740000000  0.4474260000000 1.0
C      1  0.5135960000000  0.5228290000000  0.4878540000000 1.0
C      1  0.4734500000000  0.5003960000000  0.4878550000000 1.0
C      1  0.5129510000000  0.4768440000000  0.4878540000000 1.0
C      1  0.5135960000000  0.5228290000000  0.5151560000000 1.0
C      1  0.4734500000000  0.5003960000000  0.5151560000000 1.0
C      1  0.5129510000000  0.4768440000000  0.5151560000000 1.0
C      1  0.5582370000000  0.5487580000000  0.4873280000000 1.0
C      1  0.4286740000000  0.5260910000000  0.4873290000000 1.0
C      1  0.5130860000000  0.4252200000000  0.4873280000000 1.0
C      1  0.5582370000000  0.5487580000000  0.5156820000000 1.0
C      1  0.4286740000000  0.5260910000000  0.5156830000000 1.0
C      1  0.5130860000000  0.4252200000000  0.5156820000000 1.0
C      1  0.4863880000000  0.5238560000000  0.5251220000000 1.0
C      1  0.4861650000000  0.4763190000000  0.5251220000000 1.0
C      1  0.5274440000000  0.4998940000000  0.5251220000000 1.0
C      1  0.4863880000000  0.5238560000000  0.4778890000000 1.0
C      1  0.4861640000000  0.4763190000000  0.4778890000000 1.0
C      1  0.5274440000000  0.4998940000000  0.4778890000000 1.0
C      1  0.4924490000000  0.5664220000000  0.5257250000000 1.0
C      1  0.4462710000000  0.4602850000000  0.5257250000000 1.0
C      1  0.5612780000000  0.4733620000000  0.5257250000000 1.0
C      1  0.4924490000000  0.5664220000000  0.4772860000000 1.0
C      1  0.4462710000000  0.4602840000000  0.4772860000000 1.0
C      1  0.5612770000000  0.4733620000000  0.4772850000000 1.0
C      1  0.4465990000000  0.5410760000000  0.5320990000000 1.0
C      1  0.4911460000000  0.4332510000000  0.5320990000000 1.0
C      1  0.5622520000000  0.5257420000000  0.5320980000000 1.0
C      1  0.4465990000000  0.5410760000000  0.4709120000000 1.0
C      1  0.4911460000000  0.4332510000000  0.4709120000000 1.0
C      1  0.5622520000000  0.5257420000000  0.4709120000000 1.0
C      1  0.5014500000000  0.4490860000000  0.5543230000000 1.0
C      1  0.5433870000000  0.5267480000000  0.5543230000000 1.0
C      1  0.4551610000000  0.5242350000000  0.5543230000000 1.0
C      1  0.5014500000000  0.4490850000000  0.4486870000000 1.0
C      1  0.5433860000000  0.5267480000000  0.4486870000000 1.0
C      1  0.4551600000000  0.5242350000000  0.4486880000000 1.0
C      1  0.5455190000000  0.4735600000000  0.5518700000000 1.0
C      1  0.5001570000000  0.5526750000000  0.5518700000000 1.0
C      1  0.4543220000000  0.4738330000000  0.5518700000000 1.0
C      1  0.5455180000000  0.4735600000000  0.4511400000000 1.0
C      1  0.5001560000000  0.5526750000000  0.4511410000000 1.0
C      1  0.4543220000000  0.4738330000000  0.4511410000000 1.0
C      1  0.4710660000000  0.4486190000000  0.4865940000000 1.0
C      1  0.5589820000000  0.5006680000000  0.4865940000000 1.0
C      1  0.4699490000000  0.5507810000000  0.4865940000000 1.0
C      1  0.4710660000000  0.4486190000000  0.5164170000000 1.0
C      1  0.5589820000000  0.5006680000000  0.5164160000000 1.0
C      1  0.4699490000000  0.5507810000000  0.5164160000000 1.0
C      1  0.5275970000000  0.5503150000000  0.5500990000000 1.0
C      1  0.4426460000000  0.4987770000000  0.5501000000000 1.0
C      1  0.5297550000000  0.4509760000000  0.5500990000000 1.0
C      1  0.5275970000000  0.5503150000000  0.4529110000000 1.0
C      1  0.4426460000000  0.4987770000000  0.4529110000000 1.0
C      1  0.5297540000000  0.4509760000000  0.4529110000000 1.0
C      1  0.5126990000000  0.5704500000000  0.5015050000000 1.0
C      1  0.5546400000000  0.4538100000000  0.5015050000000 1.0
C      1  0.4326570000000  0.4758080000000  0.5015060000000 1.0
C      1  0.4999990000000  0.5000230000000  0.5642140000000 1.0
C      1  0.4999990000000  0.5000230000000  0.4387960000000 1.0
END
