TITL C-199738-9763-4 -24.0842663882705 125000 -617.508748411468 0 0 87 (C1) n - 1
REM
REM in /rds/project/t2_vol4/rds-t2-cs072/BORA/CARBON/from-Arr/AIRSS/Generating-Clusters/GAP-ML-2020/Higher-Symm/SD-CG/HFTN-CG
REM
REM
REM
REM
REM
REM ./C.cell (b20cbc046b6831c77cfcea5457e17084)
REM AIRSS Version 0.9.1 bugfix July 2018 build 013d7b7c2542+ Fri, 06 Jul 2018 19:26:36 +0100
REM compiler GCC version 9.3.0
REM options -cpp -mtune=generic -march=x86-64 -g -O0
REM seed 1620463875 -1437628157 1543062255 -544678852 1351390782 -2063125583 -976295209 -521570477 -898947814 -644886432 1683948917 786419086 -174682813 1382562103 -1810461528 -1664569453 1401860946 -481387743 1951778989 735765530 472731469 -1664374633 952172522 -2006029939 999826038 -1097633536 -322490215 836339184 -329207680 -594849929 -173740330 1766619163 -801310341
REM
CELL 1.54180   50.00000   50.00000   50.00000   90.00000   90.00000   90.00000
LATT -1
SFAC C  
C      1  0.5294460000000  0.4409980000000  0.5505920000000 1.0
C      1  0.5289000000000  0.4462740000000  0.4486880000000 1.0
C      1  0.4440090000000  0.4445440000000  0.5012220000000 1.0
C      1  0.5252770000000  0.5578320000000  0.4488690000000 1.0
C      1  0.5319570000000  0.5518910000000  0.5482180000000 1.0
C      1  0.4406810000000  0.5548660000000  0.5042860000000 1.0
C      1  0.5058300000000  0.4459950000000  0.4323080000000 1.0
C      1  0.4414990000000  0.4430980000000  0.5287770000000 1.0
C      1  0.5567470000000  0.4354580000000  0.5503490000000 1.0
C      1  0.5117190000000  0.5536800000000  0.5672420000000 1.0
C      1  0.4367130000000  0.5553810000000  0.4768660000000 1.0
C      1  0.5520650000000  0.5578080000000  0.4582680000000 1.0
C      1  0.5097230000000  0.5327540000000  0.5096300000000 1.0
C      1  0.4946780000000  0.5044140000000  0.4727210000000 1.0
C      1  0.4816720000000  0.5335930000000  0.5045320000000 1.0
C      1  0.5280980000000  0.4898590000000  0.4925820000000 1.0
C      1  0.5011790000000  0.4927130000000  0.5282710000000 1.0
C      1  0.4854890000000  0.4661740000000  0.4957290000000 1.0
C      1  0.5181790000000  0.5613330000000  0.5211460000000 1.0
C      1  0.5100580000000  0.5698690000000  0.4722580000000 1.0
C      1  0.4712640000000  0.5621240000000  0.5063500000000 1.0
C      1  0.5192250000000  0.4316990000000  0.4744850000000 1.0
C      1  0.5147210000000  0.4303270000000  0.5260150000000 1.0
C      1  0.4747720000000  0.4379690000000  0.4963950000000 1.0
C      1  0.5545420000000  0.5637100000000  0.4867340000000 1.0
C      1  0.4602630000000  0.5627380000000  0.4606760000000 1.0
C      1  0.4859090000000  0.5608420000000  0.5552230000000 1.0
C      1  0.5571580000000  0.4421100000000  0.5048550000000 1.0
C      1  0.4666350000000  0.4362390000000  0.5427080000000 1.0
C      1  0.4819260000000  0.4378980000000  0.4465970000000 1.0
C      1  0.4610650000000  0.4581470000000  0.5624730000000 1.0
C      1  0.5710660000000  0.4519850000000  0.4848690000000 1.0
C      1  0.4665030000000  0.4602690000000  0.4341530000000 1.0
C      1  0.4538050000000  0.5408620000000  0.4416100000000 1.0
C      1  0.5736530000000  0.5411310000000  0.4902070000000 1.0
C      1  0.4726950000000  0.5386740000000  0.5698200000000 1.0
C      1  0.4741580000000  0.5095870000000  0.4922190000000 1.0
C      1  0.5027500000000  0.5189990000000  0.5334830000000 1.0
C      1  0.5190570000000  0.5161730000000  0.4866340000000 1.0
C      1  0.4777840000000  0.4880970000000  0.5116500000000 1.0
C      1  0.5049540000000  0.4775480000000  0.4783840000000 1.0
C      1  0.5273340000000  0.4836020000000  0.5195400000000 1.0
C      1  0.4991360000000  0.5311420000000  0.5810790000000 1.0
C      1  0.5705300000000  0.5354680000000  0.4612990000000 1.0
C      1  0.4310220000000  0.5330480000000  0.4589830000000 1.0
C      1  0.4911780000000  0.4686490000000  0.4205030000000 1.0
C      1  0.5625290000000  0.4538810000000  0.5311610000000 1.0
C      1  0.4368680000000  0.4651770000000  0.5471690000000 1.0
C      1  0.5051260000000  0.4925190000000  0.4166270000000 1.0
C      1  0.4257010000000  0.4886980000000  0.5366410000000 1.0
C      1  0.5555570000000  0.4836270000000  0.5371050000000 1.0
C      1  0.5139550000000  0.5075530000000  0.5835670000000 1.0
C      1  0.4222680000000  0.5094380000000  0.4709860000000 1.0
C      1  0.5642830000000  0.5126410000000  0.4462720000000 1.0
C      1  0.5451740000000  0.4698750000000  0.4404730000000 1.0
C      1  0.4279800000000  0.4667190000000  0.4904490000000 1.0
C      1  0.5260280000000  0.4642390000000  0.5697080000000 1.0
C      1  0.5497560000000  0.5285490000000  0.5529660000000 1.0
C      1  0.4274110000000  0.5316210000000  0.5167400000000 1.0
C      1  0.5208280000000  0.5355420000000  0.4296000000000 1.0
C      1  0.5291210000000  0.5723270000000  0.4957840000000 1.0
C      1  0.4817400000000  0.5704380000000  0.4779620000000 1.0
C      1  0.4896000000000  0.5693390000000  0.5291970000000 1.0
C      1  0.5306060000000  0.4305650000000  0.5010460000000 1.0
C      1  0.4863610000000  0.4290800000000  0.5233920000000 1.0
C      1  0.4899100000000  0.4288840000000  0.4719350000000 1.0
C      1  0.5789580000000  0.5190990000000  0.5095210000000 1.0
C      1  0.4685750000000  0.5233540000000  0.4241530000000 1.0
C      1  0.4507990000000  0.5206740000000  0.5643650000000 1.0
C      1  0.5802300000000  0.4767900000000  0.4774050000000 1.0
C      1  0.4760080000000  0.4761690000000  0.5793560000000 1.0
C      1  0.4452340000000  0.4786190000000  0.4409100000000 1.0
C      1  0.5048200000000  0.4794490000000  0.5822100000000 1.0
C      1  0.5668610000000  0.4846090000000  0.4526390000000 1.0
C      1  0.4294900000000  0.4820340000000  0.4653920000000 1.0
C      1  0.4973980000000  0.5203240000000  0.4204170000000 1.0
C      1  0.5664090000000  0.5127110000000  0.5350610000000 1.0
C      1  0.4325060000000  0.5165190000000  0.5415280000000 1.0
C      1  0.4162730000000  0.5120510000000  0.4987260000000 1.0
C      1  0.5403650000000  0.5096460000000  0.5727900000000 1.0
C      1  0.5420890000000  0.5158640000000  0.4287270000000 1.0
C      1  0.4175820000000  0.4857700000000  0.5095500000000 1.0
C      1  0.5325720000000  0.4896650000000  0.4235350000000 1.0
C      1  0.5466150000000  0.4834050000000  0.5651530000000 1.0
C      1  0.4603600000000  0.4984660000000  0.5771900000000 1.0
C      1  0.5857780000000  0.4957780000000  0.4962180000000 1.0
C      1  0.4532490000000  0.5008680000000  0.4268720000000 1.0
END
