TITL C-193869-3258-7 0.00095196426863653 125000 -119.569111743965 0 0 19 (D2) n - 1
REM
REM in /rds/project/t2_vol4/rds-t2-cs072/BORA/CARBON/from-Arr/AIRSS/Generating-Clusters/GAP-ML-2020/Higher-Symm/SD-CG/HFTN-CG
REM
REM
REM
REM
REM
REM ./C.cell (b20cbc046b6831c77cfcea5457e17084)
REM AIRSS Version 0.9.1 bugfix July 2018 build 013d7b7c2542+ Fri, 06 Jul 2018 19:26:36 +0100
REM compiler GCC version 9.3.0
REM options -cpp -mtune=generic -march=x86-64 -g -O0
REM seed -606754579 1189627367 -1704016327 -850854660 -30757966 -994669332 1764793095 -1897580923 -2009575664 -1103459692 -973656744 1202133248 2065066736 20898813 120289821 1762664 -637842762 -712322903 -4430379 1258928353 -770637593 369960027 -1304477468 -353781617 505495998 -1857936603 -446485176 -1608490260 319202090 -438606337 535781915 -304231972 1450151868
REM
CELL 1.54180   50.00000   50.00000   50.00000   90.00000   90.00000   90.00000
LATT -1
SFAC C  
C      1  0.5192110000000  0.4804290000000  0.4839640000000 1.0
C      1  0.4817870000000  0.5156480000000  0.4839630000000 1.0
C      1  0.5192120000000  0.5156500000000  0.5152290000000 1.0
C      1  0.4817880000000  0.4804300000000  0.5152320000000 1.0
C      1  0.4543710000000  0.4858000000000  0.5061490000000 1.0
C      1  0.5466290000000  0.5102790000000  0.5061440000000 1.0
C      1  0.4543700000000  0.5102770000000  0.4930490000000 1.0
C      1  0.5466280000000  0.4858010000000  0.4930470000000 1.0
C      1  0.5474910000000  0.5371380000000  0.4962830000000 1.0
C      1  0.4535070000000  0.4589400000000  0.4962900000000 1.0
C      1  0.5474920000000  0.4589420000000  0.5029080000000 1.0
C      1  0.4535070000000  0.5371370000000  0.5029070000000 1.0
C      1  0.5211320000000  0.5432540000000  0.5063570000000 1.0
C      1  0.4798670000000  0.4528250000000  0.5063640000000 1.0
C      1  0.5211320000000  0.4528250000000  0.4928350000000 1.0
C      1  0.4798660000000  0.5432530000000  0.4928320000000 1.0
C      1  0.5005000000000  0.4361200000000  0.4996000000000 1.0
C      1  0.5004990000000  0.5599580000000  0.4995940000000 1.0
C      1  0.5004990000000  0.4980390000000  0.4995970000000 1.0
END
