TITL C-19541-3123-10 53.9724499537415 125000 -106.597336560052 0 0 17 (Cs) n - 1
REM
REM in /rds/project/t2_vol4/rds-t2-cs072/BORA/CARBON/from-Arr/AIRSS/Generating-Clusters/GAP-ML-2020/Higher-Symm/SD-CG/HFTN-CG
REM
REM
REM
REM
REM
REM ./C.cell (b20cbc046b6831c77cfcea5457e17084)
REM AIRSS Version 0.9.1 bugfix July 2018 build 013d7b7c2542+ Fri, 06 Jul 2018 19:26:36 +0100
REM compiler GCC version 9.3.0
REM options -cpp -mtune=generic -march=x86-64 -g -O0
REM seed 1117964029 -986116101 1491112913 -2026199265 -99840727 -898907447 809134979 1822420106 -1839038126 -2056349447 -2046120693 24278214 -530528636 558865262 375980431 -1225518043 -683386488 872282241 -957233667 -202604153 1271795974 2095635542 -84620380 1928503423 2103885631 -782802529 -1808469800 1011444206 2047556576 1039098070 311654500 -1223359423 -1980714744
REM
CELL 1.54180   50.00000   50.00000   50.00000   90.00000   90.00000   90.00000
LATT -1
SFAC C  
C      1  0.5489970000000  0.4868940000000  0.4683120000000 1.0
C      1  0.5380810000000  0.5339050000000  0.4895740000000 1.0
C      1  0.5397190000000  0.5149830000000  0.5384090000000 1.0
C      1  0.5389480000000  0.4674810000000  0.5163060000000 1.0
C      1  0.5306330000000  0.4904230000000  0.5309660000000 1.0
C      1  0.5301520000000  0.5273300000000  0.5161130000000 1.0
C      1  0.5435920000000  0.5141040000000  0.4711220000000 1.0
C      1  0.5441790000000  0.4691010000000  0.4892330000000 1.0
C      1  0.4824760000000  0.5091120000000  0.5256770000000 1.0
C      1  0.5074230000000  0.4635490000000  0.5076700000000 1.0
C      1  0.5172130000000  0.4831930000000  0.4601450000000 1.0
C      1  0.5065550000000  0.5300510000000  0.4809070000000 1.0
C      1  0.5149490000000  0.5107810000000  0.4627320000000 1.0
C      1  0.5155460000000  0.4650420000000  0.4811390000000 1.0
C      1  0.5019770000000  0.4866840000000  0.5234260000000 1.0
C      1  0.5014880000000  0.5241600000000  0.5083440000000 1.0
C      1  0.4585100000000  0.5138530000000  0.5382350000000 1.0
END
