TITL C-19924-52-2 -227.548418488015 125000 -831.384674942951 0 0 120 (C1) n - 1
REM
REM in /rds/project/t2_vol4/rds-t2-cs072/BORA/CARBON/from-Arr/AIRSS/Generating-Clusters/GAP-ML-2020/Higher-Symm/SD-CG/HFTN-CG
REM
REM
REM
REM
REM
REM ./C.cell (b20cbc046b6831c77cfcea5457e17084)
REM AIRSS Version 0.9.1 bugfix July 2018 build 013d7b7c2542+ Fri, 06 Jul 2018 19:26:36 +0100
REM compiler GCC version 9.3.0
REM options -cpp -mtune=generic -march=x86-64 -g -O0
REM seed -1777924700 547703922 218454268 -1275297128 -656363852 -1411308507 -1746588880 -1399978146 2041826819 -882290667 -822180198 1920696429 929200312 -228350000 1976495497 -288834297 -574510110 1695013161 374963523 -581302387 -882196571 -48576248 -431810137 -735373502 1375367425 -319441756 -545574484 -1204045258 1512258113 -516657178 -627330955 -1499558681 1444346209
REM
CELL 1.54180   50.00000   50.00000   50.00000   90.00000   90.00000   90.00000
LATT -1
SFAC C  
C      1  0.4793640000000  0.5126490000000  0.4602040000000 1.0
C      1  0.4765080000000  0.5320840000000  0.5302840000000 1.0
C      1  0.4779640000000  0.4653530000000  0.5110780000000 1.0
C      1  0.5779110000000  0.5369930000000  0.4550890000000 1.0
C      1  0.5810290000000  0.5161450000000  0.5563900000000 1.0
C      1  0.5792490000000  0.4506450000000  0.4867830000000 1.0
C      1  0.4492360000000  0.5171700000000  0.5263170000000 1.0
C      1  0.4505140000000  0.4717550000000  0.5000870000000 1.0
C      1  0.4504280000000  0.5161890000000  0.4725680000000 1.0
C      1  0.5098620000000  0.4965960000000  0.5357440000000 1.0
C      1  0.5098620000000  0.4723580000000  0.4772990000000 1.0
C      1  0.5095600000000  0.5331590000000  0.4906350000000 1.0
C      1  0.4709470000000  0.4830210000000  0.4543430000000 1.0
C      1  0.4688270000000  0.5492920000000  0.5069130000000 1.0
C      1  0.4703290000000  0.4725230000000  0.5385440000000 1.0
C      1  0.4459090000000  0.5304920000000  0.4983610000000 1.0
C      1  0.4463960000000  0.4880280000000  0.5266880000000 1.0
C      1  0.4478800000000  0.4858740000000  0.4744800000000 1.0
C      1  0.3991380000000  0.5141840000000  0.5083080000000 1.0
C      1  0.3994390000000  0.4859450000000  0.5074520000000 1.0
C      1  0.3998210000000  0.5008790000000  0.4833830000000 1.0
C      1  0.5764100000000  0.5102510000000  0.4424760000000 1.0
C      1  0.5750250000000  0.5396630000000  0.5397210000000 1.0
C      1  0.5766910000000  0.4462680000000  0.5155290000000 1.0
C      1  0.5129090000000  0.4878070000000  0.5851810000000 1.0
C      1  0.5124700000000  0.4314870000000  0.4474780000000 1.0
C      1  0.5111080000000  0.5774550000000  0.4672050000000 1.0
C      1  0.4313610000000  0.4456580000000  0.5054370000000 1.0
C      1  0.4305540000000  0.5222650000000  0.4477960000000 1.0
C      1  0.4290980000000  0.5345170000000  0.5448790000000 1.0
C      1  0.5339730000000  0.4282060000000  0.4669500000000 1.0
C      1  0.5317790000000  0.5606900000000  0.4549810000000 1.0
C      1  0.5345000000000  0.5062070000000  0.5780470000000 1.0
C      1  0.4475610000000  0.5687170000000  0.5174060000000 1.0
C      1  0.4500190000000  0.4516910000000  0.5492830000000 1.0
C      1  0.4491310000000  0.4808590000000  0.4324020000000 1.0
C      1  0.4281300000000  0.4796750000000  0.4528820000000 1.0
C      1  0.4260810000000  0.5520420000000  0.5054730000000 1.0
C      1  0.4277960000000  0.4695580000000  0.5412770000000 1.0
C      1  0.4582510000000  0.4505840000000  0.4246950000000 1.0
C      1  0.4591360000000  0.5887840000000  0.4961300000000 1.0
C      1  0.4596730000000  0.4584190000000  0.5788740000000 1.0
C      1  0.5250400000000  0.4803670000000  0.5199170000000 1.0
C      1  0.5243180000000  0.4943140000000  0.4696210000000 1.0
C      1  0.5251450000000  0.5336780000000  0.5136050000000 1.0
C      1  0.4480030000000  0.5100130000000  0.4255950000000 1.0
C      1  0.4469280000000  0.5589760000000  0.5458580000000 1.0
C      1  0.4500710000000  0.4321180000000  0.5254050000000 1.0
C      1  0.5518420000000  0.5740210000000  0.5174970000000 1.0
C      1  0.5511140000000  0.4460420000000  0.5553980000000 1.0
C      1  0.5499750000000  0.4762930000000  0.4242450000000 1.0
C      1  0.4919640000000  0.4189700000000  0.4900430000000 1.0
C      1  0.4888670000000  0.5402780000000  0.4404020000000 1.0
C      1  0.4930570000000  0.5315000000000  0.5753610000000 1.0
C      1  0.4584960000000  0.4883440000000  0.5846270000000 1.0
C      1  0.4578010000000  0.4320990000000  0.4482290000000 1.0
C      1  0.4576160000000  0.5780400000000  0.4677190000000 1.0
C      1  0.5508210000000  0.5207730000000  0.5143510000000 1.0
C      1  0.5477610000000  0.4937480000000  0.5085380000000 1.0
C      1  0.5485720000000  0.4980190000000  0.4817090000000 1.0
C      1  0.5307100000000  0.5199530000000  0.4210560000000 1.0
C      1  0.5326680000000  0.5582460000000  0.5593750000000 1.0
C      1  0.5316400000000  0.4201650000000  0.5201110000000 1.0
C      1  0.4230170000000  0.5512150000000  0.4445950000000 1.0
C      1  0.4230160000000  0.5220200000000  0.5713240000000 1.0
C      1  0.4232320000000  0.4276310000000  0.4830780000000 1.0
C      1  0.4759950000000  0.5507770000000  0.5566170000000 1.0
C      1  0.4749110000000  0.4180480000000  0.5156290000000 1.0
C      1  0.4724470000000  0.5248540000000  0.4173500000000 1.0
C      1  0.5978180000000  0.5213780000000  0.4946170000000 1.0
C      1  0.6023120000000  0.4869650000000  0.5274520000000 1.0
C      1  0.6030150000000  0.4935260000000  0.4994170000000 1.0
C      1  0.4097540000000  0.5004270000000  0.4562030000000 1.0
C      1  0.4082990000000  0.5380770000000  0.5220200000000 1.0
C      1  0.4101860000000  0.4623580000000  0.5208790000000 1.0
C      1  0.5251390000000  0.4400900000000  0.5646980000000 1.0
C      1  0.5237090000000  0.4718660000000  0.4142900000000 1.0
C      1  0.5263960000000  0.5864720000000  0.5183280000000 1.0
C      1  0.5550660000000  0.5049100000000  0.4252670000000 1.0
C      1  0.5562000000000  0.5600640000000  0.5432950000000 1.0
C      1  0.5556580000000  0.4327250000000  0.5295000000000 1.0
C      1  0.5656630000000  0.4636130000000  0.4446800000000 1.0
C      1  0.5652980000000  0.5602630000000  0.4958090000000 1.0
C      1  0.5670670000000  0.4698360000000  0.5573970000000 1.0
C      1  0.4897820000000  0.5744880000000  0.5502320000000 1.0
C      1  0.4884240000000  0.4167360000000  0.5388320000000 1.0
C      1  0.4894660000000  0.5115160000000  0.4016110000000 1.0
C      1  0.5140600000000  0.4228150000000  0.5433830000000 1.0
C      1  0.5132650000000  0.4999380000000  0.4092070000000 1.0
C      1  0.5154630000000  0.5770580000000  0.5446670000000 1.0
C      1  0.5186590000000  0.5420230000000  0.4363340000000 1.0
C      1  0.5216030000000  0.5338450000000  0.5738130000000 1.0
C      1  0.5206440000000  0.4189560000000  0.4923780000000 1.0
C      1  0.4826990000000  0.4455420000000  0.4147620000000 1.0
C      1  0.4837400000000  0.6000870000000  0.4985640000000 1.0
C      1  0.4838470000000  0.4500470000000  0.5873050000000 1.0
C      1  0.4840200000000  0.5636230000000  0.4610570000000 1.0
C      1  0.4859530000000  0.5016420000000  0.5779480000000 1.0
C      1  0.4851070000000  0.4325660000000  0.4632240000000 1.0
C      1  0.5996410000000  0.5310200000000  0.4697240000000 1.0
C      1  0.6047760000000  0.5056500000000  0.5478090000000 1.0
C      1  0.5939110000000  0.4748920000000  0.4796840000000 1.0
C      1  0.5091590000000  0.4471150000000  0.4213260000000 1.0
C      1  0.5098470000000  0.5925250000000  0.4946860000000 1.0
C      1  0.5100280000000  0.4571910000000  0.5830660000000 1.0
C      1  0.5770250000000  0.5364740000000  0.5100320000000 1.0
C      1  0.5852480000000  0.4659430000000  0.5347940000000 1.0
C      1  0.5839610000000  0.4837560000000  0.4539950000000 1.0
C      1  0.4335850000000  0.4233270000000  0.4600540000000 1.0
C      1  0.4332260000000  0.5728400000000  0.4542420000000 1.0
C      1  0.4345800000000  0.5030820000000  0.5843620000000 1.0
C      1  0.4891340000000  0.5523630000000  0.4877680000000 1.0
C      1  0.4897670000000  0.4871850000000  0.5526500000000 1.0
C      1  0.4892340000000  0.4621160000000  0.4617200000000 1.0
C      1  0.5613540000000  0.4969720000000  0.5680030000000 1.0
C      1  0.5606020000000  0.4428710000000  0.4649280000000 1.0
C      1  0.5589570000000  0.5563170000000  0.4668940000000 1.0
C      1  0.5031680000000  0.5111410000000  0.4753660000000 1.0
C      1  0.5030960000000  0.5211400000000  0.5251060000000 1.0
C      1  0.5045300000000  0.4699840000000  0.5043150000000 1.0
END
