TITL C-19938-9265-3 -0.00813486683830728 125000 -51.3110357264189 0 0 8 (D(inf)h) n - 1
REM
REM in /rds/project/t2_vol4/rds-t2-cs072/BORA/CARBON/from-Arr/AIRSS/Generating-Clusters/GAP-ML-2020/Higher-Symm/SD-CG/HFTN-CG
REM
REM
REM
REM
REM
REM ./C.cell (b20cbc046b6831c77cfcea5457e17084)
REM AIRSS Version 0.9.1 bugfix July 2018 build 013d7b7c2542+ Fri, 06 Jul 2018 19:26:36 +0100
REM compiler GCC version 9.3.0
REM options -cpp -mtune=generic -march=x86-64 -g -O0
REM seed -975563875 1777660471 -302766279 -215338004 -1193245557 -1782130818 -427629435 -673967848 -1192894684 1997173269 604229211 1555830224 -1061979049 551095574 -1126132531 936419595 -1963377002 1211336485 -896604551 -517274443 404895215 2066128617 2110463589 703106789 -695255690 -955850318 522818072 318896987 -2132605466 -216502356 -621528842 2099864911 -1963467295
REM
CELL 1.54180   50.00000   50.00000   50.00000   90.00000   90.00000   90.00000
LATT -1
SFAC C  
C      1  0.5020310000000  0.5000130000000  0.4358710000000 1.0
C      1  0.5020310000000  0.5000130000000  0.5381020000000 1.0
C      1  0.5020310000000  0.5000130000000  0.4618980000000 1.0
C      1  0.5020310000000  0.5000130000000  0.4869750000000 1.0
C      1  0.5020310000000  0.5000130000000  0.5130250000000 1.0
C      1  0.5020310000000  0.5000130000000  0.5641290000000 1.0
C      1  0.5020310000000  0.5000130000000  0.4103490000000 1.0
C      1  0.5020310000000  0.5000130000000  0.5896510000000 1.0
END
