TITL C-19940-47-4 -0.18378036218313 125000 -1121.86408484518 0 0 155 (C1) n - 1
REM
REM in /rds/project/t2_vol4/rds-t2-cs072/BORA/CARBON/from-Arr/AIRSS/Generating-Clusters/GAP-ML-2020/Higher-Symm/SD-CG/HFTN-CG
REM
REM
REM
REM
REM
REM ./C.cell (b20cbc046b6831c77cfcea5457e17084)
REM AIRSS Version 0.9.1 bugfix July 2018 build 013d7b7c2542+ Fri, 06 Jul 2018 19:26:36 +0100
REM compiler GCC version 9.3.0
REM options -cpp -mtune=generic -march=x86-64 -g -O0
REM seed 342757625 2028043526 -1187392642 -1633391083 -432004819 605880981 -160531425 -1638945890 1133593393 2090348639 -1561299780 -1929939688 1921764822 1818411669 -1133819628 -280191799 634993832 343254040 917895487 807462034 654499917 1526779148 -1339853499 -1104273762 2083165169 -532132002 591491657 -41421776 1412832080 -1220609433 1441912373 -1639270971 -1947424908
REM
CELL 1.54180   50.00000   50.00000   50.00000   90.00000   90.00000   90.00000
LATT -1
SFAC C  
C      1  0.5711410000000  0.5753110000000  0.4702190000000 1.0
C      1  0.5692690000000  0.5750210000000  0.5252030000000 1.0
C      1  0.5679280000000  0.5399600000000  0.5667860000000 1.0
C      1  0.5689110000000  0.4871950000000  0.5790300000000 1.0
C      1  0.5706680000000  0.4386230000000  0.5546170000000 1.0
C      1  0.5698880000000  0.4188420000000  0.5039470000000 1.0
C      1  0.5683020000000  0.4363820000000  0.4528250000000 1.0
C      1  0.5682050000000  0.4835440000000  0.4227680000000 1.0
C      1  0.5697440000000  0.5389920000000  0.4294050000000 1.0
C      1  0.5047190000000  0.4334740000000  0.5882740000000 1.0
C      1  0.5049370000000  0.3923580000000  0.5250780000000 1.0
C      1  0.5044770000000  0.4008550000000  0.4497300000000 1.0
C      1  0.5042420000000  0.4567560000000  0.4001050000000 1.0
C      1  0.5049540000000  0.5313700000000  0.3966530000000 1.0
C      1  0.5049700000000  0.5918450000000  0.4403010000000 1.0
C      1  0.5046970000000  0.6070190000000  0.5132320000000 1.0
C      1  0.5044800000000  0.5729390000000  0.5799460000000 1.0
C      1  0.5041450000000  0.5049340000000  0.6108930000000 1.0
C      1  0.4830010000000  0.4569360000000  0.4548960000000 1.0
C      1  0.4845970000000  0.4830750000000  0.4421310000000 1.0
C      1  0.4906460000000  0.5343860000000  0.4565850000000 1.0
C      1  0.4920670000000  0.5478210000000  0.4814010000000 1.0
C      1  0.4833020000000  0.5645630000000  0.5268240000000 1.0
C      1  0.4908800000000  0.5223960000000  0.5521370000000 1.0
C      1  0.4894950000000  0.4949640000000  0.5572800000000 1.0
C      1  0.4949690000000  0.4583060000000  0.5352930000000 1.0
C      1  0.4953170000000  0.4477630000000  0.4950420000000 1.0
C      1  0.5805810000000  0.5519350000000  0.4540260000000 1.0
C      1  0.5803610000000  0.5686240000000  0.4980150000000 1.0
C      1  0.5752420000000  0.5508730000000  0.5407530000000 1.0
C      1  0.5775820000000  0.5120870000000  0.5654120000000 1.0
C      1  0.5794890000000  0.4661100000000  0.5613660000000 1.0
C      1  0.5808100000000  0.4344100000000  0.5273130000000 1.0
C      1  0.5758870000000  0.4356940000000  0.4811470000000 1.0
C      1  0.5736290000000  0.4657720000000  0.4475530000000 1.0
C      1  0.5725050000000  0.5096160000000  0.4357050000000 1.0
C      1  0.5092080000000  0.4777140000000  0.5492640000000 1.0
C      1  0.5135780000000  0.4490830000000  0.5156180000000 1.0
C      1  0.5062430000000  0.4530080000000  0.4704460000000 1.0
C      1  0.5233940000000  0.4734210000000  0.4620970000000 1.0
C      1  0.5094240000000  0.4933840000000  0.4491160000000 1.0
C      1  0.5139500000000  0.5195140000000  0.4538430000000 1.0
C      1  0.5149650000000  0.5505590000000  0.4971950000000 1.0
C      1  0.5091200000000  0.5533310000000  0.5240620000000 1.0
C      1  0.5131930000000  0.5297910000000  0.5380910000000 1.0
C      1  0.5042710000000  0.4314200000000  0.4142560000000 1.0
C      1  0.5047430000000  0.5025980000000  0.3918660000000 1.0
C      1  0.5046680000000  0.5725400000000  0.4186440000000 1.0
C      1  0.5052090000000  0.6079630000000  0.4844280000000 1.0
C      1  0.5049780000000  0.5907080000000  0.5576330000000 1.0
C      1  0.5041420000000  0.5335750000000  0.6055870000000 1.0
C      1  0.5044250000000  0.4585710000000  0.6031850000000 1.0
C      1  0.5050670000000  0.4028700000000  0.5524560000000 1.0
C      1  0.5048590000000  0.3923030000000  0.4778520000000 1.0
C      1  0.4593290000000  0.5745130000000  0.5642340000000 1.0
C      1  0.4596280000000  0.5175250000000  0.5988100000000 1.0
C      1  0.4608480000000  0.4510770000000  0.5864410000000 1.0
C      1  0.4613380000000  0.4072850000000  0.5350110000000 1.0
C      1  0.4608580000000  0.4065330000000  0.4669560000000 1.0
C      1  0.4595020000000  0.4487420000000  0.4143920000000 1.0
C      1  0.4609170000000  0.5158290000000  0.4037090000000 1.0
C      1  0.4598520000000  0.5760240000000  0.4360940000000 1.0
C      1  0.4599610000000  0.5980460000000  0.4973980000000 1.0
C      1  0.4347010000000  0.5613360000000  0.5219890000000 1.0
C      1  0.4351120000000  0.5328430000000  0.5569200000000 1.0
C      1  0.4369380000000  0.4890630000000  0.5638770000000 1.0
C      1  0.4381210000000  0.4504520000000  0.5419970000000 1.0
C      1  0.4375820000000  0.4346430000000  0.5005580000000 1.0
C      1  0.4352960000000  0.4500070000000  0.4586500000000 1.0
C      1  0.4358360000000  0.4890080000000  0.4368080000000 1.0
C      1  0.4360810000000  0.5331730000000  0.4446250000000 1.0
C      1  0.4270070000000  0.5653790000000  0.4760250000000 1.0
C      1  0.4781840000000  0.5874390000000  0.5460400000000 1.0
C      1  0.4768100000000  0.5408480000000  0.5997970000000 1.0
C      1  0.4772860000000  0.4679030000000  0.6030870000000 1.0
C      1  0.4780210000000  0.4101820000000  0.5583660000000 1.0
C      1  0.4778410000000  0.3944620000000  0.4870730000000 1.0
C      1  0.4767590000000  0.4260390000000  0.4213690000000 1.0
C      1  0.4775700000000  0.4940460000000  0.3947390000000 1.0
C      1  0.4773000000000  0.5635610000000  0.4162130000000 1.0
C      1  0.4778090000000  0.6042730000000  0.4757060000000 1.0
C      1  0.4777750000000  0.4286550000000  0.5798970000000 1.0
C      1  0.4780750000000  0.3944240000000  0.5155140000000 1.0
C      1  0.4773570000000  0.4077610000000  0.4433480000000 1.0
C      1  0.4769590000000  0.4659070000000  0.3990050000000 1.0
C      1  0.4780090000000  0.5386560000000  0.4025850000000 1.0
C      1  0.4777710000000  0.5949180000000  0.4488770000000 1.0
C      1  0.4777070000000  0.6001980000000  0.5200650000000 1.0
C      1  0.4769060000000  0.5646170000000  0.5842970000000 1.0
C      1  0.4767830000000  0.4958940000000  0.6081130000000 1.0
C      1  0.4375290000000  0.5802670000000  0.4983310000000 1.0
C      1  0.4372870000000  0.5615280000000  0.5522900000000 1.0
C      1  0.4392350000000  0.5140790000000  0.5795920000000 1.0
C      1  0.4406120000000  0.4603270000000  0.5694350000000 1.0
C      1  0.4407050000000  0.4249150000000  0.5279720000000 1.0
C      1  0.4401160000000  0.4243700000000  0.4732640000000 1.0
C      1  0.4390400000000  0.4594730000000  0.4308410000000 1.0
C      1  0.4395010000000  0.5141700000000  0.4218690000000 1.0
C      1  0.4377920000000  0.5624530000000  0.4488800000000 1.0
C      1  0.5895900000000  0.5061090000000  0.5403510000000 1.0
C      1  0.5931220000000  0.4778610000000  0.5391280000000 1.0
C      1  0.5946320000000  0.4581070000000  0.5185290000000 1.0
C      1  0.5866290000000  0.4620070000000  0.4907590000000 1.0
C      1  0.5932700000000  0.4780730000000  0.4667000000000 1.0
C      1  0.5883980000000  0.5063870000000  0.4625100000000 1.0
C      1  0.5946340000000  0.5334560000000  0.4711180000000 1.0
C      1  0.5929290000000  0.5430160000000  0.4977680000000 1.0
C      1  0.5813970000000  0.5280670000000  0.5212690000000 1.0
C      1  0.5237270000000  0.5523790000000  0.4070600000000 1.0
C      1  0.5238350000000  0.5994230000000  0.4623490000000 1.0
C      1  0.5231550000000  0.5995550000000  0.5355830000000 1.0
C      1  0.5229540000000  0.5531800000000  0.5926580000000 1.0
C      1  0.5230250000000  0.4821880000000  0.6066220000000 1.0
C      1  0.5234550000000  0.4185350000000  0.5703460000000 1.0
C      1  0.5236160000000  0.3922840000000  0.5014250000000 1.0
C      1  0.5236400000000  0.4159320000000  0.4317230000000 1.0
C      1  0.5233650000000  0.4792760000000  0.3956670000000 1.0
C      1  0.4581490000000  0.4663760000000  0.4715870000000 1.0
C      1  0.4597860000000  0.4929580000000  0.4556540000000 1.0
C      1  0.4626540000000  0.5219380000000  0.4624430000000 1.0
C      1  0.4687290000000  0.5324240000000  0.4926540000000 1.0
C      1  0.4621930000000  0.5455280000000  0.5190460000000 1.0
C      1  0.4631290000000  0.5248910000000  0.5404800000000 1.0
C      1  0.4622750000000  0.4926700000000  0.5432030000000 1.0
C      1  0.4664770000000  0.4658810000000  0.5279550000000 1.0
C      1  0.4658930000000  0.4558080000000  0.4990400000000 1.0
C      1  0.5380790000000  0.5252160000000  0.4673060000000 1.0
C      1  0.5372770000000  0.5349720000000  0.4922800000000 1.0
C      1  0.5523910000000  0.5228140000000  0.5128940000000 1.0
C      1  0.5341150000000  0.5123980000000  0.5314850000000 1.0
C      1  0.5321330000000  0.4851490000000  0.5343590000000 1.0
C      1  0.5375540000000  0.4653860000000  0.5150610000000 1.0
C      1  0.5562650000000  0.4684360000000  0.4941980000000 1.0
C      1  0.5497870000000  0.4791990000000  0.4688400000000 1.0
C      1  0.5583610000000  0.5061810000000  0.4622520000000 1.0
C      1  0.5507410000000  0.5495230000000  0.4125060000000 1.0
C      1  0.5504280000000  0.5923740000000  0.4639680000000 1.0
C      1  0.5502310000000  0.5939170000000  0.5324610000000 1.0
C      1  0.5488740000000  0.5492960000000  0.5847090000000 1.0
C      1  0.5488960000000  0.4842730000000  0.5977090000000 1.0
C      1  0.5497290000000  0.4248780000000  0.5659380000000 1.0
C      1  0.5499330000000  0.3998640000000  0.5030560000000 1.0
C      1  0.5501280000000  0.4214040000000  0.4382810000000 1.0
C      1  0.5502410000000  0.4795410000000  0.4025840000000 1.0
C      1  0.4180290000000  0.4685560000000  0.4744740000000 1.0
C      1  0.4170300000000  0.4932760000000  0.4601210000000 1.0
C      1  0.4162470000000  0.5212220000000  0.4642650000000 1.0
C      1  0.4136500000000  0.5406450000000  0.4854060000000 1.0
C      1  0.4154610000000  0.5395890000000  0.5142790000000 1.0
C      1  0.4168910000000  0.5208260000000  0.5356260000000 1.0
C      1  0.4178320000000  0.4928310000000  0.5404680000000 1.0
C      1  0.4190030000000  0.4681540000000  0.5268130000000 1.0
C      1  0.4185890000000  0.4582480000000  0.5008290000000 1.0
C      1  0.4987380000000  0.4977540000000  0.4989400000000 1.0
C      1  0.4739730000000  0.5046180000000  0.5004850000000 1.0
END
