TITL C-19928-9298-7 -0.0297207937631259 125000 -241.05417739561 0 0 36 (Cs) n - 1
REM
REM in /rds/project/t2_vol4/rds-t2-cs072/BORA/CARBON/from-Arr/AIRSS/Generating-Clusters/GAP-ML-2020/Higher-Symm/SD-CG/HFTN-CG
REM
REM
REM
REM
REM
REM ./C.cell (b20cbc046b6831c77cfcea5457e17084)
REM AIRSS Version 0.9.1 bugfix July 2018 build 013d7b7c2542+ Fri, 06 Jul 2018 19:26:36 +0100
REM compiler GCC version 9.3.0
REM options -cpp -mtune=generic -march=x86-64 -g -O0
REM seed 973879027 1979529448 294387722 -1212994601 -180794153 1556024143 -1237522899 -361023417 -2016497479 -16287673 -857951354 237446133 488199726 1811790670 665649835 111002054 -1385461469 119436308 -1102596013 -420155424 -1211145318 -578559633 -2131510506 540665969 -655553596 -950844052 -270152933 -1492958292 -317442251 -355693037 -492784623 1819275669 424162115
REM
CELL 1.54180   50.00000   50.00000   50.00000   90.00000   90.00000   90.00000
LATT -1
SFAC C  
C      1  0.5271640000000  0.4619430000000  0.4880420000000 1.0
C      1  0.5269300000000  0.4639370000000  0.5167860000000 1.0
C      1  0.5050540000000  0.4649340000000  0.5356880000000 1.0
C      1  0.4769350000000  0.4658680000000  0.5292660000000 1.0
C      1  0.4654060000000  0.4659830000000  0.5027350000000 1.0
C      1  0.4775340000000  0.4635930000000  0.4767080000000 1.0
C      1  0.5110650000000  0.4614480000000  0.4440180000000 1.0
C      1  0.4922140000000  0.5266850000000  0.5360600000000 1.0
C      1  0.4680540000000  0.5270820000000  0.5166090000000 1.0
C      1  0.4685100000000  0.5258900000000  0.4853220000000 1.0
C      1  0.4924220000000  0.5251380000000  0.4657570000000 1.0
C      1  0.5224170000000  0.5241410000000  0.4726070000000 1.0
C      1  0.5354730000000  0.5236630000000  0.5006150000000 1.0
C      1  0.5223900000000  0.5252750000000  0.5290190000000 1.0
C      1  0.4514080000000  0.5026230000000  0.4781110000000 1.0
C      1  0.4872400000000  0.5024440000000  0.4475800000000 1.0
C      1  0.5335240000000  0.5009050000000  0.4581500000000 1.0
C      1  0.5525040000000  0.4992620000000  0.5011990000000 1.0
C      1  0.5332250000000  0.5015510000000  0.5442650000000 1.0
C      1  0.4871020000000  0.5037460000000  0.5551050000000 1.0
C      1  0.4502050000000  0.5043110000000  0.5253050000000 1.0
C      1  0.4942270000000  0.5557490000000  0.4684760000000 1.0
C      1  0.5215470000000  0.5548400000000  0.4747160000000 1.0
C      1  0.5334780000000  0.5547290000000  0.4999400000000 1.0
C      1  0.5214990000000  0.5557780000000  0.5251070000000 1.0
C      1  0.4942740000000  0.5571600000000  0.5314750000000 1.0
C      1  0.4724770000000  0.5574080000000  0.5139120000000 1.0
C      1  0.4725580000000  0.5567550000000  0.4860270000000 1.0
C      1  0.4664890000000  0.4853400000000  0.4597950000000 1.0
C      1  0.5122970000000  0.4880590000000  0.4424960000000 1.0
C      1  0.5458000000000  0.4827040000000  0.4779080000000 1.0
C      1  0.5469330000000  0.4840260000000  0.5252210000000 1.0
C      1  0.5107530000000  0.4865100000000  0.5553400000000 1.0
C      1  0.4646530000000  0.4880430000000  0.5448120000000 1.0
C      1  0.4450360000000  0.4874140000000  0.5019500000000 1.0
C      1  0.5048180000000  0.4558620000000  0.4705610000000 1.0
END
