TITL C-19548-480-7 -252.862739579196 125000 -616.883694734842 0 0 90 (C1) n - 1
REM
REM in /rds/project/t2_vol4/rds-t2-cs072/BORA/CARBON/from-Arr/AIRSS/Generating-Clusters/GAP-ML-2020/Higher-Symm/SD-CG/HFTN-CG
REM
REM
REM
REM
REM
REM ./C.cell (b20cbc046b6831c77cfcea5457e17084)
REM AIRSS Version 0.9.1 bugfix July 2018 build 013d7b7c2542+ Fri, 06 Jul 2018 19:26:36 +0100
REM compiler GCC version 9.3.0
REM options -cpp -mtune=generic -march=x86-64 -g -O0
REM seed -1642221870 -477904279 -1471670350 -794432656 845407857 -154894820 -1779528118 -1990755351 689088967 1433582106 -1431470084 486772742 839609478 -46997427 1873330053 -542614804 -576741587 -1189710688 -1782751138 -1259199075 -120900054 -1719577983 31674972 2037128016 -364395382 391087380 -46481798 -1765112312 1229141583 1427993065 -581979516 -1287359604 1601733610
REM
CELL 1.54180   50.00000   50.00000   50.00000   90.00000   90.00000   90.00000
LATT -1
SFAC C  
C      1  0.4700280000000  0.4903340000000  0.4415040000000 1.0
C      1  0.4908600000000  0.4691450000000  0.4428290000000 1.0
C      1  0.5197890000000  0.4759490000000  0.4364040000000 1.0
C      1  0.5256860000000  0.5039230000000  0.4356940000000 1.0
C      1  0.5051390000000  0.5240800000000  0.4335290000000 1.0
C      1  0.4785800000000  0.5183650000000  0.4454750000000 1.0
C      1  0.4735570000000  0.4928490000000  0.5503910000000 1.0
C      1  0.4912950000000  0.4699840000000  0.5618760000000 1.0
C      1  0.5188710000000  0.4773610000000  0.5640450000000 1.0
C      1  0.5225770000000  0.5057090000000  0.5623130000000 1.0
C      1  0.5048790000000  0.5273110000000  0.5670220000000 1.0
C      1  0.4787100000000  0.5225030000000  0.5542460000000 1.0
C      1  0.5828010000000  0.5385060000000  0.5294030000000 1.0
C      1  0.5130950000000  0.5768690000000  0.5222910000000 1.0
C      1  0.4370440000000  0.5523510000000  0.5153050000000 1.0
C      1  0.4185970000000  0.4658900000000  0.5160920000000 1.0
C      1  0.4913120000000  0.4122720000000  0.5161190000000 1.0
C      1  0.5684830000000  0.4499400000000  0.5135530000000 1.0
C      1  0.5631100000000  0.5391800000000  0.4803940000000 1.0
C      1  0.5109100000000  0.5871120000000  0.4958170000000 1.0
C      1  0.4392380000000  0.5504700000000  0.4868060000000 1.0
C      1  0.4187620000000  0.4646060000000  0.4868140000000 1.0
C      1  0.4915720000000  0.4111540000000  0.4860730000000 1.0
C      1  0.5668900000000  0.4497630000000  0.4844280000000 1.0
C      1  0.4566560000000  0.5418430000000  0.5584410000000 1.0
C      1  0.4441300000000  0.4867050000000  0.5478700000000 1.0
C      1  0.4838630000000  0.4446270000000  0.5520830000000 1.0
C      1  0.5401040000000  0.4607690000000  0.5514280000000 1.0
C      1  0.5651750000000  0.5141680000000  0.5518200000000 1.0
C      1  0.5167910000000  0.5534900000000  0.5634330000000 1.0
C      1  0.4558430000000  0.5385560000000  0.4434340000000 1.0
C      1  0.4440240000000  0.4838210000000  0.4508080000000 1.0
C      1  0.4830480000000  0.4411020000000  0.4504830000000 1.0
C      1  0.5384960000000  0.4584430000000  0.4492450000000 1.0
C      1  0.5501390000000  0.5133320000000  0.4472920000000 1.0
C      1  0.5125240000000  0.5518530000000  0.4332210000000 1.0
C      1  0.5129160000000  0.4850020000000  0.4854830000000 1.0
C      1  0.5377230000000  0.5010470000000  0.4898300000000 1.0
C      1  0.5105800000000  0.5440390000000  0.4855010000000 1.0
C      1  0.4851210000000  0.5296120000000  0.4783090000000 1.0
C      1  0.4531980000000  0.4980430000000  0.4926550000000 1.0
C      1  0.4892420000000  0.4751110000000  0.4716690000000 1.0
C      1  0.5121200000000  0.4782630000000  0.5130410000000 1.0
C      1  0.5386780000000  0.5123130000000  0.5389790000000 1.0
C      1  0.5340020000000  0.5373770000000  0.5215670000000 1.0
C      1  0.4809280000000  0.5344810000000  0.5230700000000 1.0
C      1  0.4853700000000  0.4900710000000  0.5203060000000 1.0
C      1  0.4743970000000  0.4614550000000  0.5116630000000 1.0
C      1  0.4372310000000  0.4612050000000  0.5367080000000 1.0
C      1  0.5043410000000  0.4310510000000  0.5352040000000 1.0
C      1  0.5616110000000  0.4720140000000  0.5315820000000 1.0
C      1  0.5697490000000  0.5419230000000  0.5537080000000 1.0
C      1  0.4984410000000  0.5706050000000  0.5487450000000 1.0
C      1  0.4342680000000  0.5344900000000  0.5391710000000 1.0
C      1  0.4420470000000  0.4600490000000  0.4689900000000 1.0
C      1  0.5031230000000  0.4248360000000  0.4632760000000 1.0
C      1  0.5626020000000  0.4679960000000  0.4630930000000 1.0
C      1  0.5543090000000  0.5410500000000  0.4536330000000 1.0
C      1  0.4947610000000  0.5694160000000  0.4475360000000 1.0
C      1  0.4347500000000  0.5329600000000  0.4631940000000 1.0
C      1  0.4605510000000  0.4440010000000  0.5327090000000 1.0
C      1  0.5327340000000  0.4351770000000  0.5396720000000 1.0
C      1  0.5799850000000  0.4955100000000  0.5353210000000 1.0
C      1  0.5450560000000  0.5585490000000  0.5558850000000 1.0
C      1  0.4699360000000  0.5671280000000  0.5509930000000 1.0
C      1  0.4265230000000  0.5073460000000  0.5373640000000 1.0
C      1  0.4578930000000  0.4359720000000  0.4641860000000 1.0
C      1  0.5294260000000  0.4345470000000  0.4634030000000 1.0
C      1  0.5622810000000  0.4968540000000  0.4686670000000 1.0
C      1  0.5350770000000  0.5603370000000  0.4491560000000 1.0
C      1  0.4686110000000  0.5634410000000  0.4503330000000 1.0
C      1  0.4321370000000  0.5048280000000  0.4690120000000 1.0
C      1  0.5478620000000  0.4303000000000  0.5158600000000 1.0
C      1  0.5860790000000  0.5149040000000  0.5137920000000 1.0
C      1  0.5404550000000  0.5662310000000  0.5299730000000 1.0
C      1  0.4620020000000  0.5616910000000  0.5245740000000 1.0
C      1  0.4112620000000  0.4940000000000  0.5161020000000 1.0
C      1  0.4639320000000  0.4201520000000  0.5152070000000 1.0
C      1  0.5461470000000  0.4295710000000  0.4861240000000 1.0
C      1  0.5788670000000  0.5161580000000  0.4860710000000 1.0
C      1  0.5142230000000  0.5720750000000  0.4713100000000 1.0
C      1  0.4655030000000  0.5572960000000  0.4781850000000 1.0
C      1  0.4117160000000  0.4922870000000  0.4864260000000 1.0
C      1  0.4637990000000  0.4186080000000  0.4860010000000 1.0
C      1  0.5012430000000  0.4508130000000  0.5114030000000 1.0
C      1  0.4643970000000  0.4718260000000  0.4864790000000 1.0
C      1  0.4756410000000  0.5135390000000  0.5024130000000 1.0
C      1  0.5394920000000  0.4904320000000  0.5192860000000 1.0
C      1  0.5062140000000  0.5470880000000  0.5152220000000 1.0
C      1  0.5368670000000  0.5305930000000  0.4927710000000 1.0
END
