TITL C-19517-9522-4 -0.118260314241361 125000 -284.564719289 0 0 43 (C1) n - 1
REM
REM in /rds/project/t2_vol4/rds-t2-cs072/BORA/CARBON/from-Arr/AIRSS/Generating-Clusters/GAP-ML-2020/Higher-Symm/SD-CG/HFTN-CG
REM
REM
REM
REM
REM
REM ./C.cell (b20cbc046b6831c77cfcea5457e17084)
REM AIRSS Version 0.9.1 bugfix July 2018 build 013d7b7c2542+ Fri, 06 Jul 2018 19:26:36 +0100
REM compiler GCC version 9.3.0
REM options -cpp -mtune=generic -march=x86-64 -g -O0
REM seed -817873364 1500801117 130399338 -1988913399 -335708853 1535804306 -1053631592 -2113440859 -304318897 -145151771 1872175156 6066508 1226240190 1110999419 -2060506314 -902924899 1865666478 -811479625 309185651 1833082633 1787609728 1174088993 185308474 -1299237922 559776718 -1411181274 1713230062 1031448338 -465035027 2142633412 475855682 -1372090359 -465166684
REM
CELL 1.54180   50.00000   50.00000   50.00000   90.00000   90.00000   90.00000
LATT -1
SFAC C  
C      1  0.5034040000000  0.5428870000000  0.4771950000000 1.0
C      1  0.5470710000000  0.4835080000000  0.5327550000000 1.0
C      1  0.4938490000000  0.5240930000000  0.5589710000000 1.0
C      1  0.4483110000000  0.5112920000000  0.4587970000000 1.0
C      1  0.5612180000000  0.5079420000000  0.5418800000000 1.0
C      1  0.5311160000000  0.5410540000000  0.5330630000000 1.0
C      1  0.5176550000000  0.5073910000000  0.5606270000000 1.0
C      1  0.4709140000000  0.4783700000000  0.5290330000000 1.0
C      1  0.4889280000000  0.5379090000000  0.4522480000000 1.0
C      1  0.5094720000000  0.5154020000000  0.5173810000000 1.0
C      1  0.4939850000000  0.4638810000000  0.4500160000000 1.0
C      1  0.4984370000000  0.5219890000000  0.4322020000000 1.0
C      1  0.4828120000000  0.5543960000000  0.5204070000000 1.0
C      1  0.4646770000000  0.4892330000000  0.5005420000000 1.0
C      1  0.5182640000000  0.4909730000000  0.5348690000000 1.0
C      1  0.4968450000000  0.4529460000000  0.4780110000000 1.0
C      1  0.4604180000000  0.5375400000000  0.4607840000000 1.0
C      1  0.5399250000000  0.4768760000000  0.4852950000000 1.0
C      1  0.5420440000000  0.5325590000000  0.5074170000000 1.0
C      1  0.4938070000000  0.4782010000000  0.4942170000000 1.0
C      1  0.4596690000000  0.5511130000000  0.4853360000000 1.0
C      1  0.4577070000000  0.4860900000000  0.4494420000000 1.0
C      1  0.5193540000000  0.5223080000000  0.4899890000000 1.0
C      1  0.5176500000000  0.4941010000000  0.4775150000000 1.0
C      1  0.4868580000000  0.5601310000000  0.4929030000000 1.0
C      1  0.5312420000000  0.4391420000000  0.5112430000000 1.0
C      1  0.5627240000000  0.5138720000000  0.5129890000000 1.0
C      1  0.4848360000000  0.4280010000000  0.4891130000000 1.0
C      1  0.4650780000000  0.5029930000000  0.5417320000000 1.0
C      1  0.5106620000000  0.4866260000000  0.4493020000000 1.0
C      1  0.4991050000000  0.4705160000000  0.5252200000000 1.0
C      1  0.4572370000000  0.5135160000000  0.5167120000000 1.0
C      1  0.4683450000000  0.5176030000000  0.5645000000000 1.0
C      1  0.5072980000000  0.4419990000000  0.5258290000000 1.0
C      1  0.4578230000000  0.5406840000000  0.5121720000000 1.0
C      1  0.5285840000000  0.4512400000000  0.4872410000000 1.0
C      1  0.5017050000000  0.5392610000000  0.5344230000000 1.0
C      1  0.4480800000000  0.4904280000000  0.4765720000000 1.0
C      1  0.5128490000000  0.5021080000000  0.4250740000000 1.0
C      1  0.5411560000000  0.5240210000000  0.5539840000000 1.0
C      1  0.5566980000000  0.4866160000000  0.5048550000000 1.0
C      1  0.4916380000000  0.4224990000000  0.5133510000000 1.0
C      1  0.4705510000000  0.4666890000000  0.4347910000000 1.0
END
