TITL C-205035-4732-5 -0.366657545417326 125000 -183.517465185285 0 0 28 (C1) n - 1
REM
REM in /rds/project/t2_vol4/rds-t2-cs072/BORA/CARBON/from-Arr/AIRSS/Generating-Clusters/GAP-ML-2020/Higher-Symm/SD-CG/HFTN-CG
REM
REM
REM
REM
REM
REM ./C.cell (b20cbc046b6831c77cfcea5457e17084)
REM AIRSS Version 0.9.1 bugfix July 2018 build 013d7b7c2542+ Fri, 06 Jul 2018 19:26:36 +0100
REM compiler GCC version 9.3.0
REM options -cpp -mtune=generic -march=x86-64 -g -O0
REM seed -1229640074 -1079651903 330562761 -1847597041 -261096781 304212213 738662601 1858515137 1136801971 1185523695 -1161677763 1886647972 -1447740149 1440281853 798282155 660555150 -127551177 -1990123443 -1127519919 982816103 -939933058 1415623916 247443010 -1292500900 -1084603779 -656251399 70612071 -1761136258 -25212042 260220648 -1617452795 33564006 -1022136335
REM
CELL 1.54180   50.00000   50.00000   50.00000   90.00000   90.00000   90.00000
LATT -1
SFAC C  
C      1  0.5319370000000  0.4740330000000  0.5510880000000 1.0
C      1  0.5527750000000  0.4737720000000  0.5060290000000 1.0
C      1  0.5374490000000  0.4734980000000  0.4588120000000 1.0
C      1  0.4922860000000  0.4727060000000  0.4387840000000 1.0
C      1  0.4510050000000  0.4746320000000  0.4669180000000 1.0
C      1  0.4506740000000  0.4776910000000  0.5173650000000 1.0
C      1  0.4836930000000  0.4747490000000  0.5543390000000 1.0
C      1  0.4942470000000  0.5277650000000  0.5486250000000 1.0
C      1  0.5217870000000  0.5268720000000  0.5456870000000 1.0
C      1  0.5404900000000  0.5247340000000  0.5001250000000 1.0
C      1  0.5294020000000  0.5241260000000  0.4744390000000 1.0
C      1  0.4828930000000  0.5228900000000  0.4577560000000 1.0
C      1  0.4683510000000  0.5288690000000  0.4814860000000 1.0
C      1  0.4650540000000  0.5272400000000  0.5088190000000 1.0
C      1  0.5096240000000  0.5125780000000  0.5663600000000 1.0
C      1  0.5386660000000  0.5152640000000  0.5266600000000 1.0
C      1  0.5540440000000  0.5118050000000  0.4793810000000 1.0
C      1  0.5097430000000  0.5136450000000  0.4575310000000 1.0
C      1  0.4662380000000  0.5107040000000  0.4394860000000 1.0
C      1  0.4460070000000  0.5156670000000  0.4918030000000 1.0
C      1  0.4728420000000  0.5173280000000  0.5339590000000 1.0
C      1  0.4684130000000  0.4841400000000  0.4480090000000 1.0
C      1  0.4467990000000  0.4861640000000  0.4915140000000 1.0
C      1  0.4672380000000  0.4891790000000  0.5370370000000 1.0
C      1  0.5084090000000  0.4843350000000  0.5598070000000 1.0
C      1  0.5434530000000  0.4868220000000  0.5291130000000 1.0
C      1  0.5518540000000  0.4824050000000  0.4802060000000 1.0
C      1  0.5146260000000  0.4863870000000  0.4488630000000 1.0
END
