TITL C-205057-4758-8 -1.89953116349972 125000 -655.16159796462 0 0 93 (C1) n - 1
REM
REM in /rds/project/t2_vol4/rds-t2-cs072/BORA/CARBON/from-Arr/AIRSS/Generating-Clusters/GAP-ML-2020/Higher-Symm/SD-CG/HFTN-CG
REM
REM
REM
REM
REM
REM ./C.cell (b20cbc046b6831c77cfcea5457e17084)
REM AIRSS Version 0.9.1 bugfix July 2018 build 013d7b7c2542+ Fri, 06 Jul 2018 19:26:36 +0100
REM compiler GCC version 9.3.0
REM options -cpp -mtune=generic -march=x86-64 -g -O0
REM seed -193398032 856303021 840092327 -1002474703 -441430959 1183052425 -1253463378 882149616 -1206911656 974342119 -1531803237 -244474043 -1149014069 1467988332 651147601 1181759140 -1419187726 -475898353 -1155794698 -2002791231 1419755001 -1888670270 1063264099 -257368316 -1612301407 21966817 1758609721 -1815281445 -1700772109 2119751341 -717916327 -277717531 -1973394720
REM
CELL 1.54180   50.00000   50.00000   50.00000   90.00000   90.00000   90.00000
LATT -1
SFAC C  
C      1  0.5334080000000  0.5611960000000  0.4592270000000 1.0
C      1  0.4675050000000  0.4399490000000  0.4543900000000 1.0
C      1  0.4951680000000  0.5735820000000  0.4935230000000 1.0
C      1  0.5074800000000  0.4302080000000  0.4876360000000 1.0
C      1  0.5702990000000  0.4897460000000  0.5488350000000 1.0
C      1  0.4297370000000  0.5084620000000  0.5446830000000 1.0
C      1  0.5711190000000  0.5451790000000  0.4857030000000 1.0
C      1  0.4255610000000  0.4524490000000  0.4789160000000 1.0
C      1  0.5076020000000  0.4720040000000  0.4266980000000 1.0
C      1  0.4901120000000  0.5246070000000  0.4300050000000 1.0
C      1  0.5134300000000  0.5749810000000  0.5424670000000 1.0
C      1  0.4881750000000  0.4244140000000  0.5367210000000 1.0
C      1  0.4801230000000  0.4770620000000  0.4227930000000 1.0
C      1  0.5181280000000  0.5205570000000  0.4288900000000 1.0
C      1  0.5270050000000  0.5295560000000  0.5077090000000 1.0
C      1  0.4791200000000  0.4690140000000  0.5056060000000 1.0
C      1  0.4460770000000  0.5330350000000  0.4525750000000 1.0
C      1  0.5629070000000  0.4666450000000  0.4577740000000 1.0
C      1  0.5025870000000  0.4839940000000  0.5794120000000 1.0
C      1  0.4951190000000  0.5119480000000  0.5800800000000 1.0
C      1  0.5476910000000  0.4467630000000  0.5368220000000 1.0
C      1  0.4572780000000  0.5501780000000  0.5316400000000 1.0
C      1  0.4589610000000  0.5776300000000  0.4601630000000 1.0
C      1  0.5546740000000  0.4207540000000  0.4667160000000 1.0
C      1  0.4941390000000  0.4161250000000  0.5102980000000 1.0
C      1  0.5048000000000  0.5878110000000  0.5180740000000 1.0
C      1  0.5520160000000  0.4379040000000  0.5090340000000 1.0
C      1  0.4491940000000  0.5634530000000  0.5068700000000 1.0
C      1  0.5079120000000  0.5734500000000  0.4650370000000 1.0
C      1  0.4958100000000  0.4365160000000  0.4597300000000 1.0
C      1  0.5781010000000  0.4739720000000  0.4822980000000 1.0
C      1  0.4357330000000  0.5229230000000  0.4804420000000 1.0
C      1  0.4488490000000  0.4997400000000  0.5650200000000 1.0
C      1  0.5493500000000  0.4953340000000  0.5682170000000 1.0
C      1  0.4848240000000  0.5389000000000  0.5316760000000 1.0
C      1  0.5264310000000  0.4521730000000  0.5553120000000 1.0
C      1  0.5289050000000  0.4761360000000  0.5714400000000 1.0
C      1  0.4689180000000  0.5160520000000  0.5726500000000 1.0
C      1  0.5270090000000  0.4934830000000  0.4263270000000 1.0
C      1  0.4719900000000  0.5044920000000  0.4221470000000 1.0
C      1  0.5340260000000  0.4670040000000  0.4635340000000 1.0
C      1  0.4786550000000  0.5379500000000  0.4536350000000 1.0
C      1  0.4466790000000  0.4251900000000  0.5016960000000 1.0
C      1  0.5488830000000  0.5730290000000  0.5063360000000 1.0
C      1  0.5375590000000  0.5360030000000  0.4440560000000 1.0
C      1  0.4604880000000  0.4627990000000  0.4380620000000 1.0
C      1  0.4712400000000  0.4941730000000  0.5110220000000 1.0
C      1  0.5173720000000  0.5062230000000  0.5249280000000 1.0
C      1  0.4654050000000  0.5771620000000  0.4887440000000 1.0
C      1  0.5371010000000  0.4243260000000  0.4891080000000 1.0
C      1  0.4652400000000  0.5096790000000  0.4882350000000 1.0
C      1  0.5299350000000  0.5006510000000  0.5011140000000 1.0
C      1  0.5319890000000  0.5863480000000  0.5237150000000 1.0
C      1  0.4674650000000  0.4157830000000  0.5182050000000 1.0
C      1  0.4400170000000  0.5612340000000  0.4473870000000 1.0
C      1  0.5675440000000  0.4365520000000  0.4506480000000 1.0
C      1  0.4467590000000  0.5076640000000  0.4354140000000 1.0
C      1  0.5511190000000  0.4904930000000  0.4416830000000 1.0
C      1  0.4841210000000  0.4644970000000  0.5698850000000 1.0
C      1  0.5140950000000  0.5320240000000  0.5726340000000 1.0
C      1  0.4238320000000  0.4601310000000  0.5308040000000 1.0
C      1  0.5711310000000  0.5371540000000  0.5371930000000 1.0
C      1  0.4158840000000  0.4882190000000  0.5295020000000 1.0
C      1  0.5837230000000  0.5111840000000  0.5350340000000 1.0
C      1  0.4342820000000  0.5321200000000  0.5307140000000 1.0
C      1  0.5687170000000  0.4662970000000  0.5335730000000 1.0
C      1  0.5565830000000  0.5446550000000  0.5125130000000 1.0
C      1  0.4254590000000  0.4446030000000  0.5069370000000 1.0
C      1  0.5876070000000  0.5004040000000  0.4871320000000 1.0
C      1  0.4165430000000  0.5004620000000  0.4817960000000 1.0
C      1  0.4999390000000  0.5428940000000  0.5026840000000 1.0
C      1  0.5029800000000  0.4612780000000  0.4964770000000 1.0
C      1  0.5587300000000  0.5171150000000  0.4501320000000 1.0
C      1  0.4390600000000  0.4815520000000  0.4438620000000 1.0
C      1  0.4985560000000  0.4439650000000  0.5548970000000 1.0
C      1  0.5036290000000  0.5509540000000  0.5533040000000 1.0
C      1  0.4861430000000  0.5266340000000  0.4814730000000 1.0
C      1  0.5209710000000  0.4796760000000  0.4862420000000 1.0
C      1  0.4846320000000  0.5674100000000  0.4508500000000 1.0
C      1  0.5139600000000  0.4537980000000  0.4469050000000 1.0
C      1  0.4308400000000  0.5411190000000  0.5030610000000 1.0
C      1  0.5722990000000  0.4586270000000  0.5052190000000 1.0
C      1  0.5972480000000  0.5061550000000  0.5120350000000 1.0
C      1  0.4058740000000  0.4959020000000  0.5057700000000 1.0
C      1  0.4414750000000  0.4545440000000  0.5506000000000 1.0
C      1  0.5579940000000  0.5413450000000  0.5603690000000 1.0
C      1  0.4223510000000  0.4772590000000  0.4660400000000 1.0
C      1  0.5771070000000  0.5224210000000  0.4711880000000 1.0
C      1  0.5417340000000  0.5235530000000  0.5726590000000 1.0
C      1  0.4564590000000  0.4712630000000  0.5657020000000 1.0
C      1  0.5539700000000  0.5672570000000  0.4783130000000 1.0
C      1  0.4473610000000  0.4335410000000  0.4733810000000 1.0
C      1  0.4890930000000  0.5087040000000  0.5290050000000 1.0
END
