TITL C-205063-5946-1 -0.10846193748889 125000 -350.215130485435 0 0 52 (C1) n - 1
REM
REM in /rds/project/t2_vol4/rds-t2-cs072/BORA/CARBON/from-Arr/AIRSS/Generating-Clusters/GAP-ML-2020/Higher-Symm/SD-CG/HFTN-CG
REM
REM
REM
REM
REM
REM ./C.cell (b20cbc046b6831c77cfcea5457e17084)
REM AIRSS Version 0.9.1 bugfix July 2018 build 013d7b7c2542+ Fri, 06 Jul 2018 19:26:36 +0100
REM compiler GCC version 9.3.0
REM options -cpp -mtune=generic -march=x86-64 -g -O0
REM seed -732576429 -171646810 460932787 517121364 -167569372 86755503 -2145679423 -1791517270 1616949707 -562648060 -666418263 -1906945470 -1281821342 316848251 -215939880 1959475904 -1244288867 1546456754 -1016072440 1560307790 -1384330611 -434736926 -1444383543 336800438 1722079068 -491621956 -1270489657 -739636754 -1144768985 86252492 1467886101 2026786093 -347346625
REM
CELL 1.54180   50.00000   50.00000   50.00000   90.00000   90.00000   90.00000
LATT -1
SFAC C  
C      1  0.5450390000000  0.5188470000000  0.5431970000000 1.0
C      1  0.4774090000000  0.5265870000000  0.4453200000000 1.0
C      1  0.5353370000000  0.4939620000000  0.5540230000000 1.0
C      1  0.5104290000000  0.4481540000000  0.4446140000000 1.0
C      1  0.5504430000000  0.5097830000000  0.4456250000000 1.0
C      1  0.5346070000000  0.4715590000000  0.4800980000000 1.0
C      1  0.4779710000000  0.4454730000000  0.5093760000000 1.0
C      1  0.4665500000000  0.4757020000000  0.5485280000000 1.0
C      1  0.4700600000000  0.4648250000000  0.4661200000000 1.0
C      1  0.5587150000000  0.4893970000000  0.4816610000000 1.0
C      1  0.4568130000000  0.4801310000000  0.4458560000000 1.0
C      1  0.4828280000000  0.5257070000000  0.5018530000000 1.0
C      1  0.5275410000000  0.5505840000000  0.5220010000000 1.0
C      1  0.5045390000000  0.4862940000000  0.5182120000000 1.0
C      1  0.5280790000000  0.4478760000000  0.4976660000000 1.0
C      1  0.5262170000000  0.4690490000000  0.4498820000000 1.0
C      1  0.5084930000000  0.4983190000000  0.5645180000000 1.0
C      1  0.4603050000000  0.4618990000000  0.4950380000000 1.0
C      1  0.5025740000000  0.5120210000000  0.4528450000000 1.0
C      1  0.4905380000000  0.4771220000000  0.5650230000000 1.0
C      1  0.5443400000000  0.5298650000000  0.4675950000000 1.0
C      1  0.4996040000000  0.4515240000000  0.5547850000000 1.0
C      1  0.4526690000000  0.5651040000000  0.4668590000000 1.0
C      1  0.4772290000000  0.4501820000000  0.5371170000000 1.0
C      1  0.4791900000000  0.5576050000000  0.5261270000000 1.0
C      1  0.4456040000000  0.5444340000000  0.4842080000000 1.0
C      1  0.4544860000000  0.4956700000000  0.5330880000000 1.0
C      1  0.4549650000000  0.4868640000000  0.5059090000000 1.0
C      1  0.4764580000000  0.5399490000000  0.5494040000000 1.0
C      1  0.4974750000000  0.5466090000000  0.4838740000000 1.0
C      1  0.5166860000000  0.5331930000000  0.4674510000000 1.0
C      1  0.5255110000000  0.4460820000000  0.5490020000000 1.0
C      1  0.4768030000000  0.5513330000000  0.4630050000000 1.0
C      1  0.5368160000000  0.4494850000000  0.5238620000000 1.0
C      1  0.5492260000000  0.5299510000000  0.5163920000000 1.0
C      1  0.4539420000000  0.5079630000000  0.4454180000000 1.0
C      1  0.5252620000000  0.4973150000000  0.4397510000000 1.0
C      1  0.5003970000000  0.4400900000000  0.4919660000000 1.0
C      1  0.5000570000000  0.5127430000000  0.5213440000000 1.0
C      1  0.4682820000000  0.5050270000000  0.4875100000000 1.0
C      1  0.5105410000000  0.4851870000000  0.4909080000000 1.0
C      1  0.5697020000000  0.4934480000000  0.4559330000000 1.0
C      1  0.4543480000000  0.5244690000000  0.5358200000000 1.0
C      1  0.5554220000000  0.5180160000000  0.4918120000000 1.0
C      1  0.4585890000000  0.5414910000000  0.5119490000000 1.0
C      1  0.5035230000000  0.5596040000000  0.5106030000000 1.0
C      1  0.4919520000000  0.4439150000000  0.4645790000000 1.0
C      1  0.5431530000000  0.4674940000000  0.5463570000000 1.0
C      1  0.5009590000000  0.5246010000000  0.5525380000000 1.0
C      1  0.4892110000000  0.4904190000000  0.4724620000000 1.0
C      1  0.4475130000000  0.5173400000000  0.4718790000000 1.0
C      1  0.5256010000000  0.5397390000000  0.5490350000000 1.0
END
