TITL C-207211-9156-2 65.2802879127333 125000 -723.725881949623 0 0 102 (C1) n - 1
REM
REM in /rds/project/t2_vol4/rds-t2-cs072/BORA/CARBON/from-Arr/AIRSS/Generating-Clusters/GAP-ML-2020/Higher-Symm/SD-CG/HFTN-CG
REM
REM
REM
REM
REM
REM ./C.cell (b20cbc046b6831c77cfcea5457e17084)
REM AIRSS Version 0.9.1 bugfix July 2018 build 013d7b7c2542+ Fri, 06 Jul 2018 19:26:36 +0100
REM compiler GCC version 9.3.0
REM options -cpp -mtune=generic -march=x86-64 -g -O0
REM seed 825236057 -1448343612 -1231816365 308142309 -430775109 685719805 -17395621 -1434349198 -1626113467 -1482259971 1393931107 -221523753 1598622707 -1160194207 -1551044298 -1115830959 -160768922 -2147321239 -1587834589 854095895 2026626215 -1566315317 594684101 -391655544 859618840 1497988500 2004538480 -1235557055 -1546542086 -1768508716 1646563940 1011461800 -755650477
REM
CELL 1.54180   50.00000   50.00000   50.00000   90.00000   90.00000   90.00000
LATT -1
SFAC C  
C      1  0.4969130000000  0.5377470000000  0.4179980000000 1.0
C      1  0.4243610000000  0.5380990000000  0.4749880000000 1.0
C      1  0.4466840000000  0.5442260000000  0.5668480000000 1.0
C      1  0.5438900000000  0.5358040000000  0.5636300000000 1.0
C      1  0.5727100000000  0.5397960000000  0.4713290000000 1.0
C      1  0.4992830000000  0.4573980000000  0.5834600000000 1.0
C      1  0.4255690000000  0.4598270000000  0.5268490000000 1.0
C      1  0.4513550000000  0.4588930000000  0.4372510000000 1.0
C      1  0.5438950000000  0.4615440000000  0.4312460000000 1.0
C      1  0.5700250000000  0.4588070000000  0.5201960000000 1.0
C      1  0.5123970000000  0.4242670000000  0.5523610000000 1.0
C      1  0.5495930000000  0.4240050000000  0.4889800000000 1.0
C      1  0.5143540000000  0.4273380000000  0.4484930000000 1.0
C      1  0.4621780000000  0.4263240000000  0.4738320000000 1.0
C      1  0.4608570000000  0.4253440000000  0.5310950000000 1.0
C      1  0.5129270000000  0.5716250000000  0.4481700000000 1.0
C      1  0.5478920000000  0.5749570000000  0.4892280000000 1.0
C      1  0.5122680000000  0.5696070000000  0.5527660000000 1.0
C      1  0.4602000000000  0.5726590000000  0.5297950000000 1.0
C      1  0.4613020000000  0.5707730000000  0.4720910000000 1.0
C      1  0.5406540000000  0.4255090000000  0.4614290000000 1.0
C      1  0.4841880000000  0.4251580000000  0.4531780000000 1.0
C      1  0.4530660000000  0.4256140000000  0.5024920000000 1.0
C      1  0.4832640000000  0.4253950000000  0.5504710000000 1.0
C      1  0.5346080000000  0.4239150000000  0.5341900000000 1.0
C      1  0.5347150000000  0.5716770000000  0.5351570000000 1.0
C      1  0.4825450000000  0.5708610000000  0.5503820000000 1.0
C      1  0.4529340000000  0.5697070000000  0.5006310000000 1.0
C      1  0.4835910000000  0.5695020000000  0.4524370000000 1.0
C      1  0.5387540000000  0.5713040000000  0.4623240000000 1.0
C      1  0.4423440000000  0.4458270000000  0.4608960000000 1.0
C      1  0.4402130000000  0.4432150000000  0.5454370000000 1.0
C      1  0.5205140000000  0.4420890000000  0.5729850000000 1.0
C      1  0.5679900000000  0.4460020000000  0.4945510000000 1.0
C      1  0.5185490000000  0.4481560000000  0.4283960000000 1.0
C      1  0.4391000000000  0.5581110000000  0.5430580000000 1.0
C      1  0.4406500000000  0.5539990000000  0.4584240000000 1.0
C      1  0.5186180000000  0.5536740000000  0.4260280000000 1.0
C      1  0.5683120000000  0.5557790000000  0.4946280000000 1.0
C      1  0.5190470000000  0.5483800000000  0.5713150000000 1.0
C      1  0.4236860000000  0.5408000000000  0.5265540000000 1.0
C      1  0.4946570000000  0.5350190000000  0.5794570000000 1.0
C      1  0.5706050000000  0.5401210000000  0.5182990000000 1.0
C      1  0.5419590000000  0.5379520000000  0.4289700000000 1.0
C      1  0.4495150000000  0.5380880000000  0.4365360000000 1.0
C      1  0.4259500000000  0.4598960000000  0.4792850000000 1.0
C      1  0.4940130000000  0.4602520000000  0.4217770000000 1.0
C      1  0.5701520000000  0.4611900000000  0.4698860000000 1.0
C      1  0.5435040000000  0.4577110000000  0.5658850000000 1.0
C      1  0.4487770000000  0.4501600000000  0.5709290000000 1.0
C      1  0.5503160000000  0.4891150000000  0.4352050000000 1.0
C      1  0.4562290000000  0.4873590000000  0.4314390000000 1.0
C      1  0.4277000000000  0.4891380000000  0.5229280000000 1.0
C      1  0.5084890000000  0.4848110000000  0.5836940000000 1.0
C      1  0.5762940000000  0.4873030000000  0.5239140000000 1.0
C      1  0.5515890000000  0.5081360000000  0.5672040000000 1.0
C      1  0.4342030000000  0.5195320000000  0.5640530000000 1.0
C      1  0.4245790000000  0.5106040000000  0.4645900000000 1.0
C      1  0.5055140000000  0.5100660000000  0.4174910000000 1.0
C      1  0.5766760000000  0.5125570000000  0.4789870000000 1.0
C      1  0.5183280000000  0.4756280000000  0.5196060000000 1.0
C      1  0.5179740000000  0.4713560000000  0.4897900000000 1.0
C      1  0.4902840000000  0.4703390000000  0.4808780000000 1.0
C      1  0.4742520000000  0.4759590000000  0.5052490000000 1.0
C      1  0.4906690000000  0.4770530000000  0.5301530000000 1.0
C      1  0.5181200000000  0.5194680000000  0.4816740000000 1.0
C      1  0.5187790000000  0.5230900000000  0.5115990000000 1.0
C      1  0.4878070000000  0.5223780000000  0.5225340000000 1.0
C      1  0.4681970000000  0.5192700000000  0.4996110000000 1.0
C      1  0.4889600000000  0.5159120000000  0.4745290000000 1.0
C      1  0.5536370000000  0.5501840000000  0.5401720000000 1.0
C      1  0.5559610000000  0.5505170000000  0.4507050000000 1.0
C      1  0.4746940000000  0.5497830000000  0.4310610000000 1.0
C      1  0.4291520000000  0.5499480000000  0.5005820000000 1.0
C      1  0.4735860000000  0.5523210000000  0.5715740000000 1.0
C      1  0.5573800000000  0.4457260000000  0.4502640000000 1.0
C      1  0.5535300000000  0.4457930000000  0.5407360000000 1.0
C      1  0.4754000000000  0.4438100000000  0.5733990000000 1.0
C      1  0.4297560000000  0.4451310000000  0.5029560000000 1.0
C      1  0.4741810000000  0.4431290000000  0.4318990000000 1.0
C      1  0.4924050000000  0.5068110000000  0.5733210000000 1.0
C      1  0.5614970000000  0.4902070000000  0.4649730000000 1.0
C      1  0.4868690000000  0.4884380000000  0.4277450000000 1.0
C      1  0.5581600000000  0.4994420000000  0.5412010000000 1.0
C      1  0.4277830000000  0.4884770000000  0.4829370000000 1.0
C      1  0.4854980000000  0.5023950000000  0.5445530000000 1.0
C      1  0.5318700000000  0.4931720000000  0.4765960000000 1.0
C      1  0.5316420000000  0.5007570000000  0.5256100000000 1.0
C      1  0.4848100000000  0.4908180000000  0.4605430000000 1.0
C      1  0.4506760000000  0.4945380000000  0.5029290000000 1.0
C      1  0.5785860000000  0.5120830000000  0.5080930000000 1.0
C      1  0.4228290000000  0.5131270000000  0.5393980000000 1.0
C      1  0.5374670000000  0.4845570000000  0.5763040000000 1.0
C      1  0.5348330000000  0.5103860000000  0.4234380000000 1.0
C      1  0.4402310000000  0.5104770000000  0.4397750000000 1.0
C      1  0.4914330000000  0.3822300000000  0.4920510000000 1.0
C      1  0.5000410000000  0.6243150000000  0.4998820000000 1.0
C      1  0.5323930000000  0.4118570000000  0.5083900000000 1.0
C      1  0.5321020000000  0.5849810000000  0.5103160000000 1.0
C      1  0.5133650000000  0.6045510000000  0.5060830000000 1.0
C      1  0.5122400000000  0.3937720000000  0.5007470000000 1.0
C      1  0.4944860000000  0.5001810000000  0.5018700000000 1.0
END
