TITL C-20173-7598-5 535.266065855595 125000 -1060.81656829121 0 0 146 (C3) n - 1
REM
REM in /rds/project/t2_vol4/rds-t2-cs072/BORA/CARBON/from-Arr/AIRSS/Generating-Clusters/GAP-ML-2020/Higher-Symm/SD-CG/HFTN-CG
REM
REM
REM
REM
REM
REM ./C.cell (b20cbc046b6831c77cfcea5457e17084)
REM AIRSS Version 0.9.1 bugfix July 2018 build 013d7b7c2542+ Fri, 06 Jul 2018 19:26:36 +0100
REM compiler GCC version 9.3.0
REM options -cpp -mtune=generic -march=x86-64 -g -O0
REM seed -1686812904 -531003629 333123063 -1787511116 -906094321 -1451242542 1440149652 -607754591 -956170153 451304160 755723793 293973437 -1458218271 -2126240018 -1274741887 -28448125 -1237402755 1097162131 1288520606 1717596087 1236304229 1941934553 -40875747 -2101783784 646597895 -1475831726 -595891488 -1550147343 -849090977 -1664528944 -897285124 1309866824 -1045177104
REM
CELL 1.54180   50.00000   50.00000   50.00000   90.00000   90.00000   90.00000
LATT -1
SFAC C  
C      1  0.4062460000000  0.4990190000000  0.5545080000000 1.0
C      1  0.5937590000000  0.4990180000000  0.5548440000000 1.0
C      1  0.5002940000000  0.4990240000000  0.3922850000000 1.0
C      1  0.4347420000000  0.4221810000000  0.5235680000000 1.0
C      1  0.5527190000000  0.4221810000000  0.5456320000000 1.0
C      1  0.5128380000000  0.4221840000000  0.4324290000000 1.0
C      1  0.5221670000000  0.4234520000000  0.4773580000000 1.0
C      1  0.4689870000000  0.4234520000000  0.4930250000000 1.0
C      1  0.5091450000000  0.4234500000000  0.5312470000000 1.0
C      1  0.4716680000000  0.5528000000000  0.5061020000000 1.0
C      1  0.5191260000000  0.5528000000000  0.5223930000000 1.0
C      1  0.5095050000000  0.5528010000000  0.4731470000000 1.0
C      1  0.6039850000000  0.4897090000000  0.4965470000000 1.0
C      1  0.4446940000000  0.4897120000000  0.4125770000000 1.0
C      1  0.4516200000000  0.4897070000000  0.5925130000000 1.0
C      1  0.5041110000000  0.5837370000000  0.4689360000000 1.0
C      1  0.4707160000000  0.5837350000000  0.5128810000000 1.0
C      1  0.5254720000000  0.5837350000000  0.5198290000000 1.0
C      1  0.4574910000000  0.4976010000000  0.5284060000000 1.0
C      1  0.5455320000000  0.4976010000000  0.5235160000000 1.0
C      1  0.4972760000000  0.4976040000000  0.4497150000000 1.0
C      1  0.4817160000000  0.4175090000000  0.5390560000000 1.0
C      1  0.5426440000000  0.4175100000000  0.4972070000000 1.0
C      1  0.4759380000000  0.4175110000000  0.4653670000000 1.0
C      1  0.4705570000000  0.5745550000000  0.5644690000000 1.0
C      1  0.5702280000000  0.5745570000000  0.4941720000000 1.0
C      1  0.4595140000000  0.5745590000000  0.4430030000000 1.0
C      1  0.4185610000000  0.4383910000000  0.5047870000000 1.0
C      1  0.5445430000000  0.4383890000000  0.5690370000000 1.0
C      1  0.5371940000000  0.4383940000000  0.4278080000000 1.0
C      1  0.5876020000000  0.5576050000000  0.5101440000000 1.0
C      1  0.4646590000000  0.5576080000000  0.4199700000000 1.0
C      1  0.4480380000000  0.5576030000000  0.5715290000000 1.0
C      1  0.4149320000000  0.4735620000000  0.5646090000000 1.0
C      1  0.5981650000000  0.4735620000000  0.5422700000000 1.0
C      1  0.4872020000000  0.4735670000000  0.3947550000000 1.0
C      1  0.5283090000000  0.5412020000000  0.4967030000000 1.0
C      1  0.4826660000000  0.5412020000000  0.4780390000000 1.0
C      1  0.4893240000000  0.5412010000000  0.5269000000000 1.0
C      1  0.4063510000000  0.5273110000000  0.5170280000000 1.0
C      1  0.5612470000000  0.5273090000000  0.5734940000000 1.0
C      1  0.5327010000000  0.5273140000000  0.4111180000000 1.0
C      1  0.5458720000000  0.5749810000000  0.4542970000000 1.0
C      1  0.4371590000000  0.5749800000000  0.4840340000000 1.0
C      1  0.5172680000000  0.5749770000000  0.5633140000000 1.0
C      1  0.5408000000000  0.5255900000000  0.4398890000000 1.0
C      1  0.4272180000000  0.5255890000000  0.4956280000000 1.0
C      1  0.5322810000000  0.5255860000000  0.5661230000000 1.0
C      1  0.4390180000000  0.5528830000000  0.5041910000000 1.0
C      1  0.5337960000000  0.5528810000000  0.5516240000000 1.0
C      1  0.5274850000000  0.5528850000000  0.4458280000000 1.0
C      1  0.5400460000000  0.4693540000000  0.5165830000000 1.0
C      1  0.4940160000000  0.4693560000000  0.4579310000000 1.0
C      1  0.4662370000000  0.4693540000000  0.5271210000000 1.0
C      1  0.5991840000000  0.5206950000000  0.5378200000000 1.0
C      1  0.4828380000000  0.5207000000000  0.3961000000000 1.0
C      1  0.4182770000000  0.5206950000000  0.5677190000000 1.0
C      1  0.4719140000000  0.4539930000000  0.4992260000000 1.0
C      1  0.5130510000000  0.4539920000000  0.5256120000000 1.0
C      1  0.5153340000000  0.4539940000000  0.4767940000000 1.0
C      1  0.4083910000000  0.4773610000000  0.4800140000000 1.0
C      1  0.5281730000000  0.4773570000000  0.5902320000000 1.0
C      1  0.5637340000000  0.4773620000000  0.4313890000000 1.0
C      1  0.4483950000000  0.4405270000000  0.5691140000000 1.0
C      1  0.5853350000000  0.4405290000000  0.5110370000000 1.0
C      1  0.4665690000000  0.4405320000000  0.4214810000000 1.0
C      1  0.4782360000000  0.4999370000000  0.6007180000000 1.0
C      1  0.5977840000000  0.4999410000000  0.4693940000000 1.0
C      1  0.4242800000000  0.4999420000000  0.4315250000000 1.0
C      1  0.4889840000000  0.5463970000000  0.4085800000000 1.0
C      1  0.4260110000000  0.5463930000000  0.5561570000000 1.0
C      1  0.5853040000000  0.5463930000000  0.5369050000000 1.0
C      1  0.5418440000000  0.5159170000000  0.4984520000000 1.0
C      1  0.4774130000000  0.5159180000000  0.4654420000000 1.0
C      1  0.4810420000000  0.5159160000000  0.5377450000000 1.0
C      1  0.4136270000000  0.4969450000000  0.4592890000000 1.0
C      1  0.5076070000000  0.4969400000000  0.5960620000000 1.0
C      1  0.5790650000000  0.4969450000000  0.4462860000000 1.0
C      1  0.4439360000000  0.4520050000000  0.4614050000000 1.0
C      1  0.4942860000000  0.4520020000000  0.5687530000000 1.0
C      1  0.5620760000000  0.4520050000000  0.4714750000000 1.0
C      1  0.4361030000000  0.5144100000000  0.5884270000000 1.0
C      1  0.6082050000000  0.5144130000000  0.5120290000000 1.0
C      1  0.4559910000000  0.5144160000000  0.4011830000000 1.0
C      1  0.4029200000000  0.4560740000000  0.5202860000000 1.0
C      1  0.5657870000000  0.4560720000000  0.5748340000000 1.0
C      1  0.5315930000000  0.4560780000000  0.4065130000000 1.0
C      1  0.5644340000000  0.5492510000000  0.5558060000000 1.0
C      1  0.5157880000000  0.5492560000000  0.4172030000000 1.0
C      1  0.4200770000000  0.5492520000000  0.5286330000000 1.0
C      1  0.4750240000000  0.5289660000000  0.6031260000000 1.0
C      1  0.6014740000000  0.5289700000000  0.4709740000000 1.0
C      1  0.4238020000000  0.5289720000000  0.4275410000000 1.0
C      1  0.5351470000000  0.4126690000000  0.5248440000000 1.0
C      1  0.5036210000000  0.4126710000000  0.4580400000000 1.0
C      1  0.4615300000000  0.4126690000000  0.5187450000000 1.0
C      1  0.6041700000000  0.5379370000000  0.4968830000000 1.0
C      1  0.4448920000000  0.5379400000000  0.4122510000000 1.0
C      1  0.4512370000000  0.5379350000000  0.5925060000000 1.0
C      1  0.4669070000000  0.4688920000000  0.4732600000000 1.0
C      1  0.4930660000000  0.4688900000000  0.5429330000000 1.0
C      1  0.5403260000000  0.4688920000000  0.4854420000000 1.0
C      1  0.4599650000000  0.5922370000000  0.4874780000000 1.0
C      1  0.5088480000000  0.5922350000000  0.5418420000000 1.0
C      1  0.5314860000000  0.5922370000000  0.4723260000000 1.0
C      1  0.3987950000000  0.4811010000000  0.5076510000000 1.0
C      1  0.5569060000000  0.4810980000000  0.5847240000000 1.0
C      1  0.5445980000000  0.4811040000000  0.4092600000000 1.0
C      1  0.4095830000000  0.4524780000000  0.5471690000000 1.0
C      1  0.5857370000000  0.4524780000000  0.5556220000000 1.0
C      1  0.5049790000000  0.4524830000000  0.3988420000000 1.0
C      1  0.4154970000000  0.5234210000000  0.4696980000000 1.0
C      1  0.5156850000000  0.5234170000000  0.5892390000000 1.0
C      1  0.5691170000000  0.5234210000000  0.4427030000000 1.0
C      1  0.5022780000000  0.4970500000000  0.5350180000000 1.0
C      1  0.5288640000000  0.4970520000000  0.4814230000000 1.0
C      1  0.4691560000000  0.4970520000000  0.4851960000000 1.0
C      1  0.4350010000000  0.5672210000000  0.4568740000000 1.0
C      1  0.4948260000000  0.5672170000000  0.5787620000000 1.0
C      1  0.5704720000000  0.5672210000000  0.4660080000000 1.0
C      1  0.5739980000000  0.5028010000000  0.5754190000000 1.0
C      1  0.5279920000000  0.5028060000000  0.3991120000000 1.0
C      1  0.3983090000000  0.5028020000000  0.5271070000000 1.0
C      1  0.5676440000000  0.4314550000000  0.4907560000000 1.0
C      1  0.4578510000000  0.4314560000000  0.4469420000000 1.0
C      1  0.4748040000000  0.4314520000000  0.5639320000000 1.0
C      1  0.4394480000000  0.4670230000000  0.5792990000000 1.0
C      1  0.5986290000000  0.4670250000000  0.5136930000000 1.0
C      1  0.4622220000000  0.4670290000000  0.4086420000000 1.0
C      1  0.4205240000000  0.5435310000000  0.4510770000000 1.0
C      1  0.4970450000000  0.5435260000000  0.5941960000000 1.0
C      1  0.5827290000000  0.5435300000000  0.4563680000000 1.0
C      1  0.5285400000000  0.5039600000000  0.5447240000000 1.0
C      1  0.5241390000000  0.5039630000000  0.4538270000000 1.0
C      1  0.4476200000000  0.5039610000000  0.5030870000000 1.0
C      1  0.5779400000000  0.4322170000000  0.5373850000000 1.0
C      1  0.4930850000000  0.4322210000000  0.4147110000000 1.0
C      1  0.4292740000000  0.4322170000000  0.5495350000000 1.0
C      1  0.4764380000000  0.5897780000000  0.4635780000000 1.0
C      1  0.4799130000000  0.5897750000000  0.5395260000000 1.0
C      1  0.5439480000000  0.5897770000000  0.4985420000000 1.0
C      1  0.4216050000000  0.4517970000000  0.4790950000000 1.0
C      1  0.5207710000000  0.4517930000000  0.5792470000000 1.0
C      1  0.5579220000000  0.4517980000000  0.4432900000000 1.0
C      1  0.5001000000000  0.4907950000000  0.5005460000000 1.0
C      1  0.5001000000000  0.4612850000000  0.5005450000000 1.0
END
