TITL C-205046-2948-6 0.0190345046172572 125000 -144.673462275094 0 0 22 (Ci) n - 1
REM
REM in /rds/project/t2_vol4/rds-t2-cs072/BORA/CARBON/from-Arr/AIRSS/Generating-Clusters/GAP-ML-2020/Higher-Symm/SD-CG/HFTN-CG
REM
REM
REM
REM
REM
REM ./C.cell (b20cbc046b6831c77cfcea5457e17084)
REM AIRSS Version 0.9.1 bugfix July 2018 build 013d7b7c2542+ Fri, 06 Jul 2018 19:26:36 +0100
REM compiler GCC version 9.3.0
REM options -cpp -mtune=generic -march=x86-64 -g -O0
REM seed 76973240 -303882437 2051256511 1778129329 -206677431 794933945 895293701 -1223737400 768788154 -1691134150 -531318154 1020429353 -2053254906 -1863757314 2066460507 423084484 1676296236 2122449292 593946969 -717273470 1873786663 -918442879 786217483 581506319 551205356 -164878779 -849086193 -853218071 1899788602 1112564670 -1723273240 1092042926 -1938283611
REM
CELL 1.54180   50.00000   50.00000   50.00000   90.00000   90.00000   90.00000
LATT -1
SFAC C  
C      1  0.5003720000000  0.5102140000000  0.4551740000000 1.0
C      1  0.4996280000000  0.4897860000000  0.5448260000000 1.0
C      1  0.4553300000000  0.5267620000000  0.5036790000000 1.0
C      1  0.5446700000000  0.4732380000000  0.4963210000000 1.0
C      1  0.4755830000000  0.5002530000000  0.5404490000000 1.0
C      1  0.5244170000000  0.4997470000000  0.4595510000000 1.0
C      1  0.5239160000000  0.4844350000000  0.5403940000000 1.0
C      1  0.4760840000000  0.5155650000000  0.4596060000000 1.0
C      1  0.4684330000000  0.5513720000000  0.5044670000000 1.0
C      1  0.5315670000000  0.4486280000000  0.4955330000000 1.0
C      1  0.4478220000000  0.4840140000000  0.4793680000000 1.0
C      1  0.5521780000000  0.5159860000000  0.5206320000000 1.0
C      1  0.4553440000000  0.5109090000000  0.4779380000000 1.0
C      1  0.5446560000000  0.4890910000000  0.5220620000000 1.0
C      1  0.4823640000000  0.4479270000000  0.4851000000000 1.0
C      1  0.5176360000000  0.5520730000000  0.5149000000000 1.0
C      1  0.4615220000000  0.4625950000000  0.4807410000000 1.0
C      1  0.5384780000000  0.5374050000000  0.5192590000000 1.0
C      1  0.4573460000000  0.5122690000000  0.5278110000000 1.0
C      1  0.5426540000000  0.4877310000000  0.4721890000000 1.0
C      1  0.4925340000000  0.5567810000000  0.5108630000000 1.0
C      1  0.5074660000000  0.4432190000000  0.4891370000000 1.0
END
