TITL C-205044-2593-11 79.9865451829304 125000 -510.237203642947 0 0 76 (C1) n - 1
REM
REM in /rds/project/t2_vol4/rds-t2-cs072/BORA/CARBON/from-Arr/AIRSS/Generating-Clusters/GAP-ML-2020/Higher-Symm/SD-CG/HFTN-CG
REM
REM
REM
REM
REM
REM ./C.cell (b20cbc046b6831c77cfcea5457e17084)
REM AIRSS Version 0.9.1 bugfix July 2018 build 013d7b7c2542+ Fri, 06 Jul 2018 19:26:36 +0100
REM compiler GCC version 9.3.0
REM options -cpp -mtune=generic -march=x86-64 -g -O0
REM seed -980210594 389817053 1625984062 -727363615 -1658614477 2035841913 -2136545617 1745370532 1371359686 1998803351 -130796538 185265586 -432290289 -939434693 836905802 1338143280 1419469966 1069523879 -1333236938 1200185793 -1027141446 -1292325503 -1440362974 1752348478 1731707431 -1544740376 930695246 -389008264 299232399 2066301872 298102081 718376445 2040021645
REM
CELL 1.54180   50.00000   50.00000   50.00000   90.00000   90.00000   90.00000
LATT -1
SFAC C  
C      1  0.5141300000000  0.4166260000000  0.4862290000000 1.0
C      1  0.4334480000000  0.5279240000000  0.4801170000000 1.0
C      1  0.5720170000000  0.5581670000000  0.4868720000000 1.0
C      1  0.5142440000000  0.5733680000000  0.5227960000000 1.0
C      1  0.4156770000000  0.4682990000000  0.5141020000000 1.0
C      1  0.5536530000000  0.4609990000000  0.5232860000000 1.0
C      1  0.5165860000000  0.4921360000000  0.5754160000000 1.0
C      1  0.4891350000000  0.4894490000000  0.5748940000000 1.0
C      1  0.5007490000000  0.5148500000000  0.5720070000000 1.0
C      1  0.5118360000000  0.5092900000000  0.4229720000000 1.0
C      1  0.4841660000000  0.5129420000000  0.4257450000000 1.0
C      1  0.4946940000000  0.4874710000000  0.4238120000000 1.0
C      1  0.5749950000000  0.5171950000000  0.5328180000000 1.0
C      1  0.4755430000000  0.4285300000000  0.5342990000000 1.0
C      1  0.4491750000000  0.5485280000000  0.5337940000000 1.0
C      1  0.5664930000000  0.4848660000000  0.4661620000000 1.0
C      1  0.4837780000000  0.5724970000000  0.4701610000000 1.0
C      1  0.4486290000000  0.4462970000000  0.4658900000000 1.0
C      1  0.5116350000000  0.5757850000000  0.4754260000000 1.0
C      1  0.5547020000000  0.4609010000000  0.4771980000000 1.0
C      1  0.4268910000000  0.4657550000000  0.4681250000000 1.0
C      1  0.5029650000000  0.4197500000000  0.5316920000000 1.0
C      1  0.5667470000000  0.5440820000000  0.5340500000000 1.0
C      1  0.4327020000000  0.5264110000000  0.5264720000000 1.0
C      1  0.5183770000000  0.4076200000000  0.5126000000000 1.0
C      1  0.4194030000000  0.5184450000000  0.5025070000000 1.0
C      1  0.5722780000000  0.5633910000000  0.5145410000000 1.0
C      1  0.5270980000000  0.5813450000000  0.4991520000000 1.0
C      1  0.4076640000000  0.4699010000000  0.4871190000000 1.0
C      1  0.5549260000000  0.4447140000000  0.5000400000000 1.0
C      1  0.5733750000000  0.5031960000000  0.5081420000000 1.0
C      1  0.4584310000000  0.4392470000000  0.5141040000000 1.0
C      1  0.4676580000000  0.5604230000000  0.5161820000000 1.0
C      1  0.5736390000000  0.5086130000000  0.4808050000000 1.0
C      1  0.4656790000000  0.5611380000000  0.4881460000000 1.0
C      1  0.4659520000000  0.4370320000000  0.4865770000000 1.0
C      1  0.4706500000000  0.5078750000000  0.5048800000000 1.0
C      1  0.5369300000000  0.5356190000000  0.5036120000000 1.0
C      1  0.5075460000000  0.4580110000000  0.5086640000000 1.0
C      1  0.4549710000000  0.4854620000000  0.4941660000000 1.0
C      1  0.5184370000000  0.4843830000000  0.4987840000000 1.0
C      1  0.5094080000000  0.5346380000000  0.4945940000000 1.0
C      1  0.4474210000000  0.4874420000000  0.4635030000000 1.0
C      1  0.5137250000000  0.5469850000000  0.4654450000000 1.0
C      1  0.5272240000000  0.4725830000000  0.4685130000000 1.0
C      1  0.4564660000000  0.5090010000000  0.5347210000000 1.0
C      1  0.5118560000000  0.4476630000000  0.5386600000000 1.0
C      1  0.5384810000000  0.5348890000000  0.5341730000000 1.0
C      1  0.5478040000000  0.5055750000000  0.5413720000000 1.0
C      1  0.4850730000000  0.4485890000000  0.5524960000000 1.0
C      1  0.4667470000000  0.5325210000000  0.5510580000000 1.0
C      1  0.5436610000000  0.4893540000000  0.4493820000000 1.0
C      1  0.4869590000000  0.5497900000000  0.4513200000000 1.0
C      1  0.4618660000000  0.4651620000000  0.4491460000000 1.0
C      1  0.4689000000000  0.5288460000000  0.4434710000000 1.0
C      1  0.5357150000000  0.5135690000000  0.4377710000000 1.0
C      1  0.4879970000000  0.4650230000000  0.4398230000000 1.0
C      1  0.4719010000000  0.4713170000000  0.5613560000000 1.0
C      1  0.5381600000000  0.4841390000000  0.5594680000000 1.0
C      1  0.4939020000000  0.5383630000000  0.5584260000000 1.0
C      1  0.4463340000000  0.5164260000000  0.4576220000000 1.0
C      1  0.5382830000000  0.5348560000000  0.4559910000000 1.0
C      1  0.5049460000000  0.4564060000000  0.4603800000000 1.0
C      1  0.4540710000000  0.4813000000000  0.5422220000000 1.0
C      1  0.5378890000000  0.4579950000000  0.5466960000000 1.0
C      1  0.5144370000000  0.5507680000000  0.5419670000000 1.0
C      1  0.4958090000000  0.4405350000000  0.4836360000000 1.0
C      1  0.4600700000000  0.5330720000000  0.4877310000000 1.0
C      1  0.5576520000000  0.5336680000000  0.4783450000000 1.0
C      1  0.4957390000000  0.5534510000000  0.5162610000000 1.0
C      1  0.4452080000000  0.4658640000000  0.5184230000000 1.0
C      1  0.5479300000000  0.4891870000000  0.5158130000000 1.0
C      1  0.4067280000000  0.4935490000000  0.5033910000000 1.0
C      1  0.5550860000000  0.5794270000000  0.4977830000000 1.0
C      1  0.5393150000000  0.4215570000000  0.4986330000000 1.0
C      1  0.4995750000000  0.5070000000000  0.4998360000000 1.0
END
