TITL C-207193-9137-3 -19.4277784819125 125000 -494.464861644015 0 0 76 (C4v) n - 1
REM
REM in /rds/project/t2_vol4/rds-t2-cs072/BORA/CARBON/from-Arr/AIRSS/Generating-Clusters/GAP-ML-2020/Higher-Symm/SD-CG/HFTN-CG
REM
REM
REM
REM
REM
REM ./C.cell (b20cbc046b6831c77cfcea5457e17084)
REM AIRSS Version 0.9.1 bugfix July 2018 build 013d7b7c2542+ Fri, 06 Jul 2018 19:26:36 +0100
REM compiler GCC version 9.3.0
REM options -cpp -mtune=generic -march=x86-64 -g -O0
REM seed -1305172038 104351955 1670467191 -1607183010 -214480465 102740986 -98297060 109494843 -930450509 526126016 1714563241 1032946307 -1066324506 1320028939 1075390986 2025194269 717256387 1470028077 857219970 598754802 -1547212652 -898146645 -1925054369 2005874242 -1984655905 -581830622 -1000534541 -1372423008 -670611300 -356722235 -1914122743 -1061104956 -1421234670
REM
CELL 1.54180   50.00000   50.00000   50.00000   90.00000   90.00000   90.00000
LATT -1
SFAC C  
C      1  0.4850240000000  0.4641740000000  0.4427740000000 1.0
C      1  0.4641550000000  0.5149590000000  0.4427810000000 1.0
C      1  0.5149400000000  0.5358280000000  0.4427660000000 1.0
C      1  0.5358090000000  0.4850430000000  0.4427580000000 1.0
C      1  0.5149440000000  0.4641760000000  0.4427640000000 1.0
C      1  0.5358070000000  0.5149630000000  0.4427580000000 1.0
C      1  0.4850200000000  0.5358270000000  0.4427750000000 1.0
C      1  0.4641560000000  0.4850390000000  0.4427810000000 1.0
C      1  0.5333410000000  0.4861610000000  0.4819280000000 1.0
C      1  0.4861550000000  0.4666530000000  0.4819420000000 1.0
C      1  0.4666470000000  0.5138390000000  0.4819490000000 1.0
C      1  0.5138330000000  0.5333470000000  0.4819350000000 1.0
C      1  0.4666490000000  0.4861580000000  0.4819490000000 1.0
C      1  0.5138370000000  0.4666550000000  0.4819330000000 1.0
C      1  0.5333400000000  0.5138430000000  0.4819280000000 1.0
C      1  0.4861510000000  0.5333460000000  0.4819440000000 1.0
C      1  0.5373240000000  0.5724110000000  0.4989060000000 1.0
C      1  0.5724110000000  0.4626760000000  0.4988930000000 1.0
C      1  0.4626750000000  0.4275890000000  0.4989270000000 1.0
C      1  0.4275880000000  0.5373240000000  0.4989410000000 1.0
C      1  0.4626670000000  0.5724070000000  0.4989300000000 1.0
C      1  0.4275920000000  0.4626680000000  0.4989390000000 1.0
C      1  0.5373320000000  0.4275930000000  0.4989030000000 1.0
C      1  0.5724070000000  0.5373320000000  0.4988940000000 1.0
C      1  0.5141830000000  0.4223190000000  0.4800300000000 1.0
C      1  0.4223120000000  0.4858110000000  0.4800600000000 1.0
C      1  0.4858040000000  0.5776820000000  0.4800420000000 1.0
C      1  0.5776750000000  0.5141900000000  0.4800110000000 1.0
C      1  0.4858130000000  0.4223170000000  0.4800390000000 1.0
C      1  0.5776760000000  0.4858200000000  0.4800110000000 1.0
C      1  0.5141740000000  0.5776830000000  0.4800330000000 1.0
C      1  0.4223100000000  0.5141810000000  0.4800610000000 1.0
C      1  0.4436800000000  0.5257640000000  0.4630170000000 1.0
C      1  0.5257520000000  0.5563090000000  0.4629910000000 1.0
C      1  0.5562960000000  0.4742370000000  0.4629800000000 1.0
C      1  0.4742240000000  0.4436930000000  0.4630050000000 1.0
C      1  0.5562930000000  0.5257710000000  0.4629810000000 1.0
C      1  0.4742180000000  0.5563060000000  0.4630080000000 1.0
C      1  0.4436830000000  0.4742310000000  0.4630160000000 1.0
C      1  0.5257580000000  0.4436960000000  0.4629890000000 1.0
C      1  0.4661420000000  0.5566460000000  0.5238040000000 1.0
C      1  0.5566540000000  0.5338650000000  0.5237750000000 1.0
C      1  0.5338730000000  0.4433530000000  0.5237800000000 1.0
C      1  0.4433610000000  0.4661340000000  0.5238090000000 1.0
C      1  0.5338660000000  0.5566500000000  0.5237820000000 1.0
C      1  0.4433570000000  0.5338590000000  0.5238110000000 1.0
C      1  0.4661480000000  0.4433490000000  0.5238010000000 1.0
C      1  0.5566580000000  0.4661400000000  0.5237730000000 1.0
C      1  0.5571280000000  0.4846480000000  0.5462040000000 1.0
C      1  0.4846630000000  0.4428850000000  0.5462260000000 1.0
C      1  0.4429010000000  0.5153500000000  0.5462410000000 1.0
C      1  0.5153660000000  0.5571130000000  0.5462190000000 1.0
C      1  0.4429030000000  0.4846410000000  0.5462410000000 1.0
C      1  0.5153720000000  0.4428870000000  0.5462160000000 1.0
C      1  0.5571270000000  0.5153560000000  0.5462050000000 1.0
C      1  0.4846570000000  0.5571110000000  0.5462290000000 1.0
C      1  0.4646970000000  0.4846380000000  0.5651740000000 1.0
C      1  0.4846600000000  0.5353220000000  0.5651690000000 1.0
C      1  0.5353440000000  0.5153600000000  0.5651520000000 1.0
C      1  0.5153820000000  0.4646750000000  0.5651570000000 1.0
C      1  0.5353460000000  0.4846410000000  0.5651510000000 1.0
C      1  0.5153780000000  0.5353240000000  0.5651590000000 1.0
C      1  0.4646950000000  0.5153560000000  0.5651750000000 1.0
C      1  0.4846630000000  0.4646730000000  0.5651670000000 1.0
C      1  0.4856690000000  0.5345880000000  0.5137310000000 1.0
C      1  0.5345930000000  0.5143350000000  0.5137150000000 1.0
C      1  0.5143400000000  0.4654110000000  0.5137210000000 1.0
C      1  0.4654150000000  0.4856640000000  0.5137370000000 1.0
C      1  0.5143360000000  0.5345900000000  0.5137220000000 1.0
C      1  0.4654140000000  0.5143320000000  0.5137370000000 1.0
C      1  0.4856720000000  0.4654090000000  0.5137300000000 1.0
C      1  0.5345950000000  0.4856680000000  0.5137150000000 1.0
C      1  0.4457370000000  0.5542510000000  0.4791640000000 1.0
C      1  0.5542490000000  0.4457500000000  0.4791270000000 1.0
C      1  0.4457430000000  0.4457440000000  0.4791620000000 1.0
C      1  0.5542440000000  0.5542570000000  0.4791290000000 1.0
END
