TITL C-207195-9182-4 0.17725895596896 125000 -356.86965708227 0 0 57 (Cs) n - 1
REM
REM in /rds/project/t2_vol4/rds-t2-cs072/BORA/CARBON/from-Arr/AIRSS/Generating-Clusters/GAP-ML-2020/Higher-Symm/SD-CG/HFTN-CG
REM
REM
REM
REM
REM
REM ./C.cell (b20cbc046b6831c77cfcea5457e17084)
REM AIRSS Version 0.9.1 bugfix July 2018 build 013d7b7c2542+ Fri, 06 Jul 2018 19:26:36 +0100
REM compiler GCC version 9.3.0
REM options -cpp -mtune=generic -march=x86-64 -g -O0
REM seed -1338420276 499502410 -447207033 1023685647 -62481185 -263043913 -1798598652 -330071711 783314824 -1832978202 -1327888319 348835060 -1552100711 -727228066 919401693 368375920 -1453868287 -677783405 1061576223 249771211 1785428819 371936310 -2052618065 -192644753 -897362530 975415909 -871089084 -1103231414 -1378239434 56314045 -981291404 416999472 1358370785
REM
CELL 1.54180   50.00000   50.00000   50.00000   90.00000   90.00000   90.00000
LATT -1
SFAC C  
C      1  0.5145260000000  0.5314340000000  0.4447250000000 1.0
C      1  0.5145690000000  0.4752770000000  0.4417120000000 1.0
C      1  0.5156680000000  0.4400190000000  0.4851130000000 1.0
C      1  0.5159310000000  0.4501400000000  0.5355870000000 1.0
C      1  0.5154490000000  0.4970060000000  0.5616040000000 1.0
C      1  0.5158580000000  0.5463870000000  0.5407500000000 1.0
C      1  0.5155770000000  0.5618490000000  0.4916480000000 1.0
C      1  0.4916610000000  0.4278230000000  0.4920210000000 1.0
C      1  0.4897880000000  0.4470640000000  0.5447390000000 1.0
C      1  0.4883570000000  0.4965810000000  0.5691380000000 1.0
C      1  0.4897110000000  0.5484270000000  0.5501760000000 1.0
C      1  0.4915510000000  0.5732000000000  0.4998200000000 1.0
C      1  0.4894960000000  0.5400740000000  0.4342970000000 1.0
C      1  0.4895500000000  0.4677640000000  0.4304180000000 1.0
C      1  0.4439450000000  0.4769100000000  0.4658220000000 1.0
C      1  0.4466380000000  0.4615810000000  0.4923060000000 1.0
C      1  0.4461310000000  0.4713370000000  0.5207350000000 1.0
C      1  0.4455530000000  0.4984120000000  0.5344100000000 1.0
C      1  0.4460900000000  0.5267950000000  0.5237100000000 1.0
C      1  0.4465800000000  0.5395370000000  0.4964880000000 1.0
C      1  0.4439070000000  0.5271250000000  0.4685150000000 1.0
C      1  0.5434790000000  0.5290640000000  0.4481450000000 1.0
C      1  0.5435180000000  0.4773110000000  0.4453690000000 1.0
C      1  0.5442850000000  0.4435640000000  0.4849050000000 1.0
C      1  0.5446310000000  0.4525230000000  0.5356480000000 1.0
C      1  0.5441640000000  0.4970940000000  0.5603580000000 1.0
C      1  0.5445620000000  0.5440530000000  0.5405580000000 1.0
C      1  0.5441990000000  0.5583890000000  0.4910640000000 1.0
C      1  0.4845420000000  0.4984330000000  0.5345660000000 1.0
C      1  0.4845330000000  0.5242760000000  0.5237230000000 1.0
C      1  0.4840410000000  0.5324290000000  0.4967600000000 1.0
C      1  0.4825420000000  0.5165200000000  0.4727300000000 1.0
C      1  0.4825640000000  0.4870620000000  0.4711490000000 1.0
C      1  0.4840890000000  0.4686750000000  0.4933400000000 1.0
C      1  0.4845710000000  0.4738980000000  0.5210200000000 1.0
C      1  0.5551920000000  0.4716620000000  0.5536240000000 1.0
C      1  0.5551530000000  0.5231180000000  0.5563840000000 1.0
C      1  0.5551670000000  0.5565560000000  0.5170740000000 1.0
C      1  0.5540420000000  0.5483210000000  0.4662220000000 1.0
C      1  0.5534580000000  0.5035140000000  0.4408150000000 1.0
C      1  0.5541120000000  0.4562470000000  0.4612830000000 1.0
C      1  0.5552530000000  0.4426200000000  0.5109620000000 1.0
C      1  0.4692670000000  0.4742590000000  0.4484690000000 1.0
C      1  0.4692350000000  0.4423800000000  0.4899890000000 1.0
C      1  0.4658690000000  0.4534780000000  0.5350240000000 1.0
C      1  0.4640570000000  0.4971500000000  0.5581960000000 1.0
C      1  0.4658020000000  0.5430530000000  0.5398290000000 1.0
C      1  0.4691470000000  0.5589090000000  0.4962390000000 1.0
C      1  0.4692240000000  0.5316550000000  0.4515480000000 1.0
C      1  0.5164210000000  0.4736800000000  0.5190310000000 1.0
C      1  0.5164330000000  0.4985420000000  0.5329860000000 1.0
C      1  0.5163820000000  0.5247530000000  0.5217710000000 1.0
C      1  0.5149430000000  0.5330710000000  0.4943340000000 1.0
C      1  0.5133020000000  0.5167630000000  0.4698760000000 1.0
C      1  0.5133240000000  0.4871720000000  0.4682880000000 1.0
C      1  0.5149920000000  0.4683420000000  0.4908620000000 1.0
C      1  0.4336740000000  0.5022150000000  0.4633410000000 1.0
END
