TITL C-205055-5705-3 -0.541479153052106 125000 -295.526957363201 0 0 45 (C1) n - 1
REM
REM in /rds/project/t2_vol4/rds-t2-cs072/BORA/CARBON/from-Arr/AIRSS/Generating-Clusters/GAP-ML-2020/Higher-Symm/SD-CG/HFTN-CG
REM
REM
REM
REM
REM
REM ./C.cell (b20cbc046b6831c77cfcea5457e17084)
REM AIRSS Version 0.9.1 bugfix July 2018 build 013d7b7c2542+ Fri, 06 Jul 2018 19:26:36 +0100
REM compiler GCC version 9.3.0
REM options -cpp -mtune=generic -march=x86-64 -g -O0
REM seed -1586844659 -1163402856 -1430544571 -1307389774 18796235 -1836349437 293225236 -702603324 78437556 110175552 -142618856 -363485839 -356974907 -1625217977 873835020 -51361371 908422129 1644359545 675255652 1816454077 2132105955 -68855969 1338353255 -144222544 -852160310 542850183 -16615454 1804634117 719985173 675794110 -1313870462 -1817059549 -968094581
REM
CELL 1.54180   50.00000   50.00000   50.00000   90.00000   90.00000   90.00000
LATT -1
SFAC C  
C      1  0.5261300000000  0.4449650000000  0.4786340000000 1.0
C      1  0.5312760000000  0.4782910000000  0.5565230000000 1.0
C      1  0.5353260000000  0.5532990000000  0.5212460000000 1.0
C      1  0.5332130000000  0.5205750000000  0.4458480000000 1.0
C      1  0.5489390000000  0.5059660000000  0.4611640000000 1.0
C      1  0.5454720000000  0.4577940000000  0.4913340000000 1.0
C      1  0.5485260000000  0.4892720000000  0.5398780000000 1.0
C      1  0.5515830000000  0.5365800000000  0.5089580000000 1.0
C      1  0.4555050000000  0.5229960000000  0.5352560000000 1.0
C      1  0.4559100000000  0.5356410000000  0.4819550000000 1.0
C      1  0.4529340000000  0.4844210000000  0.4621980000000 1.0
C      1  0.4509200000000  0.4702660000000  0.5259590000000 1.0
C      1  0.5707220000000  0.4896490000000  0.5204460000000 1.0
C      1  0.5727330000000  0.5159650000000  0.5060880000000 1.0
C      1  0.5713820000000  0.5015860000000  0.4796990000000 1.0
C      1  0.5689800000000  0.4752590000000  0.4941190000000 1.0
C      1  0.4839540000000  0.4963810000000  0.5504950000000 1.0
C      1  0.4861920000000  0.5504830000000  0.5072470000000 1.0
C      1  0.4852010000000  0.5089280000000  0.4520540000000 1.0
C      1  0.4784660000000  0.4552920000000  0.4924240000000 1.0
C      1  0.5256360000000  0.5007300000000  0.4801700000000 1.0
C      1  0.5231200000000  0.4776800000000  0.4989260000000 1.0
C      1  0.5255710000000  0.4964530000000  0.5216690000000 1.0
C      1  0.5274390000000  0.5193780000000  0.5030600000000 1.0
C      1  0.4578050000000  0.5138980000000  0.4639230000000 1.0
C      1  0.4509870000000  0.4650790000000  0.4827950000000 1.0
C      1  0.4560300000000  0.4935250000000  0.5407270000000 1.0
C      1  0.4587880000000  0.5383140000000  0.5117900000000 1.0
C      1  0.5066540000000  0.5297360000000  0.4453600000000 1.0
C      1  0.4989960000000  0.4469590000000  0.4709860000000 1.0
C      1  0.5037640000000  0.4724580000000  0.5576650000000 1.0
C      1  0.5082070000000  0.5561450000000  0.5288060000000 1.0
C      1  0.4893600000000  0.4557580000000  0.4462310000000 1.0
C      1  0.4905810000000  0.4522370000000  0.5443830000000 1.0
C      1  0.4958690000000  0.5477430000000  0.5522300000000 1.0
C      1  0.4950650000000  0.5529770000000  0.4556230000000 1.0
C      1  0.4956790000000  0.5042040000000  0.4797790000000 1.0
C      1  0.4929140000000  0.4807690000000  0.4982950000000 1.0
C      1  0.4955360000000  0.4988980000000  0.5224660000000 1.0
C      1  0.4975570000000  0.5225310000000  0.5036920000000 1.0
C      1  0.4751460000000  0.4525150000000  0.5226000000000 1.0
C      1  0.4802070000000  0.5264720000000  0.5527960000000 1.0
C      1  0.4801960000000  0.5534170000000  0.4776890000000 1.0
C      1  0.4774650000000  0.4799380000000  0.4467990000000 1.0
C      1  0.4343160000000  0.4660820000000  0.5046120000000 1.0
END
