TITL C-205062-5890-8 0.0326983013576986 125000 -609.551071581 0 0 90 (C1) n - 1
REM
REM in /rds/project/t2_vol4/rds-t2-cs072/BORA/CARBON/from-Arr/AIRSS/Generating-Clusters/GAP-ML-2020/Higher-Symm/SD-CG/HFTN-CG
REM
REM
REM
REM
REM
REM ./C.cell (b20cbc046b6831c77cfcea5457e17084)
REM AIRSS Version 0.9.1 bugfix July 2018 build 013d7b7c2542+ Fri, 06 Jul 2018 19:26:36 +0100
REM compiler GCC version 9.3.0
REM options -cpp -mtune=generic -march=x86-64 -g -O0
REM seed 1131074057 -995866506 -4841968 -1183266875 -1025669166 -240628677 -1808122424 1264329259 -53514224 1593286766 1488942140 1828885234 -1785149576 650032478 -2034908283 -634787341 -2051645910 -1899581267 -620978054 1582343479 1928688203 1503637993 281774169 -597700998 40001699 -1339881304 -1114363224 -1750989401 -2027590895 212791310 -1142491082 1646591412 -1057435667
REM
CELL 1.54180   50.00000   50.00000   50.00000   90.00000   90.00000   90.00000
LATT -1
SFAC C  
C      1  0.5185320000000  0.4722990000000  0.5158390000000 1.0
C      1  0.5456830000000  0.4809150000000  0.5070730000000 1.0
C      1  0.5461190000000  0.5072080000000  0.5206490000000 1.0
C      1  0.5238820000000  0.5215370000000  0.5045520000000 1.0
C      1  0.5097900000000  0.5430080000000  0.5168390000000 1.0
C      1  0.4830330000000  0.5455310000000  0.5064620000000 1.0
C      1  0.4687350000000  0.5252780000000  0.5211030000000 1.0
C      1  0.4494530000000  0.5050210000000  0.5079430000000 1.0
C      1  0.4640140000000  0.4834140000000  0.5230560000000 1.0
C      1  0.4726250000000  0.4614540000000  0.5054810000000 1.0
C      1  0.5010920000000  0.4528110000000  0.5036030000000 1.0
C      1  0.5730060000000  0.5181140000000  0.5314040000000 1.0
C      1  0.5613440000000  0.5440690000000  0.5383290000000 1.0
C      1  0.5226350000000  0.5805970000000  0.5433710000000 1.0
C      1  0.4713610000000  0.5737510000000  0.5417950000000 1.0
C      1  0.4458290000000  0.5591670000000  0.5407440000000 1.0
C      1  0.4207900000000  0.5075550000000  0.5436960000000 1.0
C      1  0.4231970000000  0.4782200000000  0.5432780000000 1.0
C      1  0.4618940000000  0.4339760000000  0.5423200000000 1.0
C      1  0.4891230000000  0.4258080000000  0.5422620000000 1.0
C      1  0.5434800000000  0.4424330000000  0.5426380000000 1.0
C      1  0.5621660000000  0.4642490000000  0.5443160000000 1.0
C      1  0.5292560000000  0.5343550000000  0.4771650000000 1.0
C      1  0.5033760000000  0.5482440000000  0.4640890000000 1.0
C      1  0.4781550000000  0.5428750000000  0.4770210000000 1.0
C      1  0.4572790000000  0.5223380000000  0.4641570000000 1.0
C      1  0.4516270000000  0.4974470000000  0.4788180000000 1.0
C      1  0.4637700000000  0.4678730000000  0.4777300000000 1.0
C      1  0.4832580000000  0.4496040000000  0.4604240000000 1.0
C      1  0.5096780000000  0.4479810000000  0.4753770000000 1.0
C      1  0.5372930000000  0.4612210000000  0.4635380000000 1.0
C      1  0.5485130000000  0.4851080000000  0.4769440000000 1.0
C      1  0.5459410000000  0.5145230000000  0.4628640000000 1.0
C      1  0.5744300000000  0.5192280000000  0.4728400000000 1.0
C      1  0.5383360000000  0.5647770000000  0.4801320000000 1.0
C      1  0.5121040000000  0.5747830000000  0.4771770000000 1.0
C      1  0.4543780000000  0.5632260000000  0.4751110000000 1.0
C      1  0.4356160000000  0.5414300000000  0.4753580000000 1.0
C      1  0.4234200000000  0.4841880000000  0.4773100000000 1.0
C      1  0.4344040000000  0.4581990000000  0.4789850000000 1.0
C      1  0.4764730000000  0.4234500000000  0.4732600000000 1.0
C      1  0.5272130000000  0.4231080000000  0.4797060000000 1.0
C      1  0.5515520000000  0.4378870000000  0.4766110000000 1.0
C      1  0.5787360000000  0.4910530000000  0.4777160000000 1.0
C      1  0.4344860000000  0.5620350000000  0.5154710000000 1.0
C      1  0.4199010000000  0.5136690000000  0.5145510000000 1.0
C      1  0.4152690000000  0.4677170000000  0.5185810000000 1.0
C      1  0.4548630000000  0.4357890000000  0.5145060000000 1.0
C      1  0.4981490000000  0.4216440000000  0.5153290000000 1.0
C      1  0.5463010000000  0.4269560000000  0.5198320000000 1.0
C      1  0.5713840000000  0.4663060000000  0.5158360000000 1.0
C      1  0.5937020000000  0.5129770000000  0.5136730000000 1.0
C      1  0.5668040000000  0.5551800000000  0.5128120000000 1.0
C      1  0.5277400000000  0.5877500000000  0.5180380000000 1.0
C      1  0.4780120000000  0.5768880000000  0.5130580000000 1.0
C      1  0.4519220000000  0.5779840000000  0.4991970000000 1.0
C      1  0.4231640000000  0.5399940000000  0.5009890000000 1.0
C      1  0.4091550000000  0.4898170000000  0.5008280000000 1.0
C      1  0.4295760000000  0.4472490000000  0.5048730000000 1.0
C      1  0.4729880000000  0.4178600000000  0.4988120000000 1.0
C      1  0.5247410000000  0.4137410000000  0.5063430000000 1.0
C      1  0.5643810000000  0.4404370000000  0.5017600000000 1.0
C      1  0.5900760000000  0.4865740000000  0.5028890000000 1.0
C      1  0.5816980000000  0.5344340000000  0.4960610000000 1.0
C      1  0.5496820000000  0.5752250000000  0.5035490000000 1.0
C      1  0.5033650000000  0.5870930000000  0.5010040000000 1.0
C      1  0.5436630000000  0.4876700000000  0.4230010000000 1.0
C      1  0.5385160000000  0.5124940000000  0.4335150000000 1.0
C      1  0.5219570000000  0.5318210000000  0.4225040000000 1.0
C      1  0.5015420000000  0.5453740000000  0.4344080000000 1.0
C      1  0.4742800000000  0.5459780000000  0.4269210000000 1.0
C      1  0.4611330000000  0.5229270000000  0.4348530000000 1.0
C      1  0.4641620000000  0.4985010000000  0.4211450000000 1.0
C      1  0.4727750000000  0.4752460000000  0.4191840000000 1.0
C      1  0.4881220000000  0.4548290000000  0.4309980000000 1.0
C      1  0.5139090000000  0.4494230000000  0.4223900000000 1.0
C      1  0.5345820000000  0.4641250000000  0.4339580000000 1.0
C      1  0.5204770000000  0.4620890000000  0.5474070000000 1.0
C      1  0.5411900000000  0.4817380000000  0.5575330000000 1.0
C      1  0.5378380000000  0.5077410000000  0.5498700000000 1.0
C      1  0.5376980000000  0.5364600000000  0.5537680000000 1.0
C      1  0.5127400000000  0.5519270000000  0.5467920000000 1.0
C      1  0.4847010000000  0.5526210000000  0.5558800000000 1.0
C      1  0.4606100000000  0.5334500000000  0.5484630000000 1.0
C      1  0.4461540000000  0.5103810000000  0.5581940000000 1.0
C      1  0.4521760000000  0.4805500000000  0.5504980000000 1.0
C      1  0.4676420000000  0.4576630000000  0.5592850000000 1.0
C      1  0.4958060000000  0.4505320000000  0.5570620000000 1.0
C      1  0.4861050000000  0.5021630000000  0.5239330000000 1.0
C      1  0.5059770000000  0.4976840000000  0.5062480000000 1.0
END
