TITL C-207205-9056-8 -33.9593335130078 125000 -333.080226256736 0 0 49 (C1) n - 1
REM
REM in /rds/project/t2_vol4/rds-t2-cs072/BORA/CARBON/from-Arr/AIRSS/Generating-Clusters/GAP-ML-2020/Higher-Symm/SD-CG/HFTN-CG
REM
REM
REM
REM
REM
REM ./C.cell (b20cbc046b6831c77cfcea5457e17084)
REM AIRSS Version 0.9.1 bugfix July 2018 build 013d7b7c2542+ Fri, 06 Jul 2018 19:26:36 +0100
REM compiler GCC version 9.3.0
REM options -cpp -mtune=generic -march=x86-64 -g -O0
REM seed -790526338 -1069430943 -179715400 -1925228332 294429051 1673518533 1268761276 -2093665000 -934094940 914717224 -940406421 -1442732167 -1685110500 -1653042172 259625105 -1230796794 -351742624 1630234930 -1283694919 83273736 975848192 -953339889 1548941662 -828492799 -381633823 1521263522 1554028043 478082854 -722177625 2059765886 1032474032 -513724242 -1038723485
REM
CELL 1.54180   50.00000   50.00000   50.00000   90.00000   90.00000   90.00000
LATT -1
SFAC C  
C      1  0.5933560000000  0.5255090000000  0.5179980000000 1.0
C      1  0.5723010000000  0.4843260000000  0.4899430000000 1.0
C      1  0.5928610000000  0.5282960000000  0.4926150000000 1.0
C      1  0.5833820000000  0.4814600000000  0.5152870000000 1.0
C      1  0.5451250000000  0.4803390000000  0.5528980000000 1.0
C      1  0.5430500000000  0.5189560000000  0.4382380000000 1.0
C      1  0.5526780000000  0.4922920000000  0.4396590000000 1.0
C      1  0.5365870000000  0.5190250000000  0.5366460000000 1.0
C      1  0.5000660000000  0.5359470000000  0.4620140000000 1.0
C      1  0.4961820000000  0.4612780000000  0.5375310000000 1.0
C      1  0.4909390000000  0.5400840000000  0.5362360000000 1.0
C      1  0.4876720000000  0.4605030000000  0.4633850000000 1.0
C      1  0.5126810000000  0.5269760000000  0.5492690000000 1.0
C      1  0.5102440000000  0.4727890000000  0.4501260000000 1.0
C      1  0.5157180000000  0.5217270000000  0.4420060000000 1.0
C      1  0.5155980000000  0.4788810000000  0.5525090000000 1.0
C      1  0.4643640000000  0.4760670000000  0.4566630000000 1.0
C      1  0.4666570000000  0.5261490000000  0.5439010000000 1.0
C      1  0.4701010000000  0.4720830000000  0.5424840000000 1.0
C      1  0.4723490000000  0.5277590000000  0.4571950000000 1.0
C      1  0.5079290000000  0.5361060000000  0.4902270000000 1.0
C      1  0.5033760000000  0.4558490000000  0.5099110000000 1.0
C      1  0.4880220000000  0.5485200000000  0.5085900000000 1.0
C      1  0.4829340000000  0.4499620000000  0.4907280000000 1.0
C      1  0.4490550000000  0.4651310000000  0.5248190000000 1.0
C      1  0.4511100000000  0.5341360000000  0.4753340000000 1.0
C      1  0.4437740000000  0.4712230000000  0.4755000000000 1.0
C      1  0.4464200000000  0.5321860000000  0.5247260000000 1.0
C      1  0.4289530000000  0.4847200000000  0.5268070000000 1.0
C      1  0.4291090000000  0.5183160000000  0.4708320000000 1.0
C      1  0.4254040000000  0.4928380000000  0.4804210000000 1.0
C      1  0.4264970000000  0.5127170000000  0.5239690000000 1.0
C      1  0.5383400000000  0.4733410000000  0.4553670000000 1.0
C      1  0.5313740000000  0.4900110000000  0.5279760000000 1.0
C      1  0.5676060000000  0.5128030000000  0.4514480000000 1.0
C      1  0.5595670000000  0.5062890000000  0.5503290000000 1.0
C      1  0.4738020000000  0.4997210000000  0.5543720000000 1.0
C      1  0.4735640000000  0.5010570000000  0.4455310000000 1.0
C      1  0.4593000000000  0.5451590000000  0.5018310000000 1.0
C      1  0.4552140000000  0.4558670000000  0.4977270000000 1.0
C      1  0.5008180000000  0.4970020000000  0.4381570000000 1.0
C      1  0.5012240000000  0.5022830000000  0.5609280000000 1.0
C      1  0.5803700000000  0.5087920000000  0.4760760000000 1.0
C      1  0.5820720000000  0.5042620000000  0.5320380000000 1.0
C      1  0.5232860000000  0.4791220000000  0.5019650000000 1.0
C      1  0.4774850000000  0.5000630000000  0.5004890000000 1.0
C      1  0.5034740000000  0.5064380000000  0.5005180000000 1.0
C      1  0.4136120000000  0.4946950000000  0.5060670000000 1.0
C      1  0.5455340000000  0.4754220000000  0.4827290000000 1.0
END
