TITL C-207208-9215-4 -0.0450116182406928 125000 -531.544515353117 0 0 78 (Cs) n - 1
REM
REM in /rds/project/t2_vol4/rds-t2-cs072/BORA/CARBON/from-Arr/AIRSS/Generating-Clusters/GAP-ML-2020/Higher-Symm/SD-CG/HFTN-CG
REM
REM
REM
REM
REM
REM ./C.cell (b20cbc046b6831c77cfcea5457e17084)
REM AIRSS Version 0.9.1 bugfix July 2018 build 013d7b7c2542+ Fri, 06 Jul 2018 19:26:36 +0100
REM compiler GCC version 9.3.0
REM options -cpp -mtune=generic -march=x86-64 -g -O0
REM seed 1424001715 2084284160 2029315678 -2140745690 598148839 -1971936998 866017337 -891995434 -1751315777 -1551797387 -1887704715 2085831790 -233952976 843119972 943972156 -236487372 -1803874212 1866957457 1840838724 -1688132819 -274309295 -163317986 1714748659 1741677853 664502131 133883352 1073501920 426510987 1607999570 -1400748503 -1912885122 -928518821 -2045485273
REM
CELL 1.54180   50.00000   50.00000   50.00000   90.00000   90.00000   90.00000
LATT -1
SFAC C  
C      1  0.4426200000000  0.5133140000000  0.4466950000000 1.0
C      1  0.4461330000000  0.4846740000000  0.5528280000000 1.0
C      1  0.5578960000000  0.5146270000000  0.4462140000000 1.0
C      1  0.5525540000000  0.4864280000000  0.5536560000000 1.0
C      1  0.4425810000000  0.5133000000000  0.5532670000000 1.0
C      1  0.4461720000000  0.4846890000000  0.4471290000000 1.0
C      1  0.5578560000000  0.5146130000000  0.5538340000000 1.0
C      1  0.5525930000000  0.4864430000000  0.4463790000000 1.0
C      1  0.4372740000000  0.5214230000000  0.5251260000000 1.0
C      1  0.4366000000000  0.4758140000000  0.4738780000000 1.0
C      1  0.5627660000000  0.5221100000000  0.5255430000000 1.0
C      1  0.5584670000000  0.4771380000000  0.4741230000000 1.0
C      1  0.4372930000000  0.5214300000000  0.4748350000000 1.0
C      1  0.4365810000000  0.4758070000000  0.5260690000000 1.0
C      1  0.5627850000000  0.5221170000000  0.4745100000000 1.0
C      1  0.5584470000000  0.4771310000000  0.5259150000000 1.0
C      1  0.5134850000000  0.4208970000000  0.4855450000000 1.0
C      1  0.5150610000000  0.5738490000000  0.5142960000000 1.0
C      1  0.4843280000000  0.4194120000000  0.4854950000000 1.0
C      1  0.4848640000000  0.5736320000000  0.5143430000000 1.0
C      1  0.5134740000000  0.4208930000000  0.5144440000000 1.0
C      1  0.5150720000000  0.5738530000000  0.4857360000000 1.0
C      1  0.4843170000000  0.4194080000000  0.5144720000000 1.0
C      1  0.4848740000000  0.5736360000000  0.4856670000000 1.0
C      1  0.4666170000000  0.5148100000000  0.4847530000000 1.0
C      1  0.4631570000000  0.4856730000000  0.5153470000000 1.0
C      1  0.5334010000000  0.5171270000000  0.4848830000000 1.0
C      1  0.5309180000000  0.4869600000000  0.5146300000000 1.0
C      1  0.4666060000000  0.5148060000000  0.5152270000000 1.0
C      1  0.4631680000000  0.4856780000000  0.4846220000000 1.0
C      1  0.5333900000000  0.5171230000000  0.5151470000000 1.0
C      1  0.5309290000000  0.4869640000000  0.4853900000000 1.0
C      1  0.4861100000000  0.4675520000000  0.5146270000000 1.0
C      1  0.4856770000000  0.5250100000000  0.4646070000000 1.0
C      1  0.5078060000000  0.4792040000000  0.5301040000000 1.0
C      1  0.5147280000000  0.5268940000000  0.4643740000000 1.0
C      1  0.4861210000000  0.4675560000000  0.4853550000000 1.0
C      1  0.4856510000000  0.5250000000000  0.5353900000000 1.0
C      1  0.5078290000000  0.4792120000000  0.4698970000000 1.0
C      1  0.5147010000000  0.5268850000000  0.5356440000000 1.0
C      1  0.5145670000000  0.4557480000000  0.4504560000000 1.0
C      1  0.5298250000000  0.5472490000000  0.5518490000000 1.0
C      1  0.4828200000000  0.4505430000000  0.4458830000000 1.0
C      1  0.4702950000000  0.5453920000000  0.5516760000000 1.0
C      1  0.5145300000000  0.4557340000000  0.5495430000000 1.0
C      1  0.5298630000000  0.5472640000000  0.4481860000000 1.0
C      1  0.4827800000000  0.4505280000000  0.5540910000000 1.0
C      1  0.4703340000000  0.5454060000000  0.4483150000000 1.0
C      1  0.5329510000000  0.4714460000000  0.4355650000000 1.0
C      1  0.5474570000000  0.5351970000000  0.5683970000000 1.0
C      1  0.4655840000000  0.4684350000000  0.4364900000000 1.0
C      1  0.4520640000000  0.5338260000000  0.5681120000000 1.0
C      1  0.5329040000000  0.4714280000000  0.5644520000000 1.0
C      1  0.5475070000000  0.5352160000000  0.4316480000000 1.0
C      1  0.4655380000000  0.4684180000000  0.5634760000000 1.0
C      1  0.4521140000000  0.5338450000000  0.4318620000000 1.0
C      1  0.5580980000000  0.5491120000000  0.5142000000000 1.0
C      1  0.5498390000000  0.4516130000000  0.4855210000000 1.0
C      1  0.4420150000000  0.5484840000000  0.5141850000000 1.0
C      1  0.4442760000000  0.4498340000000  0.4856960000000 1.0
C      1  0.5581080000000  0.5491160000000  0.4858570000000 1.0
C      1  0.5498280000000  0.4516090000000  0.5145030000000 1.0
C      1  0.4420260000000  0.5484880000000  0.4857860000000 1.0
C      1  0.4442660000000  0.4498300000000  0.5142500000000 1.0
C      1  0.5287930000000  0.4386720000000  0.4712080000000 1.0
C      1  0.5376310000000  0.5632790000000  0.5288540000000 1.0
C      1  0.4720300000000  0.4419490000000  0.4736780000000 1.0
C      1  0.4629020000000  0.5619840000000  0.5289140000000 1.0
C      1  0.5287720000000  0.4386640000000  0.5287970000000 1.0
C      1  0.5376520000000  0.5632870000000  0.4711910000000 1.0
C      1  0.4720110000000  0.4419420000000  0.5262860000000 1.0
C      1  0.4629230000000  0.5619920000000  0.4710760000000 1.0
C      1  0.5751900000000  0.4983020000000  0.4865440000000 1.0
C      1  0.5751800000000  0.4982980000000  0.5135110000000 1.0
C      1  0.4220440000000  0.4987740000000  0.4864020000000 1.0
C      1  0.4220340000000  0.4987700000000  0.5135410000000 1.0
C      1  0.5011420000000  0.5036100000000  0.5452870000000 1.0
C      1  0.5011760000000  0.5036230000000  0.4547150000000 1.0
END
