TITL C-20173-7598-7 0.057715328487024 125000 -269.906910475801 0 0 41 (C1) n - 1
REM
REM in /rds/project/t2_vol4/rds-t2-cs072/BORA/CARBON/from-Arr/AIRSS/Generating-Clusters/GAP-ML-2020/Higher-Symm/SD-CG/HFTN-CG
REM
REM
REM
REM
REM
REM ./C.cell (b20cbc046b6831c77cfcea5457e17084)
REM AIRSS Version 0.9.1 bugfix July 2018 build 013d7b7c2542+ Fri, 06 Jul 2018 19:26:36 +0100
REM compiler GCC version 9.3.0
REM options -cpp -mtune=generic -march=x86-64 -g -O0
REM seed -1319094156 800625269 -168795539 -913869615 1924158121 -30700801 183739391 1197461195 2096205891 -1859557322 -587026406 851948523 -1756971978 -1164729206 294107500 1766796787 777075041 171880969 1797417813 1519959139 514979541 -1561254172 916191131 1716536903 705571328 -84130951 215300612 426305116 -86300605 264752056 -424461577 -703776098 -536572668
REM
CELL 1.54180   50.00000   50.00000   50.00000   90.00000   90.00000   90.00000
LATT -1
SFAC C  
C      1  0.5128700000000  0.5073340000000  0.4523170000000 1.0
C      1  0.5203860000000  0.4511980000000  0.5378210000000 1.0
C      1  0.4683200000000  0.5304030000000  0.5006720000000 1.0
C      1  0.4720820000000  0.4829730000000  0.4501840000000 1.0
C      1  0.5096110000000  0.4946330000000  0.5490160000000 1.0
C      1  0.4674780000000  0.5015780000000  0.5370830000000 1.0
C      1  0.4994700000000  0.5400260000000  0.5399210000000 1.0
C      1  0.5118880000000  0.5397290000000  0.4898120000000 1.0
C      1  0.5164780000000  0.4622340000000  0.4625170000000 1.0
C      1  0.5377440000000  0.4777210000000  0.5123620000000 1.0
C      1  0.4448610000000  0.4896950000000  0.4954680000000 1.0
C      1  0.5479220000000  0.5268710000000  0.4807760000000 1.0
C      1  0.4983240000000  0.5275480000000  0.4657600000000 1.0
C      1  0.4519030000000  0.5120050000000  0.5145860000000 1.0
C      1  0.5433910000000  0.4538430000000  0.5261520000000 1.0
C      1  0.4990910000000  0.4817260000000  0.4486080000000 1.0
C      1  0.4898090000000  0.5147760000000  0.5502150000000 1.0
C      1  0.4974870000000  0.4677080000000  0.5429190000000 1.0
C      1  0.5302510000000  0.5023800000000  0.5280760000000 1.0
C      1  0.5374720000000  0.5030240000000  0.4691550000000 1.0
C      1  0.4554640000000  0.4979300000000  0.4671840000000 1.0
C      1  0.4928310000000  0.5401580000000  0.5122930000000 1.0
C      1  0.4553340000000  0.4673910000000  0.5094350000000 1.0
C      1  0.5388740000000  0.5479710000000  0.4948060000000 1.0
C      1  0.5391400000000  0.4537570000000  0.4507970000000 1.0
C      1  0.4565310000000  0.5447480000000  0.4776570000000 1.0
C      1  0.5586860000000  0.4874650000000  0.4588870000000 1.0
C      1  0.4719260000000  0.4587360000000  0.5567110000000 1.0
C      1  0.5646680000000  0.4649290000000  0.4474280000000 1.0
C      1  0.4473270000000  0.4591630000000  0.5352560000000 1.0
C      1  0.5433650000000  0.5482700000000  0.5226350000000 1.0
C      1  0.4489400000000  0.5264550000000  0.4580390000000 1.0
C      1  0.5454280000000  0.5255530000000  0.5387070000000 1.0
C      1  0.4540260000000  0.4791320000000  0.5537440000000 1.0
C      1  0.5265680000000  0.5464630000000  0.5439250000000 1.0
C      1  0.4739690000000  0.5416380000000  0.4548020000000 1.0
C      1  0.4831290000000  0.4791070000000  0.5178640000000 1.0
C      1  0.5216890000000  0.4807350000000  0.4876110000000 1.0
C      1  0.4807340000000  0.5086540000000  0.4811470000000 1.0
C      1  0.5116700000000  0.5151090000000  0.5094850000000 1.0
C      1  0.4976500000000  0.4924790000000  0.4975280000000 1.0
END
