TITL C-205042-2299-2 -39.861291220083 125000 -1330.44783635051 0 0 186 (Cs) n - 1
REM
REM in /rds/project/t2_vol4/rds-t2-cs072/BORA/CARBON/from-Arr/AIRSS/Generating-Clusters/GAP-ML-2020/Higher-Symm/SD-CG/HFTN-CG
REM
REM
REM
REM
REM
REM ./C.cell (b20cbc046b6831c77cfcea5457e17084)
REM AIRSS Version 0.9.1 bugfix July 2018 build 013d7b7c2542+ Fri, 06 Jul 2018 19:26:36 +0100
REM compiler GCC version 9.3.0
REM options -cpp -mtune=generic -march=x86-64 -g -O0
REM seed 883882152 1361026622 1905424680 317610301 -1484675363 -142392617 -1889374036 -1940884830 35113240 -562550953 -1791207509 178713655 1262243948 -559675902 -2142500676 731218592 1283987081 -257101087 -1826292053 2131045125 1552992406 -1228953178 771359079 1543791494 -1418925724 1631096809 -261613958 -84284342 1624476007 1684557397 -344869282 1826949687 213699312
REM
CELL 1.54180   50.00000   50.00000   50.00000   90.00000   90.00000   90.00000
LATT -1
SFAC C  
C      1  0.5105250000000  0.5138600000000  0.5586970000000 1.0
C      1  0.5105240000000  0.4861410000000  0.5586980000000 1.0
C      1  0.5474670000000  0.5142750000000  0.3888010000000 1.0
C      1  0.5474670000000  0.4857210000000  0.3888010000000 1.0
C      1  0.5916950000000  0.4860420000000  0.4184330000000 1.0
C      1  0.5916950000000  0.5139530000000  0.4184330000000 1.0
C      1  0.5586650000000  0.5153770000000  0.5648220000000 1.0
C      1  0.5586640000000  0.4846220000000  0.5648230000000 1.0
C      1  0.5974780000000  0.5147170000000  0.5360450000000 1.0
C      1  0.5974780000000  0.4852800000000  0.5360450000000 1.0
C      1  0.4864360000000  0.5285590000000  0.6096020000000 1.0
C      1  0.4864350000000  0.4714440000000  0.6096020000000 1.0
C      1  0.5333080000000  0.4702430000000  0.6065510000000 1.0
C      1  0.5333090000000  0.5297580000000  0.6065510000000 1.0
C      1  0.5599500000000  0.4245440000000  0.4882660000000 1.0
C      1  0.5599520000000  0.5754540000000  0.4882650000000 1.0
C      1  0.4974350000000  0.5704290000000  0.4062480000000 1.0
C      1  0.4974330000000  0.4295690000000  0.4062490000000 1.0
C      1  0.4897930000000  0.5829930000000  0.4624370000000 1.0
C      1  0.4897900000000  0.4170070000000  0.4624390000000 1.0
C      1  0.4813920000000  0.4443920000000  0.6022190000000 1.0
C      1  0.4813940000000  0.5556110000000  0.6022180000000 1.0
C      1  0.5830860000000  0.5288270000000  0.5564620000000 1.0
C      1  0.5830850000000  0.4711710000000  0.5564630000000 1.0
C      1  0.5187740000000  0.4212690000000  0.4609280000000 1.0
C      1  0.5187770000000  0.5787300000000  0.4609270000000 1.0
C      1  0.4092210000000  0.5544480000000  0.4712640000000 1.0
C      1  0.4092190000000  0.4455550000000  0.4712650000000 1.0
C      1  0.4057880000000  0.4835820000000  0.5106620000000 1.0
C      1  0.4057880000000  0.5164220000000  0.5106620000000 1.0
C      1  0.5521080000000  0.5157420000000  0.5011510000000 1.0
C      1  0.5521070000000  0.4842560000000  0.5011510000000 1.0
C      1  0.5103970000000  0.5148370000000  0.6158570000000 1.0
C      1  0.5103960000000  0.4851650000000  0.6158570000000 1.0
C      1  0.5473050000000  0.4150820000000  0.5568030000000 1.0
C      1  0.5473080000000  0.5849170000000  0.5568020000000 1.0
C      1  0.5123630000000  0.3926610000000  0.5270930000000 1.0
C      1  0.5123670000000  0.6073390000000  0.5270910000000 1.0
C      1  0.5668110000000  0.5259420000000  0.4083690000000 1.0
C      1  0.5668100000000  0.4740540000000  0.4083700000000 1.0
C      1  0.5534640000000  0.5141500000000  0.5951140000000 1.0
C      1  0.5534640000000  0.4858500000000  0.5951140000000 1.0
C      1  0.4687990000000  0.3953040000000  0.5105280000000 1.0
C      1  0.4688030000000  0.6046970000000  0.5105260000000 1.0
C      1  0.5035480000000  0.4636180000000  0.4395410000000 1.0
C      1  0.5035500000000  0.5363810000000  0.4395400000000 1.0
C      1  0.4472620000000  0.4313780000000  0.4777830000000 1.0
C      1  0.4472640000000  0.5686230000000  0.4777810000000 1.0
C      1  0.4850200000000  0.3873800000000  0.5325850000000 1.0
C      1  0.4850250000000  0.6126210000000  0.5325830000000 1.0
C      1  0.5333280000000  0.5262260000000  0.5483690000000 1.0
C      1  0.5333270000000  0.4737730000000  0.5483690000000 1.0
C      1  0.4594410000000  0.4312100000000  0.4201520000000 1.0
C      1  0.4594430000000  0.5687900000000  0.4201510000000 1.0
C      1  0.4005200000000  0.5288270000000  0.4635500000000 1.0
C      1  0.4005190000000  0.4711760000000  0.4635510000000 1.0
C      1  0.5060450000000  0.5169850000000  0.4805580000000 1.0
C      1  0.5060450000000  0.4830140000000  0.4805580000000 1.0
C      1  0.4261410000000  0.5538300000000  0.5482840000000 1.0
C      1  0.4261390000000  0.4461740000000  0.5482850000000 1.0
C      1  0.5216150000000  0.4070820000000  0.5502480000000 1.0
C      1  0.5216180000000  0.5929190000000  0.5502460000000 1.0
C      1  0.5694390000000  0.5517390000000  0.4712360000000 1.0
C      1  0.5694370000000  0.4482570000000  0.4712370000000 1.0
C      1  0.5471810000000  0.5152720000000  0.4357380000000 1.0
C      1  0.5471800000000  0.4847250000000  0.4357380000000 1.0
C      1  0.4835180000000  0.5812350000000  0.4307870000000 1.0
C      1  0.4835150000000  0.4187640000000  0.4307880000000 1.0
C      1  0.4448200000000  0.5282840000000  0.5900020000000 1.0
C      1  0.4448190000000  0.4717200000000  0.5900030000000 1.0
C      1  0.5212850000000  0.4428480000000  0.3995740000000 1.0
C      1  0.5212870000000  0.5571490000000  0.3995730000000 1.0
C      1  0.5994840000000  0.4848040000000  0.4683840000000 1.0
C      1  0.5994840000000  0.5151920000000  0.4683840000000 1.0
C      1  0.5524590000000  0.4347170000000  0.5772440000000 1.0
C      1  0.5524610000000  0.5652820000000  0.5772430000000 1.0
C      1  0.3977120000000  0.5142520000000  0.5390310000000 1.0
C      1  0.3977110000000  0.4857530000000  0.5390310000000 1.0
C      1  0.5794290000000  0.5287440000000  0.4898380000000 1.0
C      1  0.5794280000000  0.4712530000000  0.4898390000000 1.0
C      1  0.4759540000000  0.4412650000000  0.4761380000000 1.0
C      1  0.4759560000000  0.5587360000000  0.4761370000000 1.0
C      1  0.5144580000000  0.6026410000000  0.4984960000000 1.0
C      1  0.5144550000000  0.3973590000000  0.4984980000000 1.0
C      1  0.5462180000000  0.5360480000000  0.4579590000000 1.0
C      1  0.5462160000000  0.4639500000000  0.4579600000000 1.0
C      1  0.5340110000000  0.5883890000000  0.4822570000000 1.0
C      1  0.5340080000000  0.4116090000000  0.4822590000000 1.0
C      1  0.5048730000000  0.5681990000000  0.5915110000000 1.0
C      1  0.5048700000000  0.4318030000000  0.5915120000000 1.0
C      1  0.4245650000000  0.5722480000000  0.5224140000000 1.0
C      1  0.4245620000000  0.4277560000000  0.5224150000000 1.0
C      1  0.4793170000000  0.4851040000000  0.5115490000000 1.0
C      1  0.4793180000000  0.5148970000000  0.5115490000000 1.0
C      1  0.5179970000000  0.5154580000000  0.4250290000000 1.0
C      1  0.5179970000000  0.4845390000000  0.4250300000000 1.0
C      1  0.4607580000000  0.5153340000000  0.4600040000000 1.0
C      1  0.4607580000000  0.4846670000000  0.4600040000000 1.0
C      1  0.4145480000000  0.5140000000000  0.4432670000000 1.0
C      1  0.4145480000000  0.4860020000000  0.4432670000000 1.0
C      1  0.4950740000000  0.5141400000000  0.3841290000000 1.0
C      1  0.4950740000000  0.4858580000000  0.3841290000000 1.0
C      1  0.4292930000000  0.4331860000000  0.4556810000000 1.0
C      1  0.4292960000000  0.5668160000000  0.4556800000000 1.0
C      1  0.4987520000000  0.4197820000000  0.5647720000000 1.0
C      1  0.4987550000000  0.5802190000000  0.5647700000000 1.0
C      1  0.4735130000000  0.4440040000000  0.3985710000000 1.0
C      1  0.4735150000000  0.5559950000000  0.3985700000000 1.0
C      1  0.4862910000000  0.4692000000000  0.4614010000000 1.0
C      1  0.4862920000000  0.5307990000000  0.4614000000000 1.0
C      1  0.5402680000000  0.5624030000000  0.4192730000000 1.0
C      1  0.5402660000000  0.4375940000000  0.4192740000000 1.0
C      1  0.5759580000000  0.5559900000000  0.5607050000000 1.0
C      1  0.5759550000000  0.4440080000000  0.5607060000000 1.0
C      1  0.5721330000000  0.5769420000000  0.5127720000000 1.0
C      1  0.5721300000000  0.4230560000000  0.5127730000000 1.0
C      1  0.4849240000000  0.5553060000000  0.5513470000000 1.0
C      1  0.4849220000000  0.4446950000000  0.5513480000000 1.0
C      1  0.4101090000000  0.5303680000000  0.5582310000000 1.0
C      1  0.4101070000000  0.4696360000000  0.5582310000000 1.0
C      1  0.4493600000000  0.4131410000000  0.5260930000000 1.0
C      1  0.4493630000000  0.5868620000000  0.5260910000000 1.0
C      1  0.6018910000000  0.5263860000000  0.5103080000000 1.0
C      1  0.6018900000000  0.4736100000000  0.5103090000000 1.0
C      1  0.3907200000000  0.4859290000000  0.4853900000000 1.0
C      1  0.3907210000000  0.5140750000000  0.4853900000000 1.0
C      1  0.5980660000000  0.4711150000000  0.4421740000000 1.0
C      1  0.5980670000000  0.5288810000000  0.4421730000000 1.0
C      1  0.4704450000000  0.4853140000000  0.5890510000000 1.0
C      1  0.4704460000000  0.5146890000000  0.5890510000000 1.0
C      1  0.4473000000000  0.4629230000000  0.5316730000000 1.0
C      1  0.4473010000000  0.5370790000000  0.5316720000000 1.0
C      1  0.4323510000000  0.4693980000000  0.5063070000000 1.0
C      1  0.4323520000000  0.5306040000000  0.5063060000000 1.0
C      1  0.4256870000000  0.5581810000000  0.4963910000000 1.0
C      1  0.4256840000000  0.4418210000000  0.4963920000000 1.0
C      1  0.4877110000000  0.6016920000000  0.4877660000000 1.0
C      1  0.4877070000000  0.3983080000000  0.4877680000000 1.0
C      1  0.4659540000000  0.4848300000000  0.5392470000000 1.0
C      1  0.4659550000000  0.5151720000000  0.5392460000000 1.0
C      1  0.4514640000000  0.5920440000000  0.5550720000000 1.0
C      1  0.4514610000000  0.4079590000000  0.5550740000000 1.0
C      1  0.5664220000000  0.5535390000000  0.4187090000000 1.0
C      1  0.5664200000000  0.4464570000000  0.4187100000000 1.0
C      1  0.4523960000000  0.5139730000000  0.4091270000000 1.0
C      1  0.4523960000000  0.4860270000000  0.4091270000000 1.0
C      1  0.6195220000000  0.5140260000000  0.4916960000000 1.0
C      1  0.6195210000000  0.4859690000000  0.4916960000000 1.0
C      1  0.4403950000000  0.4744250000000  0.4337200000000 1.0
C      1  0.4403960000000  0.5255760000000  0.4337200000000 1.0
C      1  0.4862470000000  0.4451390000000  0.5043200000000 1.0
C      1  0.4862490000000  0.5548610000000  0.5043190000000 1.0
C      1  0.4717530000000  0.4716190000000  0.3933930000000 1.0
C      1  0.4717540000000  0.5283800000000  0.3933930000000 1.0
C      1  0.4532820000000  0.5557920000000  0.5901960000000 1.0
C      1  0.4532800000000  0.4442120000000  0.5901980000000 1.0
C      1  0.5311650000000  0.4438990000000  0.5947770000000 1.0
C      1  0.5311680000000  0.5561010000000  0.5947760000000 1.0
C      1  0.4776030000000  0.3987270000000  0.5578480000000 1.0
C      1  0.4776070000000  0.6012750000000  0.5578460000000 1.0
C      1  0.5270760000000  0.4440820000000  0.4456030000000 1.0
C      1  0.5270780000000  0.5559160000000  0.4456020000000 1.0
C      1  0.5697330000000  0.4238320000000  0.5396430000000 1.0
C      1  0.5697360000000  0.5761660000000  0.5396420000000 1.0
C      1  0.4539800000000  0.5152640000000  0.4910150000000 1.0
C      1  0.4539790000000  0.4847380000000  0.4910150000000 1.0
C      1  0.5206440000000  0.4732000000000  0.3934990000000 1.0
C      1  0.5206450000000  0.5267970000000  0.3934980000000 1.0
C      1  0.5039460000000  0.5318240000000  0.5061580000000 1.0
C      1  0.5039450000000  0.4681760000000  0.5061590000000 1.0
C      1  0.4390030000000  0.5552580000000  0.4324620000000 1.0
C      1  0.4390010000000  0.4447430000000  0.4324630000000 1.0
C      1  0.4846930000000  0.4735380000000  0.5596970000000 1.0
C      1  0.4846940000000  0.5264630000000  0.5596970000000 1.0
C      1  0.5355700000000  0.4843060000000  0.4750240000000 1.0
C      1  0.5355700000000  0.5156920000000  0.4750240000000 1.0
C      1  0.4687950000000  0.5590240000000  0.5270720000000 1.0
C      1  0.4687930000000  0.4409770000000  0.5270730000000 1.0
C      1  0.5320260000000  0.5294440000000  0.5203230000000 1.0
C      1  0.5320250000000  0.4705550000000  0.5203240000000 1.0
C      1  0.5820240000000  0.4479570000000  0.4434630000000 1.0
C      1  0.5820260000000  0.5520390000000  0.4434620000000 1.0
C      1  0.4408670000000  0.4301770000000  0.5686760000000 1.0
C      1  0.4408700000000  0.5698270000000  0.5686750000000 1.0
C      1  0.4223850000000  0.5148480000000  0.5793420000000 1.0
C      1  0.4223840000000  0.4851560000000  0.5793430000000 1.0
END
