TITL C-207192-9097-10 -0.320308026684953 125000 -1022.18730226234 0 0 147 (C1) n - 1
REM
REM in /rds/project/t2_vol4/rds-t2-cs072/BORA/CARBON/from-Arr/AIRSS/Generating-Clusters/GAP-ML-2020/Higher-Symm/SD-CG/HFTN-CG
REM
REM
REM
REM
REM
REM ./C.cell (b20cbc046b6831c77cfcea5457e17084)
REM AIRSS Version 0.9.1 bugfix July 2018 build 013d7b7c2542+ Fri, 06 Jul 2018 19:26:36 +0100
REM compiler GCC version 9.3.0
REM options -cpp -mtune=generic -march=x86-64 -g -O0
REM seed -69408549 -186259084 -1102837911 1628818856 625202732 1965275113 -846363083 1119328135 681870368 -242047776 -1001981384 1248718381 1500562607 1057128431 38515021 -288083652 -882188255 -243370381 -1088491597 1258166790 1815866439 -2073681690 -1054213045 316427801 -755800369 -633489115 -679387068 -343131873 827644203 116776868 762926854 1249929500 -2103303563
REM
CELL 1.54180   50.00000   50.00000   50.00000   90.00000   90.00000   90.00000
LATT -1
SFAC C  
C      1  0.5672630000000  0.5786310000000  0.5199900000000 1.0
C      1  0.4215050000000  0.5670050000000  0.4779150000000 1.0
C      1  0.4322730000000  0.4214360000000  0.5222050000000 1.0
C      1  0.5787170000000  0.4319820000000  0.4800770000000 1.0
C      1  0.4599290000000  0.4552130000000  0.5346780000000 1.0
C      1  0.5449540000000  0.4593870000000  0.4670130000000 1.0
C      1  0.5391970000000  0.5455540000000  0.5325890000000 1.0
C      1  0.4545780000000  0.5386640000000  0.4659120000000 1.0
C      1  0.5161820000000  0.5256850000000  0.5349930000000 1.0
C      1  0.4744700000000  0.5155460000000  0.4642660000000 1.0
C      1  0.4827070000000  0.4755210000000  0.5365840000000 1.0
C      1  0.5246690000000  0.4820540000000  0.4643280000000 1.0
C      1  0.3938050000000  0.4810990000000  0.5181670000000 1.0
C      1  0.5187780000000  0.3936560000000  0.4844500000000 1.0
C      1  0.6054260000000  0.5191320000000  0.5172910000000 1.0
C      1  0.4807140000000  0.6052490000000  0.4802710000000 1.0
C      1  0.4137050000000  0.4655880000000  0.4566020000000 1.0
C      1  0.5341350000000  0.4141360000000  0.5449450000000 1.0
C      1  0.5862610000000  0.5334140000000  0.4558810000000 1.0
C      1  0.4663060000000  0.5866730000000  0.5428030000000 1.0
C      1  0.4643250000000  0.5700520000000  0.5668760000000 1.0
C      1  0.4306350000000  0.4630200000000  0.4328230000000 1.0
C      1  0.5369820000000  0.4309630000000  0.5685340000000 1.0
C      1  0.5697610000000  0.5356730000000  0.4319630000000 1.0
C      1  0.5199960000000  0.4469450000000  0.5869550000000 1.0
C      1  0.5540790000000  0.5182840000000  0.4136480000000 1.0
C      1  0.4821440000000  0.5544600000000  0.5844500000000 1.0
C      1  0.4465040000000  0.4804550000000  0.4151160000000 1.0
C      1  0.5752000000000  0.4900000000000  0.5463570000000 1.0
C      1  0.5102530000000  0.5744270000000  0.4521060000000 1.0
C      1  0.4236670000000  0.5108900000000  0.5465160000000 1.0
C      1  0.4893440000000  0.4229610000000  0.4552540000000 1.0
C      1  0.5213110000000  0.5611380000000  0.4803240000000 1.0
C      1  0.4379410000000  0.5214910000000  0.5181940000000 1.0
C      1  0.4785710000000  0.4376660000000  0.4830780000000 1.0
C      1  0.5614540000000  0.4787520000000  0.5185750000000 1.0
C      1  0.6071240000000  0.4813510000000  0.5078730000000 1.0
C      1  0.5184170000000  0.6069420000000  0.4900710000000 1.0
C      1  0.3922840000000  0.5188180000000  0.5077340000000 1.0
C      1  0.4809780000000  0.3921630000000  0.4945370000000 1.0
C      1  0.5197860000000  0.5221550000000  0.5883690000000 1.0
C      1  0.4788870000000  0.5180310000000  0.4109380000000 1.0
C      1  0.4801710000000  0.4822500000000  0.5889870000000 1.0
C      1  0.5187880000000  0.4784300000000  0.4118240000000 1.0
C      1  0.4500140000000  0.5095440000000  0.4167970000000 1.0
C      1  0.4910340000000  0.4540710000000  0.5851400000000 1.0
C      1  0.5469030000000  0.4893710000000  0.4159140000000 1.0
C      1  0.5111830000000  0.5509300000000  0.5822230000000 1.0
C      1  0.5424400000000  0.4526910000000  0.5167830000000 1.0
C      1  0.5471870000000  0.5419840000000  0.4831950000000 1.0
C      1  0.4575840000000  0.5475060000000  0.5150310000000 1.0
C      1  0.4523590000000  0.4571530000000  0.4851610000000 1.0
C      1  0.4610600000000  0.5858620000000  0.4819370000000 1.0
C      1  0.4130630000000  0.4612440000000  0.5168100000000 1.0
C      1  0.5387110000000  0.4128480000000  0.4855220000000 1.0
C      1  0.5861080000000  0.5388720000000  0.5158510000000 1.0
C      1  0.4825730000000  0.4476280000000  0.4155440000000 1.0
C      1  0.5506490000000  0.4821880000000  0.5862570000000 1.0
C      1  0.5188290000000  0.5489580000000  0.4130830000000 1.0
C      1  0.4493030000000  0.5184060000000  0.5853360000000 1.0
C      1  0.4135920000000  0.5154900000000  0.4540390000000 1.0
C      1  0.4841820000000  0.4161640000000  0.5482790000000 1.0
C      1  0.5842760000000  0.4834260000000  0.4535020000000 1.0
C      1  0.5161970000000  0.5868280000000  0.5443200000000 1.0
C      1  0.4625630000000  0.4249590000000  0.5291470000000 1.0
C      1  0.5751480000000  0.4621780000000  0.4728650000000 1.0
C      1  0.5371910000000  0.5760090000000  0.5257690000000 1.0
C      1  0.4240470000000  0.5368560000000  0.4724130000000 1.0
C      1  0.5817790000000  0.5594790000000  0.5345210000000 1.0
C      1  0.4407050000000  0.5811980000000  0.4630920000000 1.0
C      1  0.4171700000000  0.4406920000000  0.5356470000000 1.0
C      1  0.5595100000000  0.4166070000000  0.4668700000000 1.0
C      1  0.4204580000000  0.5642550000000  0.5062460000000 1.0
C      1  0.4359250000000  0.4200020000000  0.4941990000000 1.0
C      1  0.5799750000000  0.4360160000000  0.5080260000000 1.0
C      1  0.5641720000000  0.5795070000000  0.4917340000000 1.0
C      1  0.5453790000000  0.5100830000000  0.5813440000000 1.0
C      1  0.4908210000000  0.5437920000000  0.4175980000000 1.0
C      1  0.4528380000000  0.4904540000000  0.5814150000000 1.0
C      1  0.5104320000000  0.4512750000000  0.4198710000000 1.0
C      1  0.6023220000000  0.4954990000000  0.5331710000000 1.0
C      1  0.5045330000000  0.6017120000000  0.4647400000000 1.0
C      1  0.3969620000000  0.5052520000000  0.5333900000000 1.0
C      1  0.4947910000000  0.3964140000000  0.4689140000000 1.0
C      1  0.4654760000000  0.4158540000000  0.4992320000000 1.0
C      1  0.5836680000000  0.4656230000000  0.5029010000000 1.0
C      1  0.5343660000000  0.5837020000000  0.4955910000000 1.0
C      1  0.4157720000000  0.5345300000000  0.5024710000000 1.0
C      1  0.4285650000000  0.5165270000000  0.4313590000000 1.0
C      1  0.4842540000000  0.4324100000000  0.5703960000000 1.0
C      1  0.5683500000000  0.4829960000000  0.4311420000000 1.0
C      1  0.5177890000000  0.5721640000000  0.5671710000000 1.0
C      1  0.4774280000000  0.4990010000000  0.5210090000000 1.0
C      1  0.5008920000000  0.4769990000000  0.4795390000000 1.0
C      1  0.5217930000000  0.5012670000000  0.5208570000000 1.0
C      1  0.4986230000000  0.5213630000000  0.4787380000000 1.0
C      1  0.5481080000000  0.5032280000000  0.5071220000000 1.0
C      1  0.4966470000000  0.5480500000000  0.4916420000000 1.0
C      1  0.4510700000000  0.4966640000000  0.5074410000000 1.0
C      1  0.5032220000000  0.4510430000000  0.4939540000000 1.0
C      1  0.5586620000000  0.4317230000000  0.5317700000000 1.0
C      1  0.5686150000000  0.5579030000000  0.4682940000000 1.0
C      1  0.4420880000000  0.5689310000000  0.5303790000000 1.0
C      1  0.4313760000000  0.4413570000000  0.4697460000000 1.0
C      1  0.3902070000000  0.4947380000000  0.4920530000000 1.0
C      1  0.5048510000000  0.3906020000000  0.5105230000000 1.0
C      1  0.6089890000000  0.5049060000000  0.4914380000000 1.0
C      1  0.4946360000000  0.6093360000000  0.5061800000000 1.0
C      1  0.5092730000000  0.4029110000000  0.5357580000000 1.0
C      1  0.5973220000000  0.5087170000000  0.4657730000000 1.0
C      1  0.4906930000000  0.5985170000000  0.5322620000000 1.0
C      1  0.4017090000000  0.4901760000000  0.4664050000000 1.0
C      1  0.5341350000000  0.4662050000000  0.6004850000000 1.0
C      1  0.5350690000000  0.5321600000000  0.3995090000000 1.0
C      1  0.4737110000000  0.5289940000000  0.5934410000000 1.0
C      1  0.4721190000000  0.4718540000000  0.4067310000000 1.0
C      1  0.5569450000000  0.5602250000000  0.4410520000000 1.0
C      1  0.4398390000000  0.5572290000000  0.5577960000000 1.0
C      1  0.4432940000000  0.4387150000000  0.4425250000000 1.0
C      1  0.5613650000000  0.4436040000000  0.5588080000000 1.0
C      1  0.4694990000000  0.4315220000000  0.4349130000000 1.0
C      1  0.5674770000000  0.4700800000000  0.5664790000000 1.0
C      1  0.5306190000000  0.5662330000000  0.4326720000000 1.0
C      1  0.4327340000000  0.5311810000000  0.5661460000000 1.0
C      1  0.4840080000000  0.5630860000000  0.4375790000000 1.0
C      1  0.4334890000000  0.4840810000000  0.5614170000000 1.0
C      1  0.5164310000000  0.4324050000000  0.4404310000000 1.0
C      1  0.5642080000000  0.5164860000000  0.5607890000000 1.0
C      1  0.4535200000000  0.4869170000000  0.4795370000000 1.0
C      1  0.5127650000000  0.4542140000000  0.5220230000000 1.0
C      1  0.5456490000000  0.5122220000000  0.4787640000000 1.0
C      1  0.4874470000000  0.5463130000000  0.5198080000000 1.0
C      1  0.5325500000000  0.4425170000000  0.4896940000000 1.0
C      1  0.5566420000000  0.5326100000000  0.5108870000000 1.0
C      1  0.4673400000000  0.5565460000000  0.4873540000000 1.0
C      1  0.4426030000000  0.4674180000000  0.5122320000000 1.0
C      1  0.4875840000000  0.5239470000000  0.5358110000000 1.0
C      1  0.4762170000000  0.4869280000000  0.4640180000000 1.0
C      1  0.5114710000000  0.4769390000000  0.5372200000000 1.0
C      1  0.5232340000000  0.5107850000000  0.4631140000000 1.0
C      1  0.4354240000000  0.4577630000000  0.5520070000000 1.0
C      1  0.5425950000000  0.4345550000000  0.4501180000000 1.0
C      1  0.5630530000000  0.5428100000000  0.5508130000000 1.0
C      1  0.4575230000000  0.5621440000000  0.4472440000000 1.0
C      1  0.4940820000000  0.5083180000000  0.5939670000000 1.0
C      1  0.4928020000000  0.4922200000000  0.4061160000000 1.0
C      1  0.4997340000000  0.4996170000000  0.5000340000000 1.0
END
