TITL C-205063-5946-10 1.55486560876654 125000 -623.803813476872 0 0 87 (C1) n - 1
REM
REM in /rds/project/t2_vol4/rds-t2-cs072/BORA/CARBON/from-Arr/AIRSS/Generating-Clusters/GAP-ML-2020/Higher-Symm/SD-CG/HFTN-CG
REM
REM
REM
REM
REM
REM ./C.cell (b20cbc046b6831c77cfcea5457e17084)
REM AIRSS Version 0.9.1 bugfix July 2018 build 013d7b7c2542+ Fri, 06 Jul 2018 19:26:36 +0100
REM compiler GCC version 9.3.0
REM options -cpp -mtune=generic -march=x86-64 -g -O0
REM seed -463105061 -1575081188 138560459 -636539499 1908500077 -2093464748 -1010880392 1241850450 1152103275 1159665303 103155483 -1722958482 -1503241006 -1952962537 1614926529 1867200167 1982535018 133116363 -362939671 -1114507799 1182016368 -801771021 184353602 1358727460 1174994353 -2029084192 -1961579918 -278707701 -878384115 -1913157125 -1582947970 357078946 1425724272
REM
CELL 1.54180   50.00000   50.00000   50.00000   90.00000   90.00000   90.00000
LATT -1
SFAC C  
C      1  0.4620690000000  0.4541540000000  0.4729090000000 1.0
C      1  0.4348120000000  0.5341020000000  0.4674860000000 1.0
C      1  0.5046970000000  0.5547360000000  0.4708450000000 1.0
C      1  0.5563920000000  0.5114520000000  0.4725530000000 1.0
C      1  0.5304020000000  0.4493610000000  0.4739390000000 1.0
C      1  0.4455690000000  0.4483840000000  0.5299020000000 1.0
C      1  0.4459140000000  0.5216620000000  0.5247820000000 1.0
C      1  0.5128890000000  0.5740010000000  0.5265390000000 1.0
C      1  0.5752020000000  0.5100000000000  0.5282770000000 1.0
C      1  0.5327800000000  0.4315320000000  0.5303010000000 1.0
C      1  0.4901700000000  0.4789350000000  0.4152710000000 1.0
C      1  0.4755000000000  0.5032310000000  0.4142900000000 1.0
C      1  0.4914410000000  0.5263040000000  0.4074140000000 1.0
C      1  0.5273740000000  0.5084620000000  0.4081710000000 1.0
C      1  0.5183460000000  0.4815160000000  0.4133950000000 1.0
C      1  0.4887880000000  0.4779430000000  0.5815760000000 1.0
C      1  0.4723680000000  0.5007500000000  0.5878650000000 1.0
C      1  0.5000410000000  0.5289330000000  0.5840840000000 1.0
C      1  0.5225090000000  0.5116730000000  0.5789570000000 1.0
C      1  0.5164590000000  0.4838470000000  0.5792600000000 1.0
C      1  0.5166300000000  0.5612400000000  0.5521680000000 1.0
C      1  0.5626240000000  0.5038870000000  0.5534440000000 1.0
C      1  0.5226950000000  0.4419150000000  0.5551750000000 1.0
C      1  0.4511270000000  0.4595500000000  0.5555870000000 1.0
C      1  0.4520490000000  0.5292200000000  0.5530940000000 1.0
C      1  0.5133550000000  0.5537450000000  0.4423300000000 1.0
C      1  0.5588380000000  0.5023690000000  0.4445770000000 1.0
C      1  0.5225250000000  0.4450960000000  0.4456380000000 1.0
C      1  0.4566220000000  0.4613040000000  0.4445950000000 1.0
C      1  0.4468010000000  0.5326300000000  0.4414930000000 1.0
C      1  0.4318320000000  0.4934080000000  0.5286520000000 1.0
C      1  0.4662780000000  0.5640250000000  0.5278190000000 1.0
C      1  0.5544230000000  0.5527660000000  0.5270790000000 1.0
C      1  0.5670740000000  0.4643350000000  0.5301230000000 1.0
C      1  0.4870160000000  0.4252080000000  0.5306540000000 1.0
C      1  0.4289440000000  0.4872320000000  0.4688420000000 1.0
C      1  0.4732370000000  0.5610800000000  0.4680560000000 1.0
C      1  0.5503690000000  0.5429310000000  0.4681870000000 1.0
C      1  0.5584990000000  0.4637340000000  0.4705700000000 1.0
C      1  0.4851690000000  0.4332910000000  0.4706820000000 1.0
C      1  0.5396320000000  0.5432310000000  0.4415720000000 1.0
C      1  0.5565340000000  0.4742830000000  0.4440120000000 1.0
C      1  0.4954090000000  0.4389350000000  0.4443640000000 1.0
C      1  0.4410870000000  0.4845820000000  0.4429510000000 1.0
C      1  0.4679640000000  0.5516480000000  0.4415290000000 1.0
C      1  0.5419350000000  0.5479890000000  0.5524630000000 1.0
C      1  0.5574220000000  0.4760160000000  0.5545950000000 1.0
C      1  0.4946350000000  0.4376430000000  0.5556550000000 1.0
C      1  0.4397540000000  0.4856180000000  0.5549760000000 1.0
C      1  0.4690180000000  0.5517650000000  0.5536890000000 1.0
C      1  0.4791360000000  0.4565720000000  0.4288700000000 1.0
C      1  0.4517170000000  0.5071590000000  0.4291410000000 1.0
C      1  0.4911850000000  0.5479990000000  0.4259240000000 1.0
C      1  0.5459970000000  0.5196280000000  0.4267470000000 1.0
C      1  0.5345920000000  0.4641380000000  0.4287910000000 1.0
C      1  0.4769290000000  0.4560550000000  0.5681470000000 1.0
C      1  0.4510890000000  0.5066870000000  0.5698260000000 1.0
C      1  0.4946610000000  0.5508870000000  0.5663310000000 1.0
C      1  0.5447700000000  0.5223690000000  0.5653680000000 1.0
C      1  0.5341460000000  0.4652470000000  0.5670380000000 1.0
C      1  0.4749030000000  0.5102500000000  0.5123390000000 1.0
C      1  0.5012590000000  0.5235180000000  0.5124830000000 1.0
C      1  0.5227260000000  0.5051770000000  0.5146750000000 1.0
C      1  0.5115760000000  0.4793210000000  0.5159340000000 1.0
C      1  0.4834000000000  0.4819650000000  0.5148290000000 1.0
C      1  0.4790800000000  0.5067460000000  0.4812610000000 1.0
C      1  0.5029910000000  0.5232540000000  0.4807660000000 1.0
C      1  0.5264000000000  0.5043080000000  0.4831870000000 1.0
C      1  0.5148120000000  0.4760410000000  0.4846280000000 1.0
C      1  0.4843780000000  0.4782780000000  0.4837610000000 1.0
C      1  0.5702840000000  0.4854420000000  0.4862340000000 1.0
C      1  0.5091910000000  0.4287010000000  0.4871500000000 1.0
C      1  0.4361980000000  0.4650810000000  0.4858400000000 1.0
C      1  0.4496140000000  0.5529160000000  0.4836720000000 1.0
C      1  0.5329820000000  0.5607590000000  0.4837330000000 1.0
C      1  0.5772030000000  0.4856760000000  0.5130310000000 1.0
C      1  0.5107740000000  0.4221770000000  0.5141690000000 1.0
C      1  0.4327450000000  0.4684010000000  0.5132790000000 1.0
C      1  0.4472870000000  0.5495750000000  0.5113790000000 1.0
C      1  0.5361380000000  0.5683370000000  0.5102710000000 1.0
C      1  0.5556390000000  0.4418360000000  0.5204130000000 1.0
C      1  0.5722020000000  0.5346610000000  0.5176340000000 1.0
C      1  0.4874810000000  0.5774790000000  0.5173470000000 1.0
C      1  0.4623810000000  0.4295800000000  0.5201040000000 1.0
C      1  0.4228390000000  0.5120700000000  0.4780460000000 1.0
C      1  0.5130330000000  0.5238710000000  0.3906920000000 1.0
C      1  0.4822260000000  0.5210230000000  0.6036800000000 1.0
END
