TITL C-205037-2245-2 138.810575074945 125000 -574.084456757728 0 0 82 (C1) n - 1
REM
REM in /rds/project/t2_vol4/rds-t2-cs072/BORA/CARBON/from-Arr/AIRSS/Generating-Clusters/GAP-ML-2020/Higher-Symm/SD-CG/HFTN-CG
REM
REM
REM
REM
REM
REM ./C.cell (b20cbc046b6831c77cfcea5457e17084)
REM AIRSS Version 0.9.1 bugfix July 2018 build 013d7b7c2542+ Fri, 06 Jul 2018 19:26:36 +0100
REM compiler GCC version 9.3.0
REM options -cpp -mtune=generic -march=x86-64 -g -O0
REM seed -2102542810 1933947863 1596581295 -26263262 -686773468 -1494589703 -67144687 512735812 -732850798 -1704315695 253283483 1187807532 1486788345 -523688291 384284267 1827080353 -1262892484 -1750888666 -1380659909 -1160670485 -630666318 -1161408671 -1518320839 2100409338 696143552 1043918090 -1767994403 -1898814720 457801573 518393084 305488530 1943414309 -979402909
REM
CELL 1.54180   50.00000   50.00000   50.00000   90.00000   90.00000   90.00000
LATT -1
SFAC C  
C      1  0.4139330000000  0.4620400000000  0.4810070000000 1.0
C      1  0.4691680000000  0.4818290000000  0.4315760000000 1.0
C      1  0.5373920000000  0.4898270000000  0.4282100000000 1.0
C      1  0.5810040000000  0.4757520000000  0.4795200000000 1.0
C      1  0.5628140000000  0.4921520000000  0.5411070000000 1.0
C      1  0.4940480000000  0.4847200000000  0.5726770000000 1.0
C      1  0.4325070000000  0.4934100000000  0.5417830000000 1.0
C      1  0.4295770000000  0.4706310000000  0.5237060000000 1.0
C      1  0.4385860000000  0.4620400000000  0.4687310000000 1.0
C      1  0.4933070000000  0.4655820000000  0.4288690000000 1.0
C      1  0.5484460000000  0.4643780000000  0.4387440000000 1.0
C      1  0.5759180000000  0.4597110000000  0.5046880000000 1.0
C      1  0.5436100000000  0.4737880000000  0.5541540000000 1.0
C      1  0.4734000000000  0.4692080000000  0.5593630000000 1.0
C      1  0.4259630000000  0.5306930000000  0.5035140000000 1.0
C      1  0.4536310000000  0.5317420000000  0.4425510000000 1.0
C      1  0.5174190000000  0.5580620000000  0.4171740000000 1.0
C      1  0.5609490000000  0.5263870000000  0.4627670000000 1.0
C      1  0.5582550000000  0.5207740000000  0.5370490000000 1.0
C      1  0.5090860000000  0.5370030000000  0.5741740000000 1.0
C      1  0.4413750000000  0.5610300000000  0.5629570000000 1.0
C      1  0.5692900000000  0.5227270000000  0.4901170000000 1.0
C      1  0.5444000000000  0.5321900000000  0.5574420000000 1.0
C      1  0.4819620000000  0.5339460000000  0.5726630000000 1.0
C      1  0.4359210000000  0.5448730000000  0.5419030000000 1.0
C      1  0.4299490000000  0.5277010000000  0.4757360000000 1.0
C      1  0.4774740000000  0.5310180000000  0.4289600000000 1.0
C      1  0.5279400000000  0.5417110000000  0.4348540000000 1.0
C      1  0.4848980000000  0.5048000000000  0.4220000000000 1.0
C      1  0.5591980000000  0.5041880000000  0.4443460000000 1.0
C      1  0.5832640000000  0.4994020000000  0.4962570000000 1.0
C      1  0.5282680000000  0.5151320000000  0.5751570000000 1.0
C      1  0.4743690000000  0.5064410000000  0.5742900000000 1.0
C      1  0.4258910000000  0.5191060000000  0.5311130000000 1.0
C      1  0.4374340000000  0.5100460000000  0.4526490000000 1.0
C      1  0.5326270000000  0.4421620000000  0.4459070000000 1.0
C      1  0.5555480000000  0.4427090000000  0.5143510000000 1.0
C      1  0.5413960000000  0.4480140000000  0.5401260000000 1.0
C      1  0.4758190000000  0.4549610000000  0.5339910000000 1.0
C      1  0.4516350000000  0.4546600000000  0.5174440000000 1.0
C      1  0.4596900000000  0.4518450000000  0.4886800000000 1.0
C      1  0.5037580000000  0.4422240000000  0.4410290000000 1.0
C      1  0.4652020000000  0.5641050000000  0.5084380000000 1.0
C      1  0.4711720000000  0.5615930000000  0.4798700000000 1.0
C      1  0.4967950000000  0.5590430000000  0.4672270000000 1.0
C      1  0.5229200000000  0.5546900000000  0.4797180000000 1.0
C      1  0.5310760000000  0.5514930000000  0.5068250000000 1.0
C      1  0.5139160000000  0.5638810000000  0.5299530000000 1.0
C      1  0.4821270000000  0.5629710000000  0.5313100000000 1.0
C      1  0.5010250000000  0.5092470000000  0.4687950000000 1.0
C      1  0.5209040000000  0.4926580000000  0.4738180000000 1.0
C      1  0.5307380000000  0.4894660000000  0.4975870000000 1.0
C      1  0.5135330000000  0.4904980000000  0.5188050000000 1.0
C      1  0.4994560000000  0.5140140000000  0.5230800000000 1.0
C      1  0.4777350000000  0.5129970000000  0.5086620000000 1.0
C      1  0.4791240000000  0.5014940000000  0.4836430000000 1.0
C      1  0.4395010000000  0.5541320000000  0.5142070000000 1.0
C      1  0.4493670000000  0.5483650000000  0.4656640000000 1.0
C      1  0.4974560000000  0.5500760000000  0.4383900000000 1.0
C      1  0.5406400000000  0.5444550000000  0.4596740000000 1.0
C      1  0.5542300000000  0.5343820000000  0.5114990000000 1.0
C      1  0.5246060000000  0.5524700000000  0.5556200000000 1.0
C      1  0.4692000000000  0.5547660000000  0.5562880000000 1.0
C      1  0.4902000000000  0.4171310000000  0.5097880000000 1.0
C      1  0.4789520000000  0.4271340000000  0.4861260000000 1.0
C      1  0.4991780000000  0.4272950000000  0.4659570000000 1.0
C      1  0.5282830000000  0.4267690000000  0.4707460000000 1.0
C      1  0.5385980000000  0.4252240000000  0.4976060000000 1.0
C      1  0.5188770000000  0.4297280000000  0.5390810000000 1.0
C      1  0.4896220000000  0.4300410000000  0.5364180000000 1.0
C      1  0.4535840000000  0.4901850000000  0.5612940000000 1.0
C      1  0.4081430000000  0.4660190000000  0.5055220000000 1.0
C      1  0.4456110000000  0.4824400000000  0.4482500000000 1.0
C      1  0.5097330000000  0.4890740000000  0.4210900000000 1.0
C      1  0.5692480000000  0.4784320000000  0.4540200000000 1.0
C      1  0.5787980000000  0.4837510000000  0.5204190000000 1.0
C      1  0.5232180000000  0.4876190000000  0.5712470000000 1.0
C      1  0.4806900000000  0.4728610000000  0.4892200000000 1.0
C      1  0.4956810000000  0.4686840000000  0.5120070000000 1.0
C      1  0.5122110000000  0.5928870000000  0.5282570000000 1.0
C      1  0.5184210000000  0.4150680000000  0.5143580000000 1.0
C      1  0.5047350000000  0.6163790000000  0.5256410000000 1.0
END
