TITL C-207198-9117-6 -156.652649592558 125000 -532.314069092068 0 0 78 (C1) n - 1
REM
REM in /rds/project/t2_vol4/rds-t2-cs072/BORA/CARBON/from-Arr/AIRSS/Generating-Clusters/GAP-ML-2020/Higher-Symm/SD-CG/HFTN-CG
REM
REM
REM
REM
REM
REM ./C.cell (b20cbc046b6831c77cfcea5457e17084)
REM AIRSS Version 0.9.1 bugfix July 2018 build 013d7b7c2542+ Fri, 06 Jul 2018 19:26:36 +0100
REM compiler GCC version 9.3.0
REM options -cpp -mtune=generic -march=x86-64 -g -O0
REM seed -1681262055 -1785593568 1162018059 2002713288 1388354861 -1187422923 494057310 1781628322 1984794848 -1835624811 -811719223 1129266998 677628058 -1465288465 867036001 -1723254803 785158814 -1950961739 -566695825 -257887602 -1447316702 -1187740338 -1359464808 -1932102528 1443945920 1861902680 1235753887 685103700 -1002550292 2077999031 1659759929 121982131 -646013424
REM
CELL 1.54180   50.00000   50.00000   50.00000   90.00000   90.00000   90.00000
LATT -1
SFAC C  
C      1  0.5230490000000  0.4875230000000  0.5241080000000 1.0
C      1  0.5285170000000  0.5298330000000  0.4987820000000 1.0
C      1  0.5280890000000  0.4868670000000  0.4726250000000 1.0
C      1  0.4748000000000  0.4827830000000  0.5236690000000 1.0
C      1  0.4799610000000  0.5265900000000  0.4982720000000 1.0
C      1  0.4724080000000  0.4817100000000  0.4757660000000 1.0
C      1  0.5158670000000  0.5152850000000  0.5244590000000 1.0
C      1  0.5166910000000  0.4732410000000  0.4980550000000 1.0
C      1  0.5160280000000  0.5149800000000  0.4731950000000 1.0
C      1  0.4861530000000  0.5120180000000  0.5228570000000 1.0
C      1  0.4864010000000  0.4683340000000  0.4985450000000 1.0
C      1  0.4851420000000  0.5117510000000  0.4749460000000 1.0
C      1  0.4270120000000  0.4807560000000  0.5016750000000 1.0
C      1  0.4425210000000  0.5197970000000  0.5260520000000 1.0
C      1  0.4409160000000  0.5171990000000  0.4725630000000 1.0
C      1  0.5606720000000  0.4661060000000  0.5024910000000 1.0
C      1  0.5671140000000  0.5098120000000  0.5254720000000 1.0
C      1  0.5741180000000  0.5080660000000  0.4817590000000 1.0
C      1  0.4467500000000  0.5352860000000  0.4985880000000 1.0
C      1  0.4460520000000  0.4909010000000  0.5197560000000 1.0
C      1  0.4446250000000  0.4898680000000  0.4817830000000 1.0
C      1  0.5576100000000  0.5212720000000  0.5009820000000 1.0
C      1  0.5582320000000  0.4813810000000  0.5304680000000 1.0
C      1  0.5566040000000  0.4861320000000  0.4809250000000 1.0
C      1  0.4762460000000  0.4213260000000  0.4432000000000 1.0
C      1  0.4759530000000  0.4803190000000  0.5913000000000 1.0
C      1  0.4660460000000  0.5877150000000  0.4630880000000 1.0
C      1  0.5303300000000  0.4289590000000  0.4357420000000 1.0
C      1  0.5286060000000  0.4933950000000  0.5925280000000 1.0
C      1  0.5205850000000  0.5846430000000  0.4614130000000 1.0
C      1  0.4622280000000  0.5729560000000  0.4427580000000 1.0
C      1  0.4681340000000  0.5039040000000  0.5864650000000 1.0
C      1  0.4849640000000  0.4127180000000  0.4654010000000 1.0
C      1  0.5162310000000  0.5718140000000  0.4401210000000 1.0
C      1  0.5200170000000  0.5172110000000  0.5907480000000 1.0
C      1  0.5375800000000  0.4216320000000  0.4589450000000 1.0
C      1  0.5019950000000  0.5475890000000  0.4376060000000 1.0
C      1  0.5280990000000  0.4268750000000  0.4849400000000 1.0
C      1  0.5050300000000  0.5295880000000  0.5708260000000 1.0
C      1  0.4732570000000  0.5466350000000  0.4403690000000 1.0
C      1  0.4994770000000  0.4220370000000  0.4872080000000 1.0
C      1  0.4762620000000  0.5245730000000  0.5691040000000 1.0
C      1  0.5128820000000  0.4516230000000  0.4362640000000 1.0
C      1  0.5077970000000  0.5764130000000  0.4858780000000 1.0
C      1  0.5218550000000  0.4743210000000  0.5721130000000 1.0
C      1  0.4846790000000  0.4484980000000  0.4377730000000 1.0
C      1  0.4791020000000  0.5764780000000  0.4856050000000 1.0
C      1  0.4935250000000  0.4699310000000  0.5709200000000 1.0
C      1  0.4117510000000  0.5241250000000  0.4757610000000 1.0
C      1  0.4010500000000  0.4887120000000  0.5025140000000 1.0
C      1  0.4135680000000  0.5262240000000  0.5255360000000 1.0
C      1  0.6002490000000  0.5021320000000  0.4862080000000 1.0
C      1  0.5894780000000  0.4623390000000  0.5068890000000 1.0
C      1  0.5949910000000  0.5040540000000  0.5297530000000 1.0
C      1  0.3922730000000  0.5061090000000  0.4820660000000 1.0
C      1  0.4168350000000  0.5399560000000  0.4998260000000 1.0
C      1  0.3936480000000  0.5073700000000  0.5218940000000 1.0
C      1  0.6079100000000  0.4754510000000  0.4908420000000 1.0
C      1  0.6145680000000  0.5070830000000  0.5099940000000 1.0
C      1  0.5879230000000  0.4755660000000  0.5334870000000 1.0
C      1  0.5163220000000  0.5364130000000  0.5455870000000 1.0
C      1  0.5138070000000  0.5230740000000  0.4448070000000 1.0
C      1  0.5359840000000  0.4480970000000  0.5037460000000 1.0
C      1  0.4672350000000  0.5301280000000  0.5418040000000 1.0
C      1  0.4647200000000  0.5205950000000  0.4515900000000 1.0
C      1  0.4880720000000  0.4395920000000  0.5061510000000 1.0
C      1  0.5342360000000  0.4692320000000  0.5455130000000 1.0
C      1  0.5189460000000  0.4784350000000  0.4446360000000 1.0
C      1  0.5183390000000  0.5581110000000  0.5052270000000 1.0
C      1  0.4849210000000  0.4630740000000  0.5446960000000 1.0
C      1  0.4718370000000  0.4726100000000  0.4471660000000 1.0
C      1  0.4688440000000  0.5555440000000  0.5032360000000 1.0
C      1  0.4742710000000  0.4976020000000  0.4335020000000 1.0
C      1  0.5039060000000  0.4993690000000  0.4326670000000 1.0
C      1  0.4768870000000  0.5565860000000  0.5310020000000 1.0
C      1  0.4986060000000  0.4414200000000  0.5323110000000 1.0
C      1  0.5270720000000  0.4439230000000  0.5319730000000 1.0
C      1  0.5055390000000  0.5584320000000  0.5315090000000 1.0
END
