TITL C-205051-5809-5 17.4272158753555 125000 -754.130874870876 0 0 107 (C1) n - 1
REM
REM in /rds/project/t2_vol4/rds-t2-cs072/BORA/CARBON/from-Arr/AIRSS/Generating-Clusters/GAP-ML-2020/Higher-Symm/SD-CG/HFTN-CG
REM
REM
REM
REM
REM
REM ./C.cell (b20cbc046b6831c77cfcea5457e17084)
REM AIRSS Version 0.9.1 bugfix July 2018 build 013d7b7c2542+ Fri, 06 Jul 2018 19:26:36 +0100
REM compiler GCC version 9.3.0
REM options -cpp -mtune=generic -march=x86-64 -g -O0
REM seed -1527378925 2142580400 1412274797 -920213219 149787494 -1664041521 393794071 1647391799 733578480 887092587 2138914199 1914494843 -1678232362 660585360 1331262058 -1852357747 -1012981590 -1273595962 -888128563 -1555054750 -25887874 -1840819144 400005918 -446391627 -1021927437 -1445288345 -125747256 -1895595304 1331368208 228753311 1627471966 1990621458 499164208
REM
CELL 1.54180   50.00000   50.00000   50.00000   90.00000   90.00000   90.00000
LATT -1
SFAC C  
C      1  0.4916760000000  0.4594660000000  0.4368600000000 1.0
C      1  0.5397900000000  0.4921640000000  0.5228180000000 1.0
C      1  0.5110760000000  0.5324530000000  0.4548360000000 1.0
C      1  0.4656720000000  0.4933320000000  0.5316410000000 1.0
C      1  0.5433670000000  0.5829390000000  0.4859150000000 1.0
C      1  0.4241710000000  0.5367680000000  0.5256450000000 1.0
C      1  0.4566660000000  0.4230590000000  0.4830330000000 1.0
C      1  0.5860580000000  0.4738710000000  0.5216330000000 1.0
C      1  0.4395390000000  0.5272180000000  0.4385610000000 1.0
C      1  0.4661380000000  0.4508920000000  0.5642320000000 1.0
C      1  0.5624130000000  0.4720560000000  0.4372150000000 1.0
C      1  0.5296240000000  0.5455410000000  0.5620340000000 1.0
C      1  0.4831770000000  0.4197070000000  0.4938320000000 1.0
C      1  0.5891100000000  0.5018380000000  0.5140650000000 1.0
C      1  0.5147860000000  0.5877970000000  0.4955860000000 1.0
C      1  0.4221790000000  0.5075660000000  0.5168650000000 1.0
C      1  0.4650510000000  0.5708590000000  0.5350050000000 1.0
C      1  0.4268940000000  0.4608470000000  0.4687590000000 1.0
C      1  0.5351470000000  0.4292940000000  0.5382250000000 1.0
C      1  0.5721350000000  0.5428410000000  0.4694020000000 1.0
C      1  0.5470720000000  0.5592310000000  0.4662220000000 1.0
C      1  0.4518820000000  0.5425490000000  0.5378760000000 1.0
C      1  0.4534040000000  0.4448490000000  0.4628920000000 1.0
C      1  0.5507020000000  0.4525310000000  0.5451040000000 1.0
C      1  0.4881690000000  0.5328420000000  0.5731790000000 1.0
C      1  0.4475950000000  0.4855110000000  0.4204030000000 1.0
C      1  0.5074550000000  0.4611050000000  0.5806620000000 1.0
C      1  0.5444730000000  0.5099800000000  0.4184240000000 1.0
C      1  0.4844730000000  0.5423920000000  0.4458120000000 1.0
C      1  0.4484640000000  0.4961840000000  0.5558100000000 1.0
C      1  0.5190130000000  0.4486560000000  0.4401190000000 1.0
C      1  0.5505400000000  0.5010220000000  0.5515720000000 1.0
C      1  0.4280410000000  0.4900770000000  0.4669940000000 1.0
C      1  0.5042720000000  0.4333500000000  0.5363030000000 1.0
C      1  0.5706130000000  0.5132260000000  0.4637730000000 1.0
C      1  0.4931250000000  0.5741860000000  0.5422270000000 1.0
C      1  0.4936060000000  0.4425760000000  0.5628210000000 1.0
C      1  0.5655970000000  0.5003370000000  0.4363570000000 1.0
C      1  0.5028040000000  0.5548280000000  0.5612760000000 1.0
C      1  0.4313210000000  0.5001250000000  0.4395210000000 1.0
C      1  0.5142710000000  0.5852330000000  0.5251460000000 1.0
C      1  0.4120610000000  0.5085300000000  0.4872310000000 1.0
C      1  0.4826480000000  0.4169350000000  0.5224480000000 1.0
C      1  0.5884760000000  0.4977930000000  0.4838190000000 1.0
C      1  0.4761160000000  0.5641450000000  0.4625560000000 1.0
C      1  0.4238910000000  0.4858450000000  0.5387180000000 1.0
C      1  0.5262290000000  0.4384810000000  0.4656320000000 1.0
C      1  0.5761160000000  0.5169000000000  0.5372990000000 1.0
C      1  0.5538690000000  0.4390850000000  0.4728730000000 1.0
C      1  0.5730800000000  0.5450020000000  0.5373910000000 1.0
C      1  0.4484020000000  0.5650820000000  0.4694030000000 1.0
C      1  0.4256180000000  0.4575400000000  0.5345470000000 1.0
C      1  0.4190580000000  0.4421360000000  0.5099210000000 1.0
C      1  0.5663230000000  0.4326440000000  0.4986330000000 1.0
C      1  0.5789160000000  0.5602100000000  0.5131660000000 1.0
C      1  0.4387260000000  0.5723110000000  0.4956170000000 1.0
C      1  0.5024140000000  0.4410790000000  0.4850000000000 1.0
C      1  0.5419880000000  0.5149010000000  0.5042210000000 1.0
C      1  0.4989080000000  0.5717430000000  0.4781850000000 1.0
C      1  0.4514910000000  0.5049000000000  0.5088080000000 1.0
C      1  0.5709640000000  0.4579100000000  0.4595640000000 1.0
C      1  0.5507200000000  0.5589400000000  0.5492650000000 1.0
C      1  0.4311820000000  0.5446940000000  0.4588110000000 1.0
C      1  0.4463230000000  0.4411480000000  0.5471900000000 1.0
C      1  0.4826100000000  0.4591980000000  0.4676420000000 1.0
C      1  0.5584990000000  0.4698880000000  0.5240510000000 1.0
C      1  0.5178950000000  0.5491880000000  0.4792790000000 1.0
C      1  0.4667350000000  0.5290920000000  0.5122210000000 1.0
C      1  0.5066630000000  0.4536520000000  0.5130370000000 1.0
C      1  0.5443030000000  0.5045780000000  0.4777030000000 1.0
C      1  0.5204320000000  0.5338740000000  0.5052270000000 1.0
C      1  0.4539770000000  0.4958100000000  0.4826810000000 1.0
C      1  0.4649940000000  0.4774790000000  0.5724910000000 1.0
C      1  0.5372050000000  0.4650170000000  0.4259100000000 1.0
C      1  0.5306340000000  0.5177640000000  0.5645470000000 1.0
C      1  0.4669290000000  0.5268390000000  0.4298640000000 1.0
C      1  0.5484870000000  0.4727170000000  0.5653130000000 1.0
C      1  0.5349730000000  0.5482500000000  0.4408610000000 1.0
C      1  0.4520880000000  0.5251270000000  0.5630240000000 1.0
C      1  0.4621510000000  0.4486610000000  0.4333290000000 1.0
C      1  0.5112770000000  0.4823970000000  0.5163960000000 1.0
C      1  0.5181630000000  0.5044770000000  0.4678540000000 1.0
C      1  0.4949990000000  0.5214190000000  0.5107550000000 1.0
C      1  0.4783860000000  0.4852070000000  0.4785610000000 1.0
C      1  0.4725500000000  0.5007320000000  0.4187410000000 1.0
C      1  0.4915050000000  0.4845040000000  0.5790630000000 1.0
C      1  0.5242410000000  0.4883590000000  0.4156630000000 1.0
C      1  0.5026610000000  0.5079600000000  0.5645550000000 1.0
C      1  0.4388320000000  0.4217010000000  0.5053400000000 1.0
C      1  0.5874980000000  0.4536790000000  0.5018270000000 1.0
C      1  0.5588600000000  0.5803280000000  0.5090670000000 1.0
C      1  0.4195470000000  0.5521790000000  0.5028610000000 1.0
C      1  0.4140760000000  0.5354500000000  0.4801060000000 1.0
C      1  0.4555340000000  0.4203860000000  0.5294760000000 1.0
C      1  0.5888500000000  0.4696470000000  0.4785250000000 1.0
C      1  0.5415880000000  0.5802890000000  0.5324110000000 1.0
C      1  0.5873760000000  0.5480740000000  0.4908760000000 1.0
C      1  0.4527890000000  0.5845930000000  0.5151150000000 1.0
C      1  0.4089620000000  0.4517660000000  0.4867540000000 1.0
C      1  0.5532350000000  0.4207040000000  0.5193410000000 1.0
C      1  0.5435030000000  0.5382620000000  0.4174430000000 1.0
C      1  0.4641310000000  0.5318090000000  0.5873290000000 1.0
C      1  0.4458100000000  0.4585230000000  0.4138270000000 1.0
C      1  0.5341300000000  0.4646130000000  0.5871210000000 1.0
C      1  0.4958890000000  0.4842920000000  0.4199540000000 1.0
C      1  0.4938540000000  0.5003480000000  0.5338440000000 1.0
C      1  0.5003160000000  0.4976530000000  0.4906000000000 1.0
END
