TITL C-205044-2593-10 611.473060979202 125000 -232.488990469687 0 0 35 (Cs) n - 1
REM
REM in /rds/project/t2_vol4/rds-t2-cs072/BORA/CARBON/from-Arr/AIRSS/Generating-Clusters/GAP-ML-2020/Higher-Symm/SD-CG/HFTN-CG
REM
REM
REM
REM
REM
REM ./C.cell (b20cbc046b6831c77cfcea5457e17084)
REM AIRSS Version 0.9.1 bugfix July 2018 build 013d7b7c2542+ Fri, 06 Jul 2018 19:26:36 +0100
REM compiler GCC version 9.3.0
REM options -cpp -mtune=generic -march=x86-64 -g -O0
REM seed 733469326 1469453949 1412717701 401763287 2027097295 1549157258 -1364040903 908698020 -1877263865 -1199302114 1197999685 -962091522 -273743522 1319687251 -224399820 381758322 -788618633 503392351 -738851343 -906969686 -1682539027 1937451013 -1585453518 -1494315385 1994214359 -2045579397 -832782402 -331377050 553148618 2111146638 828397217 -908607844 967451986
REM
CELL 1.54180   50.00000   50.00000   50.00000   90.00000   90.00000   90.00000
LATT -1
SFAC C  
C      1  0.5381410000000  0.4729340000000  0.4742820000000 1.0
C      1  0.4860240000000  0.4569080000000  0.4774950000000 1.0
C      1  0.4520750000000  0.4992070000000  0.4697170000000 1.0
C      1  0.4849600000000  0.5424900000000  0.4733270000000 1.0
C      1  0.5380420000000  0.5266140000000  0.4709780000000 1.0
C      1  0.4615390000000  0.4733350000000  0.4743400000000 1.0
C      1  0.5134910000000  0.4567640000000  0.4774740000000 1.0
C      1  0.5478690000000  0.4987060000000  0.4696440000000 1.0
C      1  0.5154440000000  0.5423310000000  0.4733040000000 1.0
C      1  0.4621950000000  0.5270110000000  0.4710370000000 1.0
C      1  0.4724460000000  0.4402050000000  0.4978220000000 1.0
C      1  0.4286120000000  0.5060960000000  0.4865340000000 1.0
C      1  0.4862310000000  0.5582750000000  0.4981710000000 1.0
C      1  0.5605910000000  0.5326270000000  0.4903880000000 1.0
C      1  0.5518720000000  0.4557580000000  0.4941160000000 1.0
C      1  0.5269240000000  0.4399200000000  0.4977800000000 1.0
C      1  0.5714280000000  0.5053480000000  0.4864250000000 1.0
C      1  0.5143770000000  0.5581280000000  0.4981500000000 1.0
C      1  0.4397400000000  0.5332590000000  0.4904810000000 1.0
C      1  0.4476600000000  0.4563040000000  0.4941960000000 1.0
C      1  0.4249750000000  0.4639740000000  0.5063260000000 1.0
C      1  0.4444090000000  0.5461080000000  0.5134270000000 1.0
C      1  0.5296440000000  0.5507300000000  0.5204770000000 1.0
C      1  0.5838420000000  0.4876050000000  0.5018280000000 1.0
C      1  0.5128080000000  0.4251430000000  0.5152700000000 1.0
C      1  0.5746540000000  0.4631910000000  0.5062110000000 1.0
C      1  0.5560920000000  0.5455230000000  0.5133420000000 1.0
C      1  0.4709210000000  0.5510370000000  0.5205220000000 1.0
C      1  0.4160370000000  0.4884840000000  0.5019570000000 1.0
C      1  0.4864340000000  0.4252810000000  0.5152900000000 1.0
C      1  0.4851970000000  0.5342890000000  0.5387250000000 1.0
C      1  0.5152220000000  0.5341320000000  0.5387020000000 1.0
C      1  0.5225490000000  0.5058540000000  0.5400200000000 1.0
C      1  0.4775760000000  0.5060900000000  0.5400550000000 1.0
C      1  0.4999810000000  0.4903370000000  0.5400630000000 1.0
END
