TITL C-20172-7942-2 -31.2781234887213 125000 -639.937240516831 0 0 89 (C1) n - 1
REM
REM in /rds/project/t2_vol4/rds-t2-cs072/BORA/CARBON/from-Arr/AIRSS/Generating-Clusters/GAP-ML-2020/Higher-Symm/SD-CG/HFTN-CG
REM
REM
REM
REM
REM
REM ./C.cell (b20cbc046b6831c77cfcea5457e17084)
REM AIRSS Version 0.9.1 bugfix July 2018 build 013d7b7c2542+ Fri, 06 Jul 2018 19:26:36 +0100
REM compiler GCC version 9.3.0
REM options -cpp -mtune=generic -march=x86-64 -g -O0
REM seed -776548110 -1637969339 -53703311 1090416148 -69530754 -931865248 1601620564 -1833590953 -2006003383 1916767816 760636292 -390915042 -1153603525 185010099 -884604038 589866076 1642408788 631918920 1013054784 1638580031 1573014354 1883291810 -773831900 -1654770153 811759062 -1185832401 568711263 1747052415 -1039385992 1526414879 1240716537 -2136851335 1546378748
REM
CELL 1.54180   50.00000   50.00000   50.00000   90.00000   90.00000   90.00000
LATT -1
SFAC C  
C      1  0.5242090000000  0.5229240000000  0.5016480000000 1.0
C      1  0.4670440000000  0.4926850000000  0.5187450000000 1.0
C      1  0.5103930000000  0.5014140000000  0.5019680000000 1.0
C      1  0.4684800000000  0.4941560000000  0.4796680000000 1.0
C      1  0.5724030000000  0.5552340000000  0.4832100000000 1.0
C      1  0.4356630000000  0.4487370000000  0.4831290000000 1.0
C      1  0.5649830000000  0.5507100000000  0.5105290000000 1.0
C      1  0.4345150000000  0.4481020000000  0.5108970000000 1.0
C      1  0.4226260000000  0.4936850000000  0.4679860000000 1.0
C      1  0.5864200000000  0.5043200000000  0.4809050000000 1.0
C      1  0.4208490000000  0.4926080000000  0.5275920000000 1.0
C      1  0.5693570000000  0.5076510000000  0.5276420000000 1.0
C      1  0.5466540000000  0.5936680000000  0.5161410000000 1.0
C      1  0.4522370000000  0.4046430000000  0.5113630000000 1.0
C      1  0.5462320000000  0.5953770000000  0.4865070000000 1.0
C      1  0.4536000000000  0.4053800000000  0.4818770000000 1.0
C      1  0.4424190000000  0.4788850000000  0.4825940000000 1.0
C      1  0.5796420000000  0.5307540000000  0.4687820000000 1.0
C      1  0.4412500000000  0.4781460000000  0.5134080000000 1.0
C      1  0.5519630000000  0.5250000000000  0.5111560000000 1.0
C      1  0.4888010000000  0.4302590000000  0.5453130000000 1.0
C      1  0.5089520000000  0.5665880000000  0.5486790000000 1.0
C      1  0.4928150000000  0.4328290000000  0.4524280000000 1.0
C      1  0.5088190000000  0.5706100000000  0.4531460000000 1.0
C      1  0.5537250000000  0.5696650000000  0.5283720000000 1.0
C      1  0.4450300000000  0.4273650000000  0.5260140000000 1.0
C      1  0.5552760000000  0.5745960000000  0.4702420000000 1.0
C      1  0.4474930000000  0.4287680000000  0.4679040000000 1.0
C      1  0.4577310000000  0.5257300000000  0.4834230000000 1.0
C      1  0.5526370000000  0.4628050000000  0.4868720000000 1.0
C      1  0.4566620000000  0.5252620000000  0.5156040000000 1.0
C      1  0.5500410000000  0.4607320000000  0.5162090000000 1.0
C      1  0.4909450000000  0.5248710000000  0.5672500000000 1.0
C      1  0.5047920000000  0.4711340000000  0.5650730000000 1.0
C      1  0.4935330000000  0.5285510000000  0.4328310000000 1.0
C      1  0.5096490000000  0.4753030000000  0.4372820000000 1.0
C      1  0.5663210000000  0.4841400000000  0.4722450000000 1.0
C      1  0.4371390000000  0.5196380000000  0.4628340000000 1.0
C      1  0.5596070000000  0.4795780000000  0.5342790000000 1.0
C      1  0.4351710000000  0.5183240000000  0.5345500000000 1.0
C      1  0.4715930000000  0.5499190000000  0.4727810000000 1.0
C      1  0.5330830000000  0.4458770000000  0.4734000000000 1.0
C      1  0.4707890000000  0.5485520000000  0.5279520000000 1.0
C      1  0.5303130000000  0.4434190000000  0.5279660000000 1.0
C      1  0.6106600000000  0.4992260000000  0.4962240000000 1.0
C      1  0.3985120000000  0.4894940000000  0.4841930000000 1.0
C      1  0.5959720000000  0.5083070000000  0.5153380000000 1.0
C      1  0.3976410000000  0.4891730000000  0.5098370000000 1.0
C      1  0.5632170000000  0.5242110000000  0.4473380000000 1.0
C      1  0.4376940000000  0.4836130000000  0.4421860000000 1.0
C      1  0.5607430000000  0.5157470000000  0.5557050000000 1.0
C      1  0.4340030000000  0.4816710000000  0.5538000000000 1.0
C      1  0.5290140000000  0.4958780000000  0.4368980000000 1.0
C      1  0.4743250000000  0.5086580000000  0.4288800000000 1.0
C      1  0.5243780000000  0.4907910000000  0.5700240000000 1.0
C      1  0.4705900000000  0.5056070000000  0.5700970000000 1.0
C      1  0.4976800000000  0.4106200000000  0.5263650000000 1.0
C      1  0.5000860000000  0.5851010000000  0.5289610000000 1.0
C      1  0.5003580000000  0.4124640000000  0.4710640000000 1.0
C      1  0.4996830000000  0.5874560000000  0.4739190000000 1.0
C      1  0.5209370000000  0.5224260000000  0.4307570000000 1.0
C      1  0.4826640000000  0.4814130000000  0.4297930000000 1.0
C      1  0.5180010000000  0.5183660000000  0.5717840000000 1.0
C      1  0.4775830000000  0.4779250000000  0.5694560000000 1.0
C      1  0.4782770000000  0.5726140000000  0.5148630000000 1.0
C      1  0.5215740000000  0.4208620000000  0.5136820000000 1.0
C      1  0.4781780000000  0.5735140000000  0.4872670000000 1.0
C      1  0.5232410000000  0.4222100000000  0.4858650000000 1.0
C      1  0.5180740000000  0.6026210000000  0.4875280000000 1.0
C      1  0.4813540000000  0.3962460000000  0.4828220000000 1.0
C      1  0.5182290000000  0.6015320000000  0.5167040000000 1.0
C      1  0.4798870000000  0.3952200000000  0.5122290000000 1.0
C      1  0.5365660000000  0.5655570000000  0.4494100000000 1.0
C      1  0.4656690000000  0.4401210000000  0.4482580000000 1.0
C      1  0.5364430000000  0.5595710000000  0.5505070000000 1.0
C      1  0.4615350000000  0.4377660000000  0.5476280000000 1.0
C      1  0.5404300000000  0.5342930000000  0.5626820000000 1.0
C      1  0.4554250000000  0.4628720000000  0.5591910000000 1.0
C      1  0.5416410000000  0.5402790000000  0.4380570000000 1.0
C      1  0.4600730000000  0.4655870000000  0.4374800000000 1.0
C      1  0.5102910000000  0.4485700000000  0.5488410000000 1.0
C      1  0.4879300000000  0.5471210000000  0.5507050000000 1.0
C      1  0.5142220000000  0.4515000000000  0.4516270000000 1.0
C      1  0.4890420000000  0.5502220000000  0.4501250000000 1.0
C      1  0.4447760000000  0.5073840000000  0.5589380000000 1.0
C      1  0.5502660000000  0.4890010000000  0.5594510000000 1.0
C      1  0.4479630000000  0.5096590000000  0.4385450000000 1.0
C      1  0.5547620000000  0.4969880000000  0.4493900000000 1.0
C      1  0.4874730000000  0.4867070000000  0.4997860000000 1.0
END
