TITL C-205049-3319-6 -0.0138074498387889 125000 -67.2208357675236 0 0 11 (C1) n - 1
REM
REM in /rds/project/t2_vol4/rds-t2-cs072/BORA/CARBON/from-Arr/AIRSS/Generating-Clusters/GAP-ML-2020/Higher-Symm/SD-CG/HFTN-CG
REM
REM
REM
REM
REM
REM ./C.cell (b20cbc046b6831c77cfcea5457e17084)
REM AIRSS Version 0.9.1 bugfix July 2018 build 013d7b7c2542+ Fri, 06 Jul 2018 19:26:36 +0100
REM compiler GCC version 9.3.0
REM options -cpp -mtune=generic -march=x86-64 -g -O0
REM seed 1549869534 -1354100240 725989371 -138542578 550382794 1501910351 -370252411 708921291 -236691780 1378543826 -244208491 1050569155 -768786791 -1664055188 -33280856 -77983898 -858315613 1213422179 885128229 1942332869 2001541702 -1031121486 -1012725220 549736915 462913223 -2128009359 378486675 -1012750683 -691275604 -598528304 1879328883 1349342868 2021227845
REM
CELL 1.54180   50.00000   50.00000   50.00000   90.00000   90.00000   90.00000
LATT -1
SFAC C  
C      1  0.4664110000000  0.5059370000000  0.4607160000000 1.0
C      1  0.4775820000000  0.5279450000000  0.5492510000000 1.0
C      1  0.5295320000000  0.4983970000000  0.5048340000000 1.0
C      1  0.4963760000000  0.5258100000000  0.5323980000000 1.0
C      1  0.5097300000000  0.5271330000000  0.4827870000000 1.0
C      1  0.4704580000000  0.4861440000000  0.4768760000000 1.0
C      1  0.5032130000000  0.4601180000000  0.5040060000000 1.0
C      1  0.4845390000000  0.4698490000000  0.4903370000000 1.0
C      1  0.5234380000000  0.5052090000000  0.4757140000000 1.0
C      1  0.5250010000000  0.4726860000000  0.5105450000000 1.0
C      1  0.5137210000000  0.5207730000000  0.5125370000000 1.0
END
