TITL C-205038-2140-4 -0.000540666806654677 125000 -646.717838746408 0 0 95 (C3) n - 1
REM
REM in /rds/project/t2_vol4/rds-t2-cs072/BORA/CARBON/from-Arr/AIRSS/Generating-Clusters/GAP-ML-2020/Higher-Symm/SD-CG/HFTN-CG
REM
REM
REM
REM
REM
REM ./C.cell (b20cbc046b6831c77cfcea5457e17084)
REM AIRSS Version 0.9.1 bugfix July 2018 build 013d7b7c2542+ Fri, 06 Jul 2018 19:26:36 +0100
REM compiler GCC version 9.3.0
REM options -cpp -mtune=generic -march=x86-64 -g -O0
REM seed 887204135 1636705935 438344385 169450177 -1957074960 1383799664 1437051989 1580733278 105738326 -127216017 2051103335 1901977173 -2008814192 -772527518 -1512378421 -199681678 -160884214 -617008370 -794347057 1517387841 -1563862520 464743549 -106426950 347630923 -2061400504 2063429543 1019555376 -1346428520 1295560449 1168295213 235883315 -680592437 -513425902
REM
CELL 1.54180   50.00000   50.00000   50.00000   90.00000   90.00000   90.00000
LATT -1
SFAC C  
C      1  0.5311130000000  0.5156330000000  0.5647260000000 1.0
C      1  0.4694770000000  0.5182180000000  0.5644150000000 1.0
C      1  0.4980590000000  0.4635480000000  0.5641470000000 1.0
C      1  0.5651010000000  0.5645660000000  0.4992090000000 1.0
C      1  0.4110780000000  0.5236430000000  0.4980660000000 1.0
C      1  0.5235360000000  0.4107170000000  0.4978000000000 1.0
C      1  0.4587870000000  0.5508270000000  0.4519910000000 1.0
C      1  0.4768240000000  0.4387650000000  0.4512240000000 1.0
C      1  0.5648550000000  0.5104110000000  0.4522490000000 1.0
C      1  0.5155640000000  0.4276860000000  0.4758830000000 1.0
C      1  0.5547160000000  0.5493310000000  0.4770310000000 1.0
C      1  0.4297900000000  0.5224190000000  0.4761520000000 1.0
C      1  0.4578370000000  0.4938670000000  0.5254820000000 1.0
C      1  0.5255380000000  0.4659090000000  0.5256310000000 1.0
C      1  0.5158980000000  0.5385170000000  0.5261380000000 1.0
C      1  0.4662700000000  0.5617970000000  0.4796620000000 1.0
C      1  0.4631750000000  0.4395700000000  0.4787030000000 1.0
C      1  0.5705760000000  0.4979990000000  0.4797310000000 1.0
C      1  0.4379290000000  0.4865450000000  0.5473940000000 1.0
C      1  0.5415090000000  0.4521770000000  0.5476860000000 1.0
C      1  0.5194790000000  0.5590610000000  0.5483910000000 1.0
C      1  0.4877080000000  0.4308680000000  0.5261280000000 1.0
C      1  0.5651470000000  0.5232680000000  0.5272560000000 1.0
C      1  0.4464030000000  0.5441350000000  0.5267790000000 1.0
C      1  0.5050860000000  0.4337220000000  0.4506010000000 1.0
C      1  0.5551010000000  0.5374130000000  0.4516690000000 1.0
C      1  0.4402910000000  0.5288840000000  0.4509860000000 1.0
C      1  0.5042680000000  0.5281200000000  0.4702860000000 1.0
C      1  0.4734780000000  0.4893780000000  0.4698220000000 1.0
C      1  0.5224260000000  0.4820830000000  0.4700290000000 1.0
C      1  0.4223560000000  0.4498430000000  0.4984190000000 1.0
C      1  0.5817980000000  0.4573760000000  0.4993340000000 1.0
C      1  0.4955470000000  0.5916880000000  0.4999060000000 1.0
C      1  0.5494120000000  0.4175010000000  0.5110930000000 1.0
C      1  0.5460940000000  0.5834930000000  0.5123540000000 1.0
C      1  0.4039980000000  0.4976290000000  0.5109290000000 1.0
C      1  0.5109460000000  0.4570760000000  0.4831210000000 1.0
C      1  0.5314690000000  0.5305890000000  0.4837980000000 1.0
C      1  0.4575420000000  0.5116080000000  0.4832550000000 1.0
C      1  0.5215440000000  0.5802150000000  0.4989280000000 1.0
C      1  0.4193080000000  0.4780990000000  0.4975910000000 1.0
C      1  0.5588660000000  0.4406160000000  0.4980530000000 1.0
C      1  0.5401050000000  0.4905260000000  0.5758060000000 1.0
C      1  0.4865590000000  0.5384800000000  0.5758880000000 1.0
C      1  0.4718040000000  0.4681330000000  0.5752660000000 1.0
C      1  0.4786760000000  0.4750160000000  0.5173120000000 1.0
C      1  0.5315640000000  0.4934370000000  0.5177380000000 1.0
C      1  0.4891650000000  0.5300290000000  0.5177920000000 1.0
C      1  0.4544340000000  0.4478660000000  0.5662100000000 1.0
C      1  0.5664720000000  0.4856770000000  0.5671030000000 1.0
C      1  0.4777040000000  0.5638000000000  0.5672280000000 1.0
C      1  0.4391590000000  0.4405360000000  0.5208120000000 1.0
C      1  0.5811260000000  0.4764260000000  0.5218520000000 1.0
C      1  0.4790550000000  0.5814270000000  0.5221120000000 1.0
C      1  0.5066920000000  0.5466880000000  0.4461080000000 1.0
C      1  0.4565440000000  0.4823630000000  0.4453430000000 1.0
C      1  0.5373280000000  0.4710940000000  0.4456900000000 1.0
C      1  0.5171120000000  0.4545390000000  0.4330640000000 1.0
C      1  0.5313210000000  0.5375420000000  0.4337800000000 1.0
C      1  0.4523310000000  0.5083490000000  0.4331300000000 1.0
C      1  0.4578730000000  0.5656420000000  0.5115700000000 1.0
C      1  0.4635740000000  0.4301560000000  0.5105570000000 1.0
C      1  0.5780590000000  0.5028300000000  0.5117320000000 1.0
C      1  0.5362970000000  0.5165540000000  0.5351080000000 1.0
C      1  0.4665250000000  0.5224510000000  0.5347780000000 1.0
C      1  0.4963060000000  0.4590790000000  0.5344500000000 1.0
C      1  0.4214680000000  0.5318980000000  0.5245900000000 1.0
C      1  0.5108020000000  0.4154060000000  0.5241720000000 1.0
C      1  0.5670190000000  0.5510120000000  0.5255190000000 1.0
C      1  0.5279490000000  0.5112960000000  0.4235680000000 1.0
C      1  0.4768950000000  0.5186200000000  0.4233500000000 1.0
C      1  0.4960810000000  0.4707450000000  0.4230840000000 1.0
C      1  0.4573790000000  0.4930290000000  0.5702840000000 1.0
C      1  0.5258330000000  0.4656220000000  0.5704410000000 1.0
C      1  0.5153390000000  0.5386070000000  0.5709470000000 1.0
C      1  0.4924280000000  0.5752580000000  0.5473420000000 1.0
C      1  0.4374440000000  0.4550280000000  0.5461200000000 1.0
C      1  0.5690620000000  0.4675210000000  0.5469240000000 1.0
C      1  0.5363010000000  0.4234190000000  0.5373110000000 1.0
C      1  0.5471380000000  0.5689980000000  0.5384910000000 1.0
C      1  0.4156420000000  0.5055990000000  0.5372960000000 1.0
C      1  0.5821700000000  0.4730920000000  0.4767980000000 1.0
C      1  0.4820850000000  0.5843090000000  0.4771170000000 1.0
C      1  0.4358120000000  0.4420300000000  0.4757720000000 1.0
C      1  0.4805980000000  0.5448870000000  0.4345060000000 1.0
C      1  0.4713200000000  0.4607440000000  0.4338070000000 1.0
C      1  0.5488310000000  0.4947780000000  0.4344860000000 1.0
C      1  0.5377980000000  0.5003980000000  0.4895650000000 1.0
C      1  0.4804350000000  0.5321430000000  0.4895020000000 1.0
C      1  0.4816270000000  0.4665940000000  0.4890030000000 1.0
C      1  0.5212770000000  0.5512030000000  0.5011830000000 1.0
C      1  0.4445300000000  0.4923560000000  0.5003170000000 1.0
C      1  0.5338700000000  0.4553140000000  0.5005110000000 1.0
C      1  0.5002900000000  0.5001940000000  0.4267050000000 1.0
C      1  0.5001090000000  0.4999350000000  0.4603320000000 1.0
END
