TITL C-207202-9109-3 210.187162658258 125000 -810.33255469065 0 0 117 (Cs) n - 1
REM
REM in /rds/project/t2_vol4/rds-t2-cs072/BORA/CARBON/from-Arr/AIRSS/Generating-Clusters/GAP-ML-2020/Higher-Symm/SD-CG/HFTN-CG
REM
REM
REM
REM
REM
REM ./C.cell (b20cbc046b6831c77cfcea5457e17084)
REM AIRSS Version 0.9.1 bugfix July 2018 build 013d7b7c2542+ Fri, 06 Jul 2018 19:26:36 +0100
REM compiler GCC version 9.3.0
REM options -cpp -mtune=generic -march=x86-64 -g -O0
REM seed -1409149420 -685227144 -1860656083 -413075764 -74320670 1633965033 -1519735650 -1800207649 -580035717 1814732469 -182201854 1292167548 -392245500 663783606 1619187600 -2103684164 -1711521009 -1983509041 -1704509322 -468764873 -18226017 -1713880323 973399228 1513770109 613402205 1896050484 1883712192 673416325 658156385 -563696131 -448798961 2041523450 1696694603
REM
CELL 1.54180   50.00000   50.00000   50.00000   90.00000   90.00000   90.00000
LATT -1
SFAC C  
C      1  0.4668970000000  0.4133670000000  0.4909360000000 1.0
C      1  0.5917760000000  0.5146470000000  0.4910920000000 1.0
C      1  0.4413500000000  0.5724850000000  0.4912330000000 1.0
C      1  0.4665060000000  0.5867000000000  0.4911620000000 1.0
C      1  0.5921380000000  0.4857550000000  0.4911490000000 1.0
C      1  0.4417520000000  0.4278300000000  0.4909500000000 1.0
C      1  0.4765140000000  0.4302350000000  0.4377420000000 1.0
C      1  0.5716870000000  0.5145700000000  0.4375730000000 1.0
C      1  0.4515840000000  0.5550470000000  0.4378120000000 1.0
C      1  0.4764970000000  0.5693220000000  0.4376260000000 1.0
C      1  0.5718740000000  0.4858570000000  0.4377440000000 1.0
C      1  0.4514520000000  0.4446510000000  0.4377560000000 1.0
C      1  0.4742830000000  0.4853840000000  0.4180750000000 1.0
C      1  0.5254130000000  0.4846940000000  0.4178530000000 1.0
C      1  0.5000980000000  0.5292050000000  0.4177920000000 1.0
C      1  0.4739220000000  0.5143100000000  0.4178820000000 1.0
C      1  0.5251260000000  0.5148100000000  0.4177780000000 1.0
C      1  0.5002280000000  0.4704600000000  0.4180600000000 1.0
C      1  0.5482620000000  0.4443510000000  0.5378990000000 1.0
C      1  0.5239280000000  0.5692700000000  0.5379570000000 1.0
C      1  0.4279700000000  0.4860890000000  0.5378340000000 1.0
C      1  0.5478760000000  0.5554950000000  0.5379440000000 1.0
C      1  0.5242250000000  0.4307260000000  0.5377810000000 1.0
C      1  0.4276620000000  0.5137170000000  0.5379660000000 1.0
C      1  0.5558370000000  0.5681300000000  0.4651070000000 1.0
C      1  0.4113430000000  0.5141500000000  0.4650190000000 1.0
C      1  0.5314220000000  0.4167400000000  0.4652750000000 1.0
C      1  0.5567810000000  0.4304980000000  0.4649380000000 1.0
C      1  0.4122020000000  0.4853120000000  0.4653410000000 1.0
C      1  0.5307830000000  0.5825400000000  0.4651210000000 1.0
C      1  0.5917340000000  0.5135720000000  0.5592720000000 1.0
C      1  0.4437810000000  0.5736970000000  0.5596230000000 1.0
C      1  0.4652050000000  0.4142410000000  0.5586090000000 1.0
C      1  0.5920200000000  0.4884340000000  0.5595400000000 1.0
C      1  0.4434160000000  0.4267740000000  0.5586210000000 1.0
C      1  0.4656540000000  0.5860900000000  0.5593420000000 1.0
C      1  0.4750840000000  0.5140940000000  0.5998100000000 1.0
C      1  0.5001000000000  0.4711740000000  0.5996650000000 1.0
C      1  0.5247650000000  0.5143520000000  0.5997780000000 1.0
C      1  0.4751160000000  0.4855450000000  0.5996790000000 1.0
C      1  0.5000370000000  0.5285750000000  0.5997920000000 1.0
C      1  0.5247940000000  0.4855020000000  0.5997820000000 1.0
C      1  0.4732120000000  0.5153160000000  0.5246110000000 1.0
C      1  0.5004820000000  0.4698290000000  0.5244530000000 1.0
C      1  0.5262670000000  0.5152700000000  0.5245270000000 1.0
C      1  0.4736980000000  0.4852340000000  0.5244680000000 1.0
C      1  0.5000120000000  0.5303710000000  0.5245420000000 1.0
C      1  0.5267290000000  0.4845340000000  0.5245810000000 1.0
C      1  0.5659870000000  0.4437370000000  0.5153220000000 1.0
C      1  0.5155820000000  0.5846550000000  0.5152260000000 1.0
C      1  0.4188010000000  0.4711400000000  0.5151610000000 1.0
C      1  0.5653520000000  0.5560280000000  0.5151980000000 1.0
C      1  0.5158950000000  0.4152940000000  0.5151070000000 1.0
C      1  0.4182000000000  0.5287410000000  0.5154040000000 1.0
C      1  0.4904210000000  0.5468060000000  0.5005950000000 1.0
C      1  0.4643590000000  0.4689920000000  0.5001550000000 1.0
C      1  0.5462940000000  0.4840450000000  0.5009630000000 1.0
C      1  0.4911180000000  0.4536010000000  0.5001400000000 1.0
C      1  0.4629310000000  0.5319940000000  0.5010100000000 1.0
C      1  0.5452760000000  0.5152550000000  0.5005650000000 1.0
C      1  0.4063170000000  0.4852090000000  0.4941060000000 1.0
C      1  0.5596850000000  0.4263070000000  0.4939810000000 1.0
C      1  0.5337610000000  0.5880680000000  0.4938590000000 1.0
C      1  0.4062840000000  0.5145400000000  0.4940660000000 1.0
C      1  0.5591430000000  0.5734690000000  0.4938450000000 1.0
C      1  0.5343150000000  0.4115870000000  0.4940350000000 1.0
C      1  0.5441890000000  0.4546650000000  0.4531700000000 1.0
C      1  0.5164280000000  0.5590270000000  0.4536380000000 1.0
C      1  0.4401140000000  0.4848880000000  0.4536380000000 1.0
C      1  0.5427230000000  0.5439030000000  0.4536230000000 1.0
C      1  0.5170110000000  0.4406590000000  0.4535950000000 1.0
C      1  0.4385540000000  0.5154240000000  0.4532290000000 1.0
C      1  0.4632700000000  0.4854350000000  0.4762310000000 1.0
C      1  0.5338830000000  0.4739820000000  0.4764990000000 1.0
C      1  0.5043250000000  0.5385850000000  0.4760320000000 1.0
C      1  0.4604530000000  0.5162170000000  0.4765400000000 1.0
C      1  0.5311580000000  0.5231520000000  0.4760170000000 1.0
C      1  0.5058590000000  0.4609390000000  0.4762070000000 1.0
C      1  0.4874940000000  0.5767880000000  0.5101850000000 1.0
C      1  0.4400110000000  0.4511310000000  0.5096720000000 1.0
C      1  0.5735450000000  0.4721760000000  0.5106480000000 1.0
C      1  0.4879290000000  0.4235690000000  0.5096450000000 1.0
C      1  0.4389780000000  0.5495760000000  0.5107230000000 1.0
C      1  0.5726710000000  0.5277960000000  0.5101370000000 1.0
C      1  0.4781450000000  0.5685950000000  0.5377180000000 1.0
C      1  0.4516160000000  0.4468710000000  0.5372970000000 1.0
C      1  0.5708720000000  0.4844830000000  0.5381090000000 1.0
C      1  0.4784360000000  0.4314450000000  0.5372820000000 1.0
C      1  0.4509820000000  0.5534410000000  0.5381760000000 1.0
C      1  0.5703130000000  0.5155830000000  0.5376660000000 1.0
C      1  0.5003290000000  0.4434780000000  0.4303170000000 1.0
C      1  0.5485640000000  0.5285810000000  0.4298910000000 1.0
C      1  0.4501510000000  0.5280610000000  0.4298610000000 1.0
C      1  0.5002270000000  0.5563840000000  0.4299180000000 1.0
C      1  0.5492610000000  0.4710540000000  0.4298050000000 1.0
C      1  0.4509190000000  0.4718980000000  0.4303450000000 1.0
C      1  0.5444440000000  0.4730590000000  0.5467570000000 1.0
C      1  0.5010820000000  0.5514950000000  0.5465650000000 1.0
C      1  0.4548100000000  0.4752210000000  0.5464260000000 1.0
C      1  0.5440070000000  0.5268060000000  0.5465410000000 1.0
C      1  0.5013420000000  0.4484570000000  0.5464000000000 1.0
C      1  0.4544040000000  0.5248480000000  0.5468070000000 1.0
C      1  0.5265580000000  0.5152950000000  0.5690340000000 1.0
C      1  0.4733240000000  0.5152860000000  0.5690910000000 1.0
C      1  0.5001040000000  0.4692990000000  0.5689030000000 1.0
C      1  0.5266840000000  0.4845940000000  0.5690610000000 1.0
C      1  0.4734670000000  0.4846200000000  0.5689180000000 1.0
C      1  0.4999240000000  0.5306150000000  0.5690490000000 1.0
C      1  0.5877990000000  0.4854260000000  0.4623260000000 1.0
C      1  0.4690600000000  0.5833870000000  0.4623220000000 1.0
C      1  0.4429380000000  0.4305540000000  0.4620170000000 1.0
C      1  0.5876040000000  0.5152020000000  0.4622550000000 1.0
C      1  0.4686310000000  0.4157750000000  0.4620030000000 1.0
C      1  0.4432240000000  0.5685840000000  0.4624060000000 1.0
C      1  0.4865310000000  0.5186400000000  0.4645020000000 1.0
C      1  0.4935870000000  0.4888830000000  0.4662710000000 1.0
C      1  0.5228540000000  0.4977470000000  0.4644820000000 1.0
END
