TITL C-20171-7811-3 32.6737005137729 125000 -780.836165366806 0 0 108 (C1) n - 1
REM
REM in /rds/project/t2_vol4/rds-t2-cs072/BORA/CARBON/from-Arr/AIRSS/Generating-Clusters/GAP-ML-2020/Higher-Symm/SD-CG/HFTN-CG
REM
REM
REM
REM
REM
REM ./C.cell (b20cbc046b6831c77cfcea5457e17084)
REM AIRSS Version 0.9.1 bugfix July 2018 build 013d7b7c2542+ Fri, 06 Jul 2018 19:26:36 +0100
REM compiler GCC version 9.3.0
REM options -cpp -mtune=generic -march=x86-64 -g -O0
REM seed -1902875697 1161773750 1793897725 -1495770993 1982953435 410685859 -2057167133 701730550 -1298828659 1526203184 1588352031 -1678736938 -174016773 780575446 2042140233 1910498577 -2005076233 -134598756 744542375 -1765609222 683669760 -1976724763 -624651312 -864039669 -1852962356 -255552155 -1345211015 1595631899 910351466 277932742 1088861438 -1173391281 -1773664553
REM
CELL 1.54180   50.00000   50.00000   50.00000   90.00000   90.00000   90.00000
LATT -1
SFAC C  
C      1  0.5678410000000  0.4635730000000  0.4441250000000 1.0
C      1  0.5020400000000  0.5734710000000  0.4520940000000 1.0
C      1  0.5409650000000  0.4931010000000  0.4752220000000 1.0
C      1  0.4762020000000  0.5704190000000  0.4422580000000 1.0
C      1  0.4321220000000  0.4514410000000  0.5287940000000 1.0
C      1  0.5427010000000  0.4323940000000  0.5479600000000 1.0
C      1  0.5822270000000  0.5098950000000  0.4934980000000 1.0
C      1  0.5083330000000  0.5822480000000  0.4779750000000 1.0
C      1  0.5615000000000  0.4891040000000  0.4300800000000 1.0
C      1  0.4410840000000  0.4860750000000  0.4680810000000 1.0
C      1  0.4756890000000  0.4639410000000  0.5222590000000 1.0
C      1  0.5147500000000  0.4967040000000  0.4646080000000 1.0
C      1  0.4232970000000  0.5350860000000  0.4784590000000 1.0
C      1  0.4303600000000  0.5418760000000  0.4293830000000 1.0
C      1  0.5516650000000  0.5156000000000  0.4911680000000 1.0
C      1  0.5083000000000  0.4113620000000  0.5099510000000 1.0
C      1  0.5399120000000  0.5615620000000  0.5444250000000 1.0
C      1  0.5170220000000  0.4256650000000  0.5560760000000 1.0
C      1  0.4569740000000  0.4354820000000  0.5216710000000 1.0
C      1  0.5297330000000  0.5475760000000  0.5669050000000 1.0
C      1  0.4809920000000  0.5219850000000  0.4760570000000 1.0
C      1  0.4491330000000  0.4394780000000  0.4731570000000 1.0
C      1  0.5165380000000  0.5006040000000  0.5237570000000 1.0
C      1  0.5159370000000  0.4745290000000  0.5060120000000 1.0
C      1  0.4960150000000  0.5250670000000  0.4232030000000 1.0
C      1  0.5347530000000  0.5220810000000  0.5802000000000 1.0
C      1  0.4595830000000  0.5810050000000  0.4870510000000 1.0
C      1  0.4712980000000  0.4937680000000  0.4831780000000 1.0
C      1  0.4727900000000  0.4235410000000  0.5432950000000 1.0
C      1  0.4413540000000  0.5723660000000  0.5069260000000 1.0
C      1  0.5321310000000  0.5210070000000  0.5122990000000 1.0
C      1  0.5849720000000  0.4904680000000  0.5391320000000 1.0
C      1  0.5637220000000  0.5353080000000  0.4495670000000 1.0
C      1  0.4355710000000  0.5500260000000  0.5471780000000 1.0
C      1  0.5519660000000  0.5014480000000  0.5739040000000 1.0
C      1  0.5036480000000  0.4314720000000  0.4402440000000 1.0
C      1  0.5023370000000  0.4589800000000  0.5235640000000 1.0
C      1  0.5068900000000  0.5175690000000  0.5858540000000 1.0
C      1  0.4883460000000  0.4676160000000  0.4168560000000 1.0
C      1  0.4739050000000  0.5302420000000  0.5210740000000 1.0
C      1  0.4291860000000  0.4953910000000  0.5529440000000 1.0
C      1  0.4871590000000  0.5074110000000  0.5273120000000 1.0
C      1  0.5289380000000  0.5586960000000  0.4804950000000 1.0
C      1  0.4872480000000  0.5868450000000  0.4968640000000 1.0
C      1  0.4155730000000  0.4941360000000  0.5062850000000 1.0
C      1  0.4671380000000  0.4884730000000  0.5789570000000 1.0
C      1  0.5351360000000  0.4190290000000  0.5013600000000 1.0
C      1  0.5190880000000  0.5490930000000  0.4535030000000 1.0
C      1  0.5026670000000  0.4442150000000  0.5727030000000 1.0
C      1  0.5189210000000  0.5677210000000  0.5259610000000 1.0
C      1  0.5014460000000  0.5224230000000  0.4554690000000 1.0
C      1  0.5692260000000  0.5577810000000  0.5030080000000 1.0
C      1  0.5179450000000  0.4699290000000  0.4163770000000 1.0
C      1  0.4902970000000  0.4172670000000  0.4886190000000 1.0
C      1  0.5015130000000  0.5441260000000  0.5747640000000 1.0
C      1  0.5262370000000  0.5199350000000  0.4177760000000 1.0
C      1  0.5079730000000  0.4250200000000  0.4670810000000 1.0
C      1  0.5627050000000  0.4541090000000  0.5120850000000 1.0
C      1  0.5716060000000  0.4662890000000  0.5363580000000 1.0
C      1  0.4875770000000  0.5372960000000  0.4986740000000 1.0
C      1  0.5512770000000  0.4290630000000  0.5209930000000 1.0
C      1  0.4169830000000  0.5085440000000  0.5306430000000 1.0
C      1  0.4564130000000  0.4477590000000  0.4461520000000 1.0
C      1  0.4214200000000  0.4658340000000  0.5066440000000 1.0
C      1  0.4945070000000  0.5823440000000  0.5248070000000 1.0
C      1  0.5860950000000  0.4711780000000  0.4629500000000 1.0
C      1  0.4802920000000  0.4440080000000  0.4308990000000 1.0
C      1  0.4204880000000  0.5362140000000  0.5280020000000 1.0
C      1  0.5475390000000  0.4438340000000  0.4485240000000 1.0
C      1  0.4524770000000  0.5374830000000  0.5659560000000 1.0
C      1  0.4544660000000  0.5707010000000  0.4607790000000 1.0
C      1  0.5407220000000  0.4750000000000  0.5737160000000 1.0
C      1  0.5133980000000  0.4697180000000  0.5801860000000 1.0
C      1  0.5542520000000  0.4566030000000  0.5572140000000 1.0
C      1  0.4706840000000  0.5118300000000  0.4135710000000 1.0
C      1  0.4976180000000  0.4798220000000  0.4796180000000 1.0
C      1  0.4479010000000  0.4744720000000  0.4406730000000 1.0
C      1  0.5264370000000  0.4459600000000  0.4300450000000 1.0
C      1  0.4632260000000  0.4256600000000  0.4939100000000 1.0
C      1  0.4749770000000  0.4410120000000  0.5662820000000 1.0
C      1  0.4484650000000  0.5719140000000  0.5341780000000 1.0
C      1  0.5909030000000  0.5115670000000  0.5196760000000 1.0
C      1  0.4654000000000  0.4851530000000  0.4195120000000 1.0
C      1  0.4950780000000  0.4916020000000  0.5851870000000 1.0
C      1  0.4575880000000  0.4629180000000  0.5695140000000 1.0
C      1  0.5362100000000  0.4930640000000  0.4164530000000 1.0
C      1  0.4334750000000  0.5504010000000  0.4558310000000 1.0
C      1  0.5169860000000  0.5456430000000  0.5044180000000 1.0
C      1  0.4695200000000  0.4895800000000  0.5130220000000 1.0
C      1  0.5891020000000  0.4976540000000  0.4684870000000 1.0
C      1  0.5417100000000  0.4663290000000  0.4923350000000 1.0
C      1  0.4352250000000  0.4672540000000  0.5521420000000 1.0
C      1  0.5649610000000  0.5540670000000  0.5299490000000 1.0
C      1  0.5348400000000  0.4367470000000  0.4759230000000 1.0
C      1  0.5753750000000  0.5099160000000  0.4456210000000 1.0
C      1  0.5735430000000  0.5095180000000  0.5576490000000 1.0
C      1  0.4222630000000  0.5063260000000  0.4809720000000 1.0
C      1  0.4990230000000  0.4138550000000  0.5369330000000 1.0
C      1  0.4786480000000  0.5504720000000  0.4222580000000 1.0
C      1  0.4325220000000  0.4607050000000  0.4816770000000 1.0
C      1  0.4770970000000  0.5537640000000  0.5648560000000 1.0
C      1  0.4241790000000  0.5492900000000  0.5028930000000 1.0
C      1  0.4486060000000  0.5089280000000  0.5696900000000 1.0
C      1  0.5397510000000  0.5386240000000  0.4348640000000 1.0
C      1  0.5793150000000  0.5310790000000  0.5385740000000 1.0
C      1  0.4747050000000  0.5743880000000  0.5439330000000 1.0
C      1  0.5577150000000  0.5466020000000  0.4795700000000 1.0
C      1  0.4544470000000  0.5352760000000  0.4182260000000 1.0
END
