TITL C-20166-8807-6 -0.00849836888753489 125000 -316.996795795885 0 0 47 (C1) n - 1
REM
REM in /rds/project/t2_vol4/rds-t2-cs072/BORA/CARBON/from-Arr/AIRSS/Generating-Clusters/GAP-ML-2020/Higher-Symm/SD-CG/HFTN-CG
REM
REM
REM
REM
REM
REM ./C.cell (b20cbc046b6831c77cfcea5457e17084)
REM AIRSS Version 0.9.1 bugfix July 2018 build 013d7b7c2542+ Fri, 06 Jul 2018 19:26:36 +0100
REM compiler GCC version 9.3.0
REM options -cpp -mtune=generic -march=x86-64 -g -O0
REM seed 1893243696 -950729223 1737147148 -2126951516 15331494 -794979269 427132405 -725736703 -984849045 -1073051650 -1502481187 1836071880 -221178187 -1377598505 32455156 754500032 834669499 -1113032427 888276178 -1130219656 -131006632 -2068676092 2002410489 1358185669 1410730116 150690052 -1363023646 2050666585 515146753 -1985258598 -1817296503 17271749 1247845878
REM
CELL 1.54180   50.00000   50.00000   50.00000   90.00000   90.00000   90.00000
LATT -1
SFAC C  
C      1  0.4738140000000  0.5120150000000  0.4360780000000 1.0
C      1  0.4700310000000  0.4429570000000  0.4661550000000 1.0
C      1  0.4789960000000  0.4532480000000  0.5392540000000 1.0
C      1  0.4791680000000  0.5269610000000  0.5537410000000 1.0
C      1  0.4773440000000  0.5616450000000  0.4925670000000 1.0
C      1  0.5222890000000  0.4827620000000  0.5142180000000 1.0
C      1  0.5316490000000  0.5101950000000  0.5085660000000 1.0
C      1  0.5210580000000  0.5177460000000  0.4821750000000 1.0
C      1  0.5139890000000  0.4923890000000  0.4695550000000 1.0
C      1  0.5146010000000  0.4717690000000  0.4886780000000 1.0
C      1  0.4736640000000  0.4837800000000  0.4415410000000 1.0
C      1  0.4763610000000  0.4403880000000  0.4940900000000 1.0
C      1  0.4866230000000  0.4787680000000  0.5494790000000 1.0
C      1  0.4738190000000  0.5505060000000  0.5378750000000 1.0
C      1  0.4812640000000  0.5466000000000  0.4684120000000 1.0
C      1  0.5463410000000  0.5368580000000  0.4322440000000 1.0
C      1  0.5270450000000  0.4412530000000  0.4172240000000 1.0
C      1  0.5197550000000  0.4004670000000  0.5143140000000 1.0
C      1  0.5455740000000  0.5153760000000  0.5849260000000 1.0
C      1  0.5391340000000  0.5886920000000  0.5270160000000 1.0
C      1  0.5148650000000  0.4714550000000  0.5405360000000 1.0
C      1  0.5005970000000  0.5605720000000  0.5433330000000 1.0
C      1  0.5104990000000  0.5441400000000  0.4754550000000 1.0
C      1  0.5035220000000  0.4865090000000  0.4428950000000 1.0
C      1  0.5045610000000  0.4446510000000  0.4851190000000 1.0
C      1  0.4496890000000  0.5239120000000  0.5067710000000 1.0
C      1  0.4493830000000  0.5139760000000  0.4797400000000 1.0
C      1  0.4477620000000  0.4854330000000  0.4809150000000 1.0
C      1  0.4495780000000  0.4777590000000  0.5085000000000 1.0
C      1  0.4513960000000  0.5014160000000  0.5245140000000 1.0
C      1  0.5258320000000  0.5288010000000  0.5767210000000 1.0
C      1  0.5172210000000  0.5740720000000  0.5222460000000 1.0
C      1  0.5261250000000  0.5232250000000  0.4244070000000 1.0
C      1  0.5124570000000  0.4310360000000  0.4361290000000 1.0
C      1  0.5161710000000  0.4177930000000  0.5330900000000 1.0
C      1  0.4631280000000  0.4535160000000  0.5153170000000 1.0
C      1  0.4698780000000  0.5015570000000  0.5468820000000 1.0
C      1  0.4612500000000  0.5492950000000  0.5130050000000 1.0
C      1  0.4641580000000  0.5271030000000  0.4584930000000 1.0
C      1  0.4592200000000  0.4689660000000  0.4602840000000 1.0
C      1  0.5024480000000  0.5119330000000  0.4287080000000 1.0
C      1  0.4972750000000  0.4372340000000  0.4573400000000 1.0
C      1  0.5067980000000  0.4427030000000  0.5386920000000 1.0
C      1  0.5050700000000  0.5383730000000  0.5619690000000 1.0
C      1  0.5058210000000  0.5648440000000  0.4965890000000 1.0
C      1  0.5508370000000  0.5209470000000  0.5254570000000 1.0
C      1  0.5706770000000  0.5236390000000  0.5410840000000 1.0
END
