TITL C-205061-6053-2 7.08787631346335 125000 -133.334288544877 0 0 21 (C1) n - 1
REM
REM in /rds/project/t2_vol4/rds-t2-cs072/BORA/CARBON/from-Arr/AIRSS/Generating-Clusters/GAP-ML-2020/Higher-Symm/SD-CG/HFTN-CG
REM
REM
REM
REM
REM
REM ./C.cell (b20cbc046b6831c77cfcea5457e17084)
REM AIRSS Version 0.9.1 bugfix July 2018 build 013d7b7c2542+ Fri, 06 Jul 2018 19:26:36 +0100
REM compiler GCC version 9.3.0
REM options -cpp -mtune=generic -march=x86-64 -g -O0
REM seed 212971170 132892435 -1184949301 1394508642 -1731443564 -192091452 -686493167 266940345 1534785858 -1014813920 -2136454392 476398948 1203146970 1253524562 -1402019635 -2075239229 -1814797339 -1239519598 1923796584 -1470871485 -496289002 -1304755211 -416912713 -1466281928 1630108395 -295292102 -119805148 -1202141241 -517882093 -605592974 -126587127 -2017117339 -1069211048
REM
CELL 1.54180   50.00000   50.00000   50.00000   90.00000   90.00000   90.00000
LATT -1
SFAC C  
C      1  0.4666680000000  0.4389340000000  0.4963420000000 1.0
C      1  0.5322090000000  0.5345320000000  0.4706320000000 1.0
C      1  0.4869700000000  0.4739860000000  0.5304710000000 1.0
C      1  0.5125670000000  0.5387320000000  0.5153740000000 1.0
C      1  0.4406690000000  0.4668400000000  0.4641460000000 1.0
C      1  0.4736430000000  0.5017960000000  0.4482770000000 1.0
C      1  0.5055440000000  0.5391860000000  0.4626390000000 1.0
C      1  0.5366660000000  0.4699040000000  0.5405430000000 1.0
C      1  0.4952770000000  0.5602060000000  0.4784430000000 1.0
C      1  0.5098170000000  0.5065140000000  0.5542180000000 1.0
C      1  0.5118200000000  0.4794610000000  0.5463030000000 1.0
C      1  0.4779560000000  0.4534670000000  0.5165320000000 1.0
C      1  0.4821170000000  0.5001410000000  0.5224320000000 1.0
C      1  0.4610230000000  0.4796460000000  0.4553250000000 1.0
C      1  0.5467440000000  0.5050820000000  0.5078060000000 1.0
C      1  0.5482970000000  0.4839940000000  0.5212170000000 1.0
C      1  0.4892700000000  0.5209340000000  0.4494760000000 1.0
C      1  0.4995790000000  0.5200980000000  0.5322760000000 1.0
C      1  0.4912530000000  0.4399510000000  0.4856790000000 1.0
C      1  0.4983630000000  0.5595930000000  0.5037390000000 1.0
C      1  0.5335500000000  0.5270040000000  0.4981300000000 1.0
END
