TITL C-205054-4015-4 -0.0598317317427502 125000 -102.835738755907 0 0 16 (C2) n - 1
REM
REM in /rds/project/t2_vol4/rds-t2-cs072/BORA/CARBON/from-Arr/AIRSS/Generating-Clusters/GAP-ML-2020/Higher-Symm/SD-CG/HFTN-CG
REM
REM
REM
REM
REM
REM ./C.cell (b20cbc046b6831c77cfcea5457e17084)
REM AIRSS Version 0.9.1 bugfix July 2018 build 013d7b7c2542+ Fri, 06 Jul 2018 19:26:36 +0100
REM compiler GCC version 9.3.0
REM options -cpp -mtune=generic -march=x86-64 -g -O0
REM seed -901306425 -619164260 1458807083 956319281 -1289107272 1534295780 -596591079 1835568672 -1127181469 272838624 361356832 -128155116 -986425434 713326940 -1058481255 -467250424 2027235106 -1685520420 -30419075 -451817680 -2019809203 2090681460 1560650489 -1412507875 -446667845 -977909837 276854430 -984217171 -2045989768 840868262 -1712363402 -452752073 1395821883
REM
CELL 1.54180   50.00000   50.00000   50.00000   90.00000   90.00000   90.00000
LATT -1
SFAC C  
C      1  0.4994200000000  0.5309520000000  0.5495210000000 1.0
C      1  0.5005860000000  0.5312120000000  0.4506420000000 1.0
C      1  0.4846110000000  0.4627440000000  0.4717500000000 1.0
C      1  0.5153810000000  0.4625930000000  0.5280540000000 1.0
C      1  0.5066290000000  0.4827610000000  0.5405680000000 1.0
C      1  0.4933670000000  0.4829760000000  0.4593420000000 1.0
C      1  0.5021460000000  0.5053590000000  0.5523560000000 1.0
C      1  0.4978550000000  0.5056350000000  0.4476730000000 1.0
C      1  0.5329070000000  0.4590710000000  0.4977830000000 1.0
C      1  0.4670850000000  0.4590670000000  0.5020010000000 1.0
C      1  0.4782450000000  0.4406760000000  0.4862530000000 1.0
C      1  0.5217430000000  0.4406000000000  0.5134340000000 1.0
C      1  0.4986230000000  0.5523240000000  0.5352360000000 1.0
C      1  0.5013880000000  0.5525090000000  0.4650390000000 1.0
C      1  0.4992280000000  0.5657280000000  0.5130950000000 1.0
C      1  0.5007850000000  0.5657950000000  0.4872510000000 1.0
END
