TITL C-207204-9068-6 -0.109424617318764 125000 -814.891091995296 0 0 120 (C2h) n - 1
REM
REM in /rds/project/t2_vol4/rds-t2-cs072/BORA/CARBON/from-Arr/AIRSS/Generating-Clusters/GAP-ML-2020/Higher-Symm/SD-CG/HFTN-CG
REM
REM
REM
REM
REM
REM ./C.cell (b20cbc046b6831c77cfcea5457e17084)
REM AIRSS Version 0.9.1 bugfix July 2018 build 013d7b7c2542+ Fri, 06 Jul 2018 19:26:36 +0100
REM compiler GCC version 9.3.0
REM options -cpp -mtune=generic -march=x86-64 -g -O0
REM seed -276669218 1638466380 -447130411 1730529216 1928535706 -1640501977 642700917 -1003977732 518754184 -995802660 954746515 -426377354 -1353807025 -1475538969 2501089 1207640097 75295522 -382177392 1084030966 -976844489 -363138600 432329498 -312219490 -119774352 1721597013 -1625170324 -1523762025 -1587035789 -97694621 -1207939599 -1242038985 -1036426111 -1562812044
REM
CELL 1.54180   50.00000   50.00000   50.00000   90.00000   90.00000   90.00000
LATT -1
SFAC C  
C      1  0.5121560000000  0.4851750000000  0.4107050000000 1.0
C      1  0.4878370000000  0.4851410000000  0.5892890000000 1.0
C      1  0.5121630000000  0.5148590000000  0.4107110000000 1.0
C      1  0.4878440000000  0.5148250000000  0.5892950000000 1.0
C      1  0.5133440000000  0.4863930000000  0.6007570000000 1.0
C      1  0.4866500000000  0.4864430000000  0.3992370000000 1.0
C      1  0.5133500000000  0.5135570000000  0.6007630000000 1.0
C      1  0.4866560000000  0.5136070000000  0.3992430000000 1.0
C      1  0.4425420000000  0.4317750000000  0.5281200000000 1.0
C      1  0.5574260000000  0.4317610000000  0.4718500000000 1.0
C      1  0.4425740000000  0.5682390000000  0.5281500000000 1.0
C      1  0.5574580000000  0.5682250000000  0.4718800000000 1.0
C      1  0.4398570000000  0.4289980000000  0.4678780000000 1.0
C      1  0.5601100000000  0.4289560000000  0.5320900000000 1.0
C      1  0.4398900000000  0.5710440000000  0.4679100000000 1.0
C      1  0.5601430000000  0.5710020000000  0.5321220000000 1.0
C      1  0.5400760000000  0.5842550000000  0.5162930000000 1.0
C      1  0.4599630000000  0.5842810000000  0.4837450000000 1.0
C      1  0.5400370000000  0.4157190000000  0.5162550000000 1.0
C      1  0.4599240000000  0.4157450000000  0.4837070000000 1.0
C      1  0.5363490000000  0.5802160000000  0.4878810000000 1.0
C      1  0.4636890000000  0.5802270000000  0.5121540000000 1.0
C      1  0.5363110000000  0.4197730000000  0.4878460000000 1.0
C      1  0.4636510000000  0.4197840000000  0.5121190000000 1.0
C      1  0.5930410000000  0.5148040000000  0.5383210000000 1.0
C      1  0.4069660000000  0.5148640000000  0.4616860000000 1.0
C      1  0.5930340000000  0.4851360000000  0.5383140000000 1.0
C      1  0.4069590000000  0.4851960000000  0.4616790000000 1.0
C      1  0.5796900000000  0.5152270000000  0.4723750000000 1.0
C      1  0.4203170000000  0.5152520000000  0.5276310000000 1.0
C      1  0.5796830000000  0.4847480000000  0.4723690000000 1.0
C      1  0.4203100000000  0.4847730000000  0.5276250000000 1.0
C      1  0.5711400000000  0.4619310000000  0.4324380000000 1.0
C      1  0.4288430000000  0.4619340000000  0.5675450000000 1.0
C      1  0.5711570000000  0.5380660000000  0.4324550000000 1.0
C      1  0.4288600000000  0.5380690000000  0.5675620000000 1.0
C      1  0.5484510000000  0.4683720000000  0.5641960000000 1.0
C      1  0.4515340000000  0.4684220000000  0.4357900000000 1.0
C      1  0.5484660000000  0.5315780000000  0.5642100000000 1.0
C      1  0.4515490000000  0.5316280000000  0.4358040000000 1.0
C      1  0.4998520000000  0.4363100000000  0.4315440000000 1.0
C      1  0.5001180000000  0.4362800000000  0.5684280000000 1.0
C      1  0.4998820000000  0.5637200000000  0.4315720000000 1.0
C      1  0.5001480000000  0.5636900000000  0.5684560000000 1.0
C      1  0.5220100000000  0.4264490000000  0.5577700000000 1.0
C      1  0.4779560000000  0.4264850000000  0.4421970000000 1.0
C      1  0.5220440000000  0.5735150000000  0.5578030000000 1.0
C      1  0.4779900000000  0.5735510000000  0.4422300000000 1.0
C      1  0.5447510000000  0.5142210000000  0.5070480000000 1.0
C      1  0.4552550000000  0.5142440000000  0.4929590000000 1.0
C      1  0.5447450000000  0.4857560000000  0.5070410000000 1.0
C      1  0.4552490000000  0.4857790000000  0.4929520000000 1.0
C      1  0.5476490000000  0.5152340000000  0.4763380000000 1.0
C      1  0.4523580000000  0.5152460000000  0.5236690000000 1.0
C      1  0.5476420000000  0.4847540000000  0.4763310000000 1.0
C      1  0.4523510000000  0.4847660000000  0.5236620000000 1.0
C      1  0.5956930000000  0.5347150000000  0.5174450000000 1.0
C      1  0.4043230000000  0.5347670000000  0.4825700000000 1.0
C      1  0.5956770000000  0.4652330000000  0.5174300000000 1.0
C      1  0.4043070000000  0.4652850000000  0.4825550000000 1.0
C      1  0.5943510000000  0.5351390000000  0.4878880000000 1.0
C      1  0.4056650000000  0.5351770000000  0.5121280000000 1.0
C      1  0.5943350000000  0.4648230000000  0.4878720000000 1.0
C      1  0.4056490000000  0.4648610000000  0.5121120000000 1.0
C      1  0.5478440000000  0.4403590000000  0.5557990000000 1.0
C      1  0.4521290000000  0.4404060000000  0.4441750000000 1.0
C      1  0.5478710000000  0.5595940000000  0.5558250000000 1.0
C      1  0.4521560000000  0.5596410000000  0.4442010000000 1.0
C      1  0.5522430000000  0.4483370000000  0.4481430000000 1.0
C      1  0.4477330000000  0.4483380000000  0.5518340000000 1.0
C      1  0.5522670000000  0.5516620000000  0.4481660000000 1.0
C      1  0.4477570000000  0.5516630000000  0.5518570000000 1.0
C      1  0.4203450000000  0.5606270000000  0.5123410000000 1.0
C      1  0.5796830000000  0.5605950000000  0.4876860000000 1.0
C      1  0.4203170000000  0.4394050000000  0.5123140000000 1.0
C      1  0.5796550000000  0.4393730000000  0.4876590000000 1.0
C      1  0.4191270000000  0.5600220000000  0.4830940000000 1.0
C      1  0.5809010000000  0.5599770000000  0.5169330000000 1.0
C      1  0.4190990000000  0.4400230000000  0.4830670000000 1.0
C      1  0.5808730000000  0.4399780000000  0.5169060000000 1.0
C      1  0.5812240000000  0.4851020000000  0.4417730000000 1.0
C      1  0.4187690000000  0.4851140000000  0.5582200000000 1.0
C      1  0.5812310000000  0.5148860000000  0.4417800000000 1.0
C      1  0.4187760000000  0.5148980000000  0.5582270000000 1.0
C      1  0.5708540000000  0.4853350000000  0.5586140000000 1.0
C      1  0.4291390000000  0.4853940000000  0.4413800000000 1.0
C      1  0.5708610000000  0.5146060000000  0.5586200000000 1.0
C      1  0.4291460000000  0.5146650000000  0.4413860000000 1.0
C      1  0.5263710000000  0.5250550000000  0.5248070000000 1.0
C      1  0.4736410000000  0.5250790000000  0.4752040000000 1.0
C      1  0.5263590000000  0.4749210000000  0.5247960000000 1.0
C      1  0.4736290000000  0.4749450000000  0.4751930000000 1.0
C      1  0.5292850000000  0.5335690000000  0.4572370000000 1.0
C      1  0.4707300000000  0.5335630000000  0.5427780000000 1.0
C      1  0.5292700000000  0.4664370000000  0.4572220000000 1.0
C      1  0.4707150000000  0.4664310000000  0.5427630000000 1.0
C      1  0.5128510000000  0.4512310000000  0.4750600000000 1.0
C      1  0.4871270000000  0.4512260000000  0.5249190000000 1.0
C      1  0.5128730000000  0.5487740000000  0.4750810000000 1.0
C      1  0.4871490000000  0.5487690000000  0.5249400000000 1.0
C      1  0.5024080000000  0.4713420000000  0.5133490000000 1.0
C      1  0.4975790000000  0.4713490000000  0.4866380000000 1.0
C      1  0.5024210000000  0.5286510000000  0.5133620000000 1.0
C      1  0.4975920000000  0.5286580000000  0.4866510000000 1.0
C      1  0.4907010000000  0.5165330000000  0.5598590000000 1.0
C      1  0.5093070000000  0.5165560000000  0.4401490000000 1.0
C      1  0.4906930000000  0.4834440000000  0.5598510000000 1.0
C      1  0.5092990000000  0.4834670000000  0.4401410000000 1.0
C      1  0.4769450000000  0.5159850000000  0.4459210000000 1.0
C      1  0.5230620000000  0.5159500000000  0.5540860000000 1.0
C      1  0.4769380000000  0.4840500000000  0.4459140000000 1.0
C      1  0.5230550000000  0.4840150000000  0.5540790000000 1.0
C      1  0.4933340000000  0.5766740000000  0.5155370000000 1.0
C      1  0.5067020000000  0.5766780000000  0.4844970000000 1.0
C      1  0.4932980000000  0.4233220000000  0.5155030000000 1.0
C      1  0.5066660000000  0.4233260000000  0.4844630000000 1.0
C      1  0.4836690000000  0.5864610000000  0.4685610000000 1.0
C      1  0.5163710000000  0.5864400000000  0.5314780000000 1.0
C      1  0.4836290000000  0.4135600000000  0.4685220000000 1.0
C      1  0.5163310000000  0.4135390000000  0.5314390000000 1.0
END
