TITL C-207189-9157-4 0.0328235846260344 125000 -179.654948894145 0 0 27 (C3v) n - 1
REM
REM in /rds/project/t2_vol4/rds-t2-cs072/BORA/CARBON/from-Arr/AIRSS/Generating-Clusters/GAP-ML-2020/Higher-Symm/SD-CG/HFTN-CG
REM
REM
REM
REM
REM
REM ./C.cell (b20cbc046b6831c77cfcea5457e17084)
REM AIRSS Version 0.9.1 bugfix July 2018 build 013d7b7c2542+ Fri, 06 Jul 2018 19:26:36 +0100
REM compiler GCC version 9.3.0
REM options -cpp -mtune=generic -march=x86-64 -g -O0
REM seed 1369043876 1099634714 -649287062 1177743264 505626365 -150720066 2099358270 -104786513 1072888455 -485855908 -1355247685 -1609055717 -1902748541 1023978206 -336581988 1250394918 -1838265350 -261295412 -2010285423 1533610067 -878474295 361000755 329401048 1683159167 -2117985363 522943669 -1804904201 -1697599787 -1783461494 213144842 812210737 -509261641 -443720446
REM
CELL 1.54180   50.00000   50.00000   50.00000   90.00000   90.00000   90.00000
LATT -1
SFAC C  
C      1  0.4696180000000  0.4691350000000  0.5226590000000 1.0
C      1  0.4736400000000  0.4918740000000  0.5403510000000 1.0
C      1  0.4855060000000  0.5175750000000  0.5370690000000 1.0
C      1  0.4804690000000  0.5399910000000  0.5202070000000 1.0
C      1  0.4802230000000  0.5438590000000  0.4913770000000 1.0
C      1  0.4849280000000  0.5266910000000  0.4691210000000 1.0
C      1  0.4729510000000  0.5027370000000  0.4593810000000 1.0
C      1  0.4691750000000  0.4761310000000  0.4705190000000 1.0
C      1  0.4760280000000  0.4639860000000  0.4953720000000 1.0
C      1  0.5256080000000  0.5381620000000  0.5293430000000 1.0
C      1  0.5391200000000  0.5398540000000  0.5050140000000 1.0
C      1  0.5252000000000  0.5446040000000  0.4813290000000 1.0
C      1  0.5177370000000  0.5024050000000  0.4484950000000 1.0
C      1  0.5281690000000  0.4779310000000  0.4568340000000 1.0
C      1  0.5114480000000  0.4580950000000  0.4670450000000 1.0
C      1  0.5119030000000  0.4509170000000  0.5205490000000 1.0
C      1  0.5288360000000  0.4673980000000  0.5353470000000 1.0
C      1  0.5186010000000  0.4887850000000  0.5500140000000 1.0
C      1  0.5126340000000  0.5269640000000  0.4624730000000 1.0
C      1  0.4923560000000  0.4916960000000  0.4410320000000 1.0
C      1  0.4887240000000  0.4661020000000  0.4517460000000 1.0
C      1  0.5020750000000  0.4525670000000  0.4936190000000 1.0
C      1  0.4894560000000  0.4545580000000  0.5377950000000 1.0
C      1  0.4933240000000  0.4764310000000  0.5548140000000 1.0
C      1  0.5133190000000  0.5161490000000  0.5430900000000 1.0
C      1  0.5045940000000  0.5558410000000  0.5215700000000 1.0
C      1  0.5043580000000  0.5595620000000  0.4938370000000 1.0
END
