TITL C-205066-6746-8 20.3646643731418 125000 -632.245875462284 0 0 93 (C1) n - 1
REM
REM in /rds/project/t2_vol4/rds-t2-cs072/BORA/CARBON/from-Arr/AIRSS/Generating-Clusters/GAP-ML-2020/Higher-Symm/SD-CG/HFTN-CG
REM
REM
REM
REM
REM
REM ./C.cell (b20cbc046b6831c77cfcea5457e17084)
REM AIRSS Version 0.9.1 bugfix July 2018 build 013d7b7c2542+ Fri, 06 Jul 2018 19:26:36 +0100
REM compiler GCC version 9.3.0
REM options -cpp -mtune=generic -march=x86-64 -g -O0
REM seed -1004832508 347001238 1552285647 -919910601 -1514477040 -152894795 -1594054727 -600229584 444442750 -856022100 723656631 2017654389 201955107 -91919649 503814331 282494861 598086110 -1194894466 982672264 1303753751 -1391783624 -108827410 463913027 -650524020 1118729685 -769578625 -418439510 -1072197093 1084322439 -1735207972 1653422253 -845015694 1328080192
REM
CELL 1.54180   50.00000   50.00000   50.00000   90.00000   90.00000   90.00000
LATT -1
SFAC C  
C      1  0.4952520000000  0.4270850000000  0.4446730000000 1.0
C      1  0.4995600000000  0.4286310000000  0.5623120000000 1.0
C      1  0.4790420000000  0.4703920000000  0.4598500000000 1.0
C      1  0.4836210000000  0.4690870000000  0.5406320000000 1.0
C      1  0.5026090000000  0.5067660000000  0.4768820000000 1.0
C      1  0.5017540000000  0.5065200000000  0.5206270000000 1.0
C      1  0.4624550000000  0.4882140000000  0.5484740000000 1.0
C      1  0.4597850000000  0.4857140000000  0.4430210000000 1.0
C      1  0.5440270000000  0.5382450000000  0.5574210000000 1.0
C      1  0.5407770000000  0.5401240000000  0.4466390000000 1.0
C      1  0.4335590000000  0.4389520000000  0.5243800000000 1.0
C      1  0.4305050000000  0.4376200000000  0.4823830000000 1.0
C      1  0.4486740000000  0.5316750000000  0.4454880000000 1.0
C      1  0.4504560000000  0.5337990000000  0.5511700000000 1.0
C      1  0.5241050000000  0.4313220000000  0.5548950000000 1.0
C      1  0.5202540000000  0.4315720000000  0.4480540000000 1.0
C      1  0.5558370000000  0.4975060000000  0.4760950000000 1.0
C      1  0.5537670000000  0.4977110000000  0.5275040000000 1.0
C      1  0.5084180000000  0.4847000000000  0.4584800000000 1.0
C      1  0.5098880000000  0.4855980000000  0.5406580000000 1.0
C      1  0.4304730000000  0.5149150000000  0.4613640000000 1.0
C      1  0.4317820000000  0.5194780000000  0.5351390000000 1.0
C      1  0.4409190000000  0.4930100000000  0.5316700000000 1.0
C      1  0.4350450000000  0.4884760000000  0.4539520000000 1.0
C      1  0.5103420000000  0.4999950000000  0.5682960000000 1.0
C      1  0.5101340000000  0.4992990000000  0.4305560000000 1.0
C      1  0.4644660000000  0.5666310000000  0.5192780000000 1.0
C      1  0.4625970000000  0.5660090000000  0.4775290000000 1.0
C      1  0.5349380000000  0.4731070000000  0.4719960000000 1.0
C      1  0.5364320000000  0.4733300000000  0.5286290000000 1.0
C      1  0.5439280000000  0.4443460000000  0.5400580000000 1.0
C      1  0.5412420000000  0.4439910000000  0.4610670000000 1.0
C      1  0.4921230000000  0.5223170000000  0.5667730000000 1.0
C      1  0.4907750000000  0.5211580000000  0.4310810000000 1.0
C      1  0.4504400000000  0.4395550000000  0.5448230000000 1.0
C      1  0.4464210000000  0.4379120000000  0.4610430000000 1.0
C      1  0.5291870000000  0.4997530000000  0.5893960000000 1.0
C      1  0.5310910000000  0.5006500000000  0.4114230000000 1.0
C      1  0.5180600000000  0.5563240000000  0.4526230000000 1.0
C      1  0.5227880000000  0.5535680000000  0.5464190000000 1.0
C      1  0.5307300000000  0.5604600000000  0.5177190000000 1.0
C      1  0.5169110000000  0.5681030000000  0.4780930000000 1.0
C      1  0.5584170000000  0.5145100000000  0.5496580000000 1.0
C      1  0.5559950000000  0.5182340000000  0.4546840000000 1.0
C      1  0.4654450000000  0.5544460000000  0.4521020000000 1.0
C      1  0.4688970000000  0.5562980000000  0.5452850000000 1.0
C      1  0.5430170000000  0.5171870000000  0.4294890000000 1.0
C      1  0.5455060000000  0.5156540000000  0.5746870000000 1.0
C      1  0.4764540000000  0.4428870000000  0.5544860000000 1.0
C      1  0.4725860000000  0.4414450000000  0.4527950000000 1.0
C      1  0.5588740000000  0.4290130000000  0.5207890000000 1.0
C      1  0.5564540000000  0.4279950000000  0.4797690000000 1.0
C      1  0.4647410000000  0.5122040000000  0.4331440000000 1.0
C      1  0.4665820000000  0.5129800000000  0.5616430000000 1.0
C      1  0.4925920000000  0.5473150000000  0.4429080000000 1.0
C      1  0.4955850000000  0.5484030000000  0.5549540000000 1.0
C      1  0.5181250000000  0.5188170000000  0.4990760000000 1.0
C      1  0.3958670000000  0.4757270000000  0.5062160000000 1.0
C      1  0.5882240000000  0.4641880000000  0.4948460000000 1.0
C      1  0.4214740000000  0.4599870000000  0.5027610000000 1.0
C      1  0.5278650000000  0.5849800000000  0.4983010000000 1.0
C      1  0.5287350000000  0.3903210000000  0.5026990000000 1.0
C      1  0.5841810000000  0.4890760000000  0.4842560000000 1.0
C      1  0.5814680000000  0.5538070000000  0.5098790000000 1.0
C      1  0.4636550000000  0.5223330000000  0.4980130000000 1.0
C      1  0.4781890000000  0.5488460000000  0.4988580000000 1.0
C      1  0.4352810000000  0.5131300000000  0.4909170000000 1.0
C      1  0.5549490000000  0.6178650000000  0.5150050000000 1.0
C      1  0.5277910000000  0.4634000000000  0.5003280000000 1.0
C      1  0.4558710000000  0.3992580000000  0.5036260000000 1.0
C      1  0.5827370000000  0.5804670000000  0.5168620000000 1.0
C      1  0.5334880000000  0.6112770000000  0.5019590000000 1.0
C      1  0.4165210000000  0.5750440000000  0.5013110000000 1.0
C      1  0.4400410000000  0.4829650000000  0.5025760000000 1.0
C      1  0.4051960000000  0.5526190000000  0.5059680000000 1.0
C      1  0.4816960000000  0.5011700000000  0.4975510000000 1.0
C      1  0.5734270000000  0.4430800000000  0.4990170000000 1.0
C      1  0.4786310000000  0.3888590000000  0.5031440000000 1.0
C      1  0.5776130000000  0.6045700000000  0.5213540000000 1.0
C      1  0.4142830000000  0.5247610000000  0.5113340000000 1.0
C      1  0.5958700000000  0.5121300000000  0.4943130000000 1.0
C      1  0.4375330000000  0.4189990000000  0.5034340000000 1.0
C      1  0.4826750000000  0.4562360000000  0.5102940000000 1.0
C      1  0.5043690000000  0.3841530000000  0.5030480000000 1.0
C      1  0.5548910000000  0.5444610000000  0.5077630000000 1.0
C      1  0.5067130000000  0.4457250000000  0.5024340000000 1.0
C      1  0.6023310000000  0.5346970000000  0.5028250000000 1.0
C      1  0.4455050000000  0.5750590000000  0.4990720000000 1.0
C      1  0.5086760000000  0.5476230000000  0.4984270000000 1.0
C      1  0.4687520000000  0.4746520000000  0.4922160000000 1.0
C      1  0.5473040000000  0.4099990000000  0.5013180000000 1.0
C      1  0.3962460000000  0.5004460000000  0.5107660000000 1.0
C      1  0.5476500000000  0.5149760000000  0.5028710000000 1.0
END
