TITL C-207214-309-4 -126.24237599425 125000 -186.945675054225 0 0 29 (C1) n - 1
REM
REM in /rds/project/t2_vol4/rds-t2-cs072/BORA/CARBON/from-Arr/AIRSS/Generating-Clusters/GAP-ML-2020/Higher-Symm/SD-CG/HFTN-CG
REM
REM
REM
REM
REM
REM ./C.cell (b20cbc046b6831c77cfcea5457e17084)
REM AIRSS Version 0.9.1 bugfix July 2018 build 013d7b7c2542+ Fri, 06 Jul 2018 19:26:36 +0100
REM compiler GCC version 9.3.0
REM options -cpp -mtune=generic -march=x86-64 -g -O0
REM seed 730595928 54835767 -1837937610 -1680460084 -544439788 1169840020 1568233226 -569582723 1918560133 -1768539421 -1338602921 978467677 449559198 -559489641 -318500845 1754091928 704706159 572370363 -1626199301 2013051052 -1313053190 1728383216 1760409494 2071163909 -1488135744 -1707544787 249510708 710540924 -792828962 1242435157 -862223173 7898039 -1009140595
REM
CELL 1.54180   50.00000   50.00000   50.00000   90.00000   90.00000   90.00000
LATT -1
SFAC C  
C      1  0.5724450000000  0.5221520000000  0.4771370000000 1.0
C      1  0.5742310000000  0.5187460000000  0.5034430000000 1.0
C      1  0.5311630000000  0.5249840000000  0.5625790000000 1.0
C      1  0.5089890000000  0.5320050000000  0.5748370000000 1.0
C      1  0.4848560000000  0.5258290000000  0.5630110000000 1.0
C      1  0.4622570000000  0.5365530000000  0.5497620000000 1.0
C      1  0.4387680000000  0.5343470000000  0.4835850000000 1.0
C      1  0.4426210000000  0.5418620000000  0.4590750000000 1.0
C      1  0.4646470000000  0.5284440000000  0.4487660000000 1.0
C      1  0.4901400000000  0.5314210000000  0.4368320000000 1.0
C      1  0.5592810000000  0.5162920000000  0.4553440000000 1.0
C      1  0.4644460000000  0.4943660000000  0.4839230000000 1.0
C      1  0.4765550000000  0.5031240000000  0.4594920000000 1.0
C      1  0.5044140000000  0.5119670000000  0.4515570000000 1.0
C      1  0.5319160000000  0.5097770000000  0.4630200000000 1.0
C      1  0.5300250000000  0.5054800000000  0.4910950000000 1.0
C      1  0.5487080000000  0.5119570000000  0.5128680000000 1.0
C      1  0.5327920000000  0.5119880000000  0.5382030000000 1.0
C      1  0.5077050000000  0.5028260000000  0.5292920000000 1.0
C      1  0.4824860000000  0.5044360000000  0.5418560000000 1.0
C      1  0.4607260000000  0.5188390000000  0.5273560000000 1.0
C      1  0.4512850000000  0.5158210000000  0.5001860000000 1.0
C      1  0.4934620000000  0.5327720000000  0.4943340000000 1.0
C      1  0.5039220000000  0.5063880000000  0.5015340000000 1.0
C      1  0.4862380000000  0.4816400000000  0.4956460000000 1.0
C      1  0.4981380000000  0.4305170000000  0.4986980000000 1.0
C      1  0.5025870000000  0.5826870000000  0.4977030000000 1.0
C      1  0.5050770000000  0.5568760000000  0.4977210000000 1.0
C      1  0.4941320000000  0.4559970000000  0.4976530000000 1.0
END
