TITL C-207217-9066-7 0.0123873812059838 125000 -1077.49608031997 0 0 158 (C1) n - 1
REM
REM in /rds/project/t2_vol4/rds-t2-cs072/BORA/CARBON/from-Arr/AIRSS/Generating-Clusters/GAP-ML-2020/Higher-Symm/SD-CG/HFTN-CG
REM
REM
REM
REM
REM
REM ./C.cell (b20cbc046b6831c77cfcea5457e17084)
REM AIRSS Version 0.9.1 bugfix July 2018 build 013d7b7c2542+ Fri, 06 Jul 2018 19:26:36 +0100
REM compiler GCC version 9.3.0
REM options -cpp -mtune=generic -march=x86-64 -g -O0
REM seed -1452136322 -1458118289 -535532743 -1793990221 -1697069097 -684645387 610339337 -1508323868 428585390 -1066934267 -1459898452 -291324236 1564291131 -1921093152 687872078 408387482 -428635820 84891914 974286893 298697715 234710220 -1672876155 -679878478 674707835 -1999848008 1980571232 -547226473 1183728991 -2006779028 -1457926226 -698569192 114038871 -1645879713
REM
CELL 1.54180   50.00000   50.00000   50.00000   90.00000   90.00000   90.00000
LATT -1
SFAC C  
C      1  0.4802920000000  0.4680010000000  0.4634320000000 1.0
C      1  0.5276370000000  0.4681360000000  0.4690110000000 1.0
C      1  0.5414820000000  0.4665160000000  0.5190250000000 1.0
C      1  0.4954750000000  0.4661590000000  0.5452170000000 1.0
C      1  0.4556470000000  0.4663050000000  0.5095720000000 1.0
C      1  0.4792500000000  0.5313950000000  0.4639970000000 1.0
C      1  0.5310740000000  0.5332260000000  0.4667220000000 1.0
C      1  0.5417330000000  0.5331170000000  0.5190020000000 1.0
C      1  0.4963100000000  0.5329930000000  0.5452950000000 1.0
C      1  0.4597510000000  0.5313020000000  0.5075960000000 1.0
C      1  0.5205490000000  0.4689990000000  0.5585040000000 1.0
C      1  0.4512510000000  0.4689640000000  0.5375290000000 1.0
C      1  0.4507670000000  0.4690410000000  0.4656150000000 1.0
C      1  0.5185990000000  0.4690210000000  0.4405170000000 1.0
C      1  0.5619040000000  0.4691620000000  0.4991630000000 1.0
C      1  0.5212270000000  0.5305130000000  0.5587390000000 1.0
C      1  0.4531030000000  0.5300080000000  0.5362990000000 1.0
C      1  0.4493980000000  0.5303440000000  0.4642160000000 1.0
C      1  0.5187060000000  0.5307360000000  0.4408640000000 1.0
C      1  0.5621190000000  0.5306120000000  0.4991770000000 1.0
C      1  0.5197760000000  0.5796290000000  0.4860500000000 1.0
C      1  0.5196710000000  0.5793110000000  0.5138380000000 1.0
C      1  0.4931480000000  0.5797390000000  0.5221610000000 1.0
C      1  0.4766370000000  0.5804090000000  0.4996100000000 1.0
C      1  0.4933460000000  0.5804050000000  0.4771290000000 1.0
C      1  0.5198860000000  0.4190210000000  0.4860430000000 1.0
C      1  0.5196320000000  0.4198310000000  0.5139100000000 1.0
C      1  0.4931460000000  0.4200120000000  0.5223140000000 1.0
C      1  0.4769580000000  0.4195990000000  0.4996900000000 1.0
C      1  0.4933440000000  0.4189410000000  0.4770350000000 1.0
C      1  0.4423890000000  0.4842070000000  0.4901420000000 1.0
C      1  0.4922770000000  0.4846610000000  0.4409380000000 1.0
C      1  0.5522510000000  0.4848940000000  0.4750960000000 1.0
C      1  0.5405980000000  0.4845240000000  0.5419170000000 1.0
C      1  0.4735030000000  0.4842970000000  0.5515120000000 1.0
C      1  0.4415870000000  0.5146800000000  0.4898060000000 1.0
C      1  0.4928000000000  0.5151010000000  0.4421260000000 1.0
C      1  0.5525420000000  0.5152750000000  0.4750980000000 1.0
C      1  0.5412140000000  0.5148990000000  0.5420520000000 1.0
C      1  0.4740720000000  0.5146690000000  0.5516060000000 1.0
C      1  0.4403510000000  0.5142200000000  0.5881500000000 1.0
C      1  0.3969280000000  0.5145450000000  0.4700550000000 1.0
C      1  0.4963310000000  0.5147590000000  0.3925300000000 1.0
C      1  0.6013010000000  0.5139650000000  0.4633830000000 1.0
C      1  0.5668890000000  0.5143750000000  0.5849090000000 1.0
C      1  0.4405880000000  0.4850280000000  0.5892890000000 1.0
C      1  0.3970650000000  0.4852130000000  0.4700410000000 1.0
C      1  0.4966980000000  0.4854800000000  0.3923920000000 1.0
C      1  0.6008410000000  0.4847820000000  0.4637120000000 1.0
C      1  0.5667160000000  0.4851540000000  0.5848150000000 1.0
C      1  0.4744690000000  0.4848960000000  0.4135900000000 1.0
C      1  0.5738120000000  0.4845430000000  0.4487860000000 1.0
C      1  0.5743820000000  0.4846870000000  0.5552740000000 1.0
C      1  0.4710190000000  0.4845600000000  0.5872450000000 1.0
C      1  0.4087360000000  0.4846020000000  0.4982120000000 1.0
C      1  0.4742480000000  0.5153050000000  0.4136560000000 1.0
C      1  0.5752870000000  0.5147890000000  0.4477680000000 1.0
C      1  0.5739550000000  0.5147150000000  0.5549820000000 1.0
C      1  0.4711210000000  0.5146310000000  0.5861380000000 1.0
C      1  0.4098410000000  0.5148290000000  0.4980730000000 1.0
C      1  0.5643640000000  0.4381720000000  0.4878120000000 1.0
C      1  0.5321520000000  0.4373510000000  0.5577220000000 1.0
C      1  0.4556410000000  0.4371590000000  0.5482790000000 1.0
C      1  0.4418700000000  0.4379140000000  0.4723310000000 1.0
C      1  0.5090620000000  0.4385340000000  0.4352200000000 1.0
C      1  0.5651270000000  0.5620820000000  0.4877650000000 1.0
C      1  0.5326050000000  0.5620670000000  0.5577740000000 1.0
C      1  0.4565430000000  0.5612470000000  0.5469240000000 1.0
C      1  0.4416280000000  0.5609740000000  0.4717420000000 1.0
C      1  0.5086750000000  0.5615120000000  0.4351260000000 1.0
C      1  0.4863650000000  0.4361330000000  0.4555310000000 1.0
C      1  0.5378790000000  0.4364400000000  0.4726840000000 1.0
C      1  0.5385660000000  0.4359790000000  0.5275730000000 1.0
C      1  0.4862630000000  0.4356590000000  0.5449400000000 1.0
C      1  0.4535720000000  0.4356520000000  0.5005390000000 1.0
C      1  0.4860490000000  0.5632700000000  0.4556930000000 1.0
C      1  0.5385270000000  0.5635660000000  0.4721250000000 1.0
C      1  0.5388390000000  0.5635890000000  0.5276030000000 1.0
C      1  0.4868480000000  0.5635490000000  0.5446070000000 1.0
C      1  0.4541010000000  0.5631400000000  0.4995380000000 1.0
C      1  0.4038660000000  0.5598670000000  0.5029010000000 1.0
C      1  0.4672360000000  0.5602090000000  0.4088340000000 1.0
C      1  0.5774060000000  0.5598390000000  0.4405150000000 1.0
C      1  0.5812730000000  0.5599840000000  0.5545150000000 1.0
C      1  0.4734870000000  0.5597530000000  0.5928040000000 1.0
C      1  0.4037020000000  0.4396760000000  0.5029170000000 1.0
C      1  0.4678240000000  0.4399710000000  0.4087640000000 1.0
C      1  0.5768340000000  0.4394890000000  0.4404650000000 1.0
C      1  0.5808660000000  0.4394380000000  0.5545540000000 1.0
C      1  0.4738020000000  0.4394390000000  0.5936040000000 1.0
C      1  0.4914690000000  0.5811120000000  0.5874100000000 1.0
C      1  0.4154380000000  0.5806600000000  0.5180730000000 1.0
C      1  0.4565290000000  0.5815530000000  0.4239650000000 1.0
C      1  0.5593830000000  0.5810850000000  0.4346070000000 1.0
C      1  0.5812360000000  0.5812830000000  0.5356460000000 1.0
C      1  0.4916580000000  0.4180750000000  0.5878520000000 1.0
C      1  0.4144660000000  0.4184350000000  0.5184500000000 1.0
C      1  0.4568460000000  0.4190040000000  0.4242090000000 1.0
C      1  0.5591270000000  0.4181580000000  0.4349080000000 1.0
C      1  0.5806970000000  0.4182030000000  0.5356360000000 1.0
C      1  0.5873320000000  0.5577700000000  0.4690360000000 1.0
C      1  0.5573510000000  0.5580110000000  0.5729840000000 1.0
C      1  0.4490710000000  0.5574690000000  0.5749140000000 1.0
C      1  0.4124660000000  0.5576790000000  0.4739850000000 1.0
C      1  0.4975270000000  0.5581170000000  0.4081000000000 1.0
C      1  0.5867180000000  0.4414800000000  0.4691040000000 1.0
C      1  0.5568860000000  0.4415960000000  0.5728820000000 1.0
C      1  0.4489050000000  0.4414400000000  0.5764620000000 1.0
C      1  0.4128860000000  0.4418750000000  0.4741140000000 1.0
C      1  0.4979770000000  0.4421240000000  0.4081220000000 1.0
C      1  0.4581900000000  0.5747010000000  0.4499550000000 1.0
C      1  0.5347910000000  0.5754480000000  0.4434060000000 1.0
C      1  0.5650590000000  0.5756150000000  0.5150990000000 1.0
C      1  0.5065500000000  0.5755660000000  0.5660000000000 1.0
C      1  0.4408260000000  0.5745710000000  0.5245490000000 1.0
C      1  0.4583800000000  0.4247520000000  0.4504300000000 1.0
C      1  0.5348540000000  0.4248710000000  0.4443650000000 1.0
C      1  0.5645880000000  0.4241740000000  0.5151310000000 1.0
C      1  0.5061970000000  0.4237570000000  0.5661040000000 1.0
C      1  0.4395650000000  0.4237380000000  0.5261110000000 1.0
C      1  0.4213760000000  0.4732920000000  0.5450560000000 1.0
C      1  0.4344240000000  0.4732820000000  0.4391370000000 1.0
C      1  0.5382980000000  0.4735030000000  0.4173550000000 1.0
C      1  0.5906610000000  0.4732880000000  0.5105080000000 1.0
C      1  0.5187930000000  0.4732660000000  0.5895300000000 1.0
C      1  0.4225350000000  0.5260930000000  0.5437500000000 1.0
C      1  0.4334020000000  0.5261140000000  0.4384230000000 1.0
C      1  0.5383870000000  0.5263310000000  0.4173160000000 1.0
C      1  0.5910110000000  0.5262020000000  0.5104310000000 1.0
C      1  0.5188590000000  0.5261650000000  0.5895310000000 1.0
C      1  0.5133720000000  0.4633810000000  0.3962510000000 1.0
C      1  0.6029480000000  0.4626170000000  0.4803330000000 1.0
C      1  0.5511010000000  0.4629910000000  0.5914250000000 1.0
C      1  0.4294640000000  0.4627420000000  0.5768100000000 1.0
C      1  0.4069180000000  0.4632210000000  0.4557760000000 1.0
C      1  0.5127100000000  0.5369640000000  0.3958050000000 1.0
C      1  0.6030380000000  0.5362850000000  0.4801490000000 1.0
C      1  0.5516630000000  0.5366850000000  0.5916430000000 1.0
C      1  0.4296630000000  0.5361200000000  0.5744840000000 1.0
C      1  0.4058390000000  0.5365720000000  0.4554800000000 1.0
C      1  0.4885420000000  0.4646410000000  0.5971310000000 1.0
C      1  0.4046110000000  0.4647620000000  0.5180680000000 1.0
C      1  0.4538110000000  0.4651390000000  0.4151610000000 1.0
C      1  0.5665720000000  0.4649350000000  0.4293010000000 1.0
C      1  0.5887470000000  0.4646360000000  0.5415320000000 1.0
C      1  0.4883270000000  0.5347090000000  0.5966230000000 1.0
C      1  0.4054990000000  0.5346530000000  0.5182310000000 1.0
C      1  0.4534490000000  0.5347440000000  0.4149770000000 1.0
C      1  0.5673780000000  0.5346640000000  0.4292510000000 1.0
C      1  0.5889740000000  0.5347610000000  0.5415410000000 1.0
C      1  0.5215860000000  0.4997440000000  0.5970170000000 1.0
C      1  0.4155900000000  0.4998780000000  0.5496420000000 1.0
C      1  0.4266620000000  0.4994650000000  0.4346170000000 1.0
C      1  0.5987940000000  0.4996940000000  0.5100380000000 1.0
C      1  0.5400260000000  0.5000190000000  0.4094620000000 1.0
C      1  0.4862860000000  0.5239130000000  0.4934170000000 1.0
C      1  0.5012840000000  0.4753710000000  0.4845710000000 1.0
C      1  0.4990170000000  0.4996000000000  0.4983290000000 1.0
END
