TITL C-20196-7543-5 -0.135761007733125 125000 -667.8032303266 0 0 93 (C1) n - 1
REM
REM in /rds/project/t2_vol4/rds-t2-cs072/BORA/CARBON/from-Arr/AIRSS/Generating-Clusters/GAP-ML-2020/Higher-Symm/SD-CG/HFTN-CG
REM
REM
REM
REM
REM
REM ./C.cell (b20cbc046b6831c77cfcea5457e17084)
REM AIRSS Version 0.9.1 bugfix July 2018 build 013d7b7c2542+ Fri, 06 Jul 2018 19:26:36 +0100
REM compiler GCC version 9.3.0
REM options -cpp -mtune=generic -march=x86-64 -g -O0
REM seed -962991847 -631718297 1823667960 -1875396876 365376190 -619616824 -495318959 742201806 280628333 -1796864746 266284472 -1171780318 -1286869652 1321093070 -269624919 -1023295799 224223963 -20433775 -1325017918 1748599198 555692212 -1185892618 -1934945489 -1511831087 -681160130 196415119 -997419330 -1814378808 2031665724 2092858581 1784141156 809736076 945100866
REM
CELL 1.54180   50.00000   50.00000   50.00000   90.00000   90.00000   90.00000
LATT -1
SFAC C  
C      1  0.4362320000000  0.5455440000000  0.4829570000000 1.0
C      1  0.5086240000000  0.5381710000000  0.4240420000000 1.0
C      1  0.5702340000000  0.5471740000000  0.5195840000000 1.0
C      1  0.4842480000000  0.5433570000000  0.5692870000000 1.0
C      1  0.5650900000000  0.4710840000000  0.4908510000000 1.0
C      1  0.4881510000000  0.4520650000000  0.4320330000000 1.0
C      1  0.4328090000000  0.4463640000000  0.5146040000000 1.0
C      1  0.5139290000000  0.4559540000000  0.5718120000000 1.0
C      1  0.4530530000000  0.5575210000000  0.4640140000000 1.0
C      1  0.5433720000000  0.5542270000000  0.4533210000000 1.0
C      1  0.5488690000000  0.5555880000000  0.5379730000000 1.0
C      1  0.4643890000000  0.5538890000000  0.5497520000000 1.0
C      1  0.5589800000000  0.4740120000000  0.4605280000000 1.0
C      1  0.4679580000000  0.4397920000000  0.4504250000000 1.0
C      1  0.4525880000000  0.4392340000000  0.5352120000000 1.0
C      1  0.5356760000000  0.4464990000000  0.5536210000000 1.0
C      1  0.5149840000000  0.4459940000000  0.4423080000000 1.0
C      1  0.5608020000000  0.4482680000000  0.5129650000000 1.0
C      1  0.4905430000000  0.4413610000000  0.5619370000000 1.0
C      1  0.4424970000000  0.4349040000000  0.4893930000000 1.0
C      1  0.4901610000000  0.5538260000000  0.4389640000000 1.0
C      1  0.4423650000000  0.5564780000000  0.5086840000000 1.0
C      1  0.5089020000000  0.5570350000000  0.5619730000000 1.0
C      1  0.5631290000000  0.5594640000000  0.4944100000000 1.0
C      1  0.4120480000000  0.5044550000000  0.4927330000000 1.0
C      1  0.4978670000000  0.5157160000000  0.4115010000000 1.0
C      1  0.5870720000000  0.5240750000000  0.5169860000000 1.0
C      1  0.4881550000000  0.5194820000000  0.5853100000000 1.0
C      1  0.5887370000000  0.4860130000000  0.4993690000000 1.0
C      1  0.4861360000000  0.4757650000000  0.4167500000000 1.0
C      1  0.4152330000000  0.4690110000000  0.5116330000000 1.0
C      1  0.5071440000000  0.4795710000000  0.5877790000000 1.0
C      1  0.4531590000000  0.5125370000000  0.5310340000000 1.0
C      1  0.4468620000000  0.4989280000000  0.4584590000000 1.0
C      1  0.5657480000000  0.5011820000000  0.4518590000000 1.0
C      1  0.5248060000000  0.4999560000000  0.5470580000000 1.0
C      1  0.5454980000000  0.4921300000000  0.5310360000000 1.0
C      1  0.5480090000000  0.5100300000000  0.4319660000000 1.0
C      1  0.4368740000000  0.5163420000000  0.4826370000000 1.0
C      1  0.4720470000000  0.4992780000000  0.5475450000000 1.0
C      1  0.4116550000000  0.4770920000000  0.4836470000000 1.0
C      1  0.5106120000000  0.4896530000000  0.4107680000000 1.0
C      1  0.5884700000000  0.4956320000000  0.5268550000000 1.0
C      1  0.4803080000000  0.4893640000000  0.5877580000000 1.0
C      1  0.5911490000000  0.5134470000000  0.4903580000000 1.0
C      1  0.4728850000000  0.5026380000000  0.4175520000000 1.0
C      1  0.4123900000000  0.4975890000000  0.5210860000000 1.0
C      1  0.5147910000000  0.5091360000000  0.5889600000000 1.0
C      1  0.5343640000000  0.4863870000000  0.4239090000000 1.0
C      1  0.5703180000000  0.4832460000000  0.5427130000000 1.0
C      1  0.4636730000000  0.4793050000000  0.5675970000000 1.0
C      1  0.4297900000000  0.4733700000000  0.4623320000000 1.0
C      1  0.4559450000000  0.5157280000000  0.4355170000000 1.0
C      1  0.4255540000000  0.5158480000000  0.5371510000000 1.0
C      1  0.5322410000000  0.5180920000000  0.5691970000000 1.0
C      1  0.5777860000000  0.5215380000000  0.4675760000000 1.0
C      1  0.4779350000000  0.5721710000000  0.5318450000000 1.0
C      1  0.4729320000000  0.5735590000000  0.4774230000000 1.0
C      1  0.5252590000000  0.5710680000000  0.4690900000000 1.0
C      1  0.5307030000000  0.5730960000000  0.5236400000000 1.0
C      1  0.5247320000000  0.4279860000000  0.5350430000000 1.0
C      1  0.5243290000000  0.4408570000000  0.4874470000000 1.0
C      1  0.4824770000000  0.4242620000000  0.4692850000000 1.0
C      1  0.4727700000000  0.4228610000000  0.5226990000000 1.0
C      1  0.4712500000000  0.4832400000000  0.4978950000000 1.0
C      1  0.5025020000000  0.4887790000000  0.4685340000000 1.0
C      1  0.5160050000000  0.4711780000000  0.4931230000000 1.0
C      1  0.4944880000000  0.4763670000000  0.5128250000000 1.0
C      1  0.5272560000000  0.5143990000000  0.4972840000000 1.0
C      1  0.5356780000000  0.5361850000000  0.4327850000000 1.0
C      1  0.4857760000000  0.5234800000000  0.4969740000000 1.0
C      1  0.5056990000000  0.5198350000000  0.5170380000000 1.0
C      1  0.4646850000000  0.5736600000000  0.5060770000000 1.0
C      1  0.4972470000000  0.5710180000000  0.4614690000000 1.0
C      1  0.5383080000000  0.5735510000000  0.4954110000000 1.0
C      1  0.5056600000000  0.5736720000000  0.5387770000000 1.0
C      1  0.5390520000000  0.4310650000000  0.5096110000000 1.0
C      1  0.5105340000000  0.4298940000000  0.4655830000000 1.0
C      1  0.4671560000000  0.4213920000000  0.4939590000000 1.0
C      1  0.4966890000000  0.4247190000000  0.5394360000000 1.0
C      1  0.4416880000000  0.5420850000000  0.5343950000000 1.0
C      1  0.4635350000000  0.5433320000000  0.4417930000000 1.0
C      1  0.5657870000000  0.5472120000000  0.4689970000000 1.0
C      1  0.5348350000000  0.5451070000000  0.5614720000000 1.0
C      1  0.5598930000000  0.4572980000000  0.5399270000000 1.0
C      1  0.5383070000000  0.4645010000000  0.4418940000000 1.0
C      1  0.4427130000000  0.4473480000000  0.4630350000000 1.0
C      1  0.4640240000000  0.4518480000000  0.5593200000000 1.0
C      1  0.5393640000000  0.4884160000000  0.5024240000000 1.0
C      1  0.4607190000000  0.5093530000000  0.5026150000000 1.0
C      1  0.4987310000000  0.4970940000000  0.5334430000000 1.0
C      1  0.4747990000000  0.4833160000000  0.4698400000000 1.0
C      1  0.5067180000000  0.5151650000000  0.4766450000000 1.0
END
