TITL C-20173-7598-11 0.0369613359146829 125000 -212.443208034481 0 0 30 (D5h) n - 1
REM
REM in /rds/project/t2_vol4/rds-t2-cs072/BORA/CARBON/from-Arr/AIRSS/Generating-Clusters/GAP-ML-2020/Higher-Symm/SD-CG/HFTN-CG
REM
REM
REM
REM
REM
REM ./C.cell (b20cbc046b6831c77cfcea5457e17084)
REM AIRSS Version 0.9.1 bugfix July 2018 build 013d7b7c2542+ Fri, 06 Jul 2018 19:26:36 +0100
REM compiler GCC version 9.3.0
REM options -cpp -mtune=generic -march=x86-64 -g -O0
REM seed 854790735 -646947837 -1289328433 -262506630 -1298947889 -624975684 1065789769 1558467094 -921579058 859453947 988331318 466862453 1102296935 73652682 2087309859 -265346895 -1325362647 -198433616 -733759733 133759156 -277388448 413561086 -1952038390 -1770872817 -601553772 -1319101750 1151063667 -1511270772 533293976 -124311419 -858674911 -1221840888 429758564
REM
CELL 1.54180   50.00000   50.00000   50.00000   90.00000   90.00000   90.00000
LATT -1
SFAC C  
C      1  0.4845550000000  0.5140270000000  0.5398110000000 1.0
C      1  0.4845500000000  0.4858520000000  0.5397670000000 1.0
C      1  0.4573870000000  0.5140980000000  0.4976260000000 1.0
C      1  0.4573820000000  0.4859230000000  0.4975820000000 1.0
C      1  0.4891120000000  0.5141550000000  0.4587520000000 1.0
C      1  0.4891080000000  0.4859790000000  0.4587080000000 1.0
C      1  0.5358870000000  0.5141180000000  0.4769120000000 1.0
C      1  0.5358830000000  0.4859430000000  0.4768680000000 1.0
C      1  0.5330700000000  0.5140400000000  0.5270090000000 1.0
C      1  0.5330660000000  0.4858640000000  0.5269650000000 1.0
C      1  0.5402320000000  0.4716740000000  0.5022180000000 1.0
C      1  0.5102870000000  0.5282530000000  0.5390110000000 1.0
C      1  0.5102780000000  0.4716210000000  0.5389220000000 1.0
C      1  0.4661220000000  0.5282870000000  0.5218650000000 1.0
C      1  0.4661130000000  0.4716550000000  0.5217760000000 1.0
C      1  0.4687820000000  0.5283620000000  0.4745640000000 1.0
C      1  0.4687730000000  0.4717290000000  0.4744740000000 1.0
C      1  0.5145900000000  0.5283730000000  0.4624760000000 1.0
C      1  0.5145810000000  0.4717410000000  0.4623870000000 1.0
C      1  0.5402420000000  0.5283060000000  0.5023070000000 1.0
C      1  0.5062600000000  0.4473180000000  0.5236740000000 1.0
C      1  0.4793520000000  0.5526250000000  0.5133860000000 1.0
C      1  0.4793340000000  0.4473390000000  0.5132200000000 1.0
C      1  0.4809730000000  0.5526710000000  0.4845480000000 1.0
C      1  0.4809560000000  0.4473850000000  0.4843820000000 1.0
C      1  0.5089010000000  0.5526780000000  0.4771790000000 1.0
C      1  0.5088840000000  0.4473920000000  0.4770130000000 1.0
C      1  0.5245400000000  0.5526370000000  0.5014620000000 1.0
C      1  0.5245230000000  0.4473510000000  0.5012960000000 1.0
C      1  0.5062770000000  0.5526050000000  0.5238400000000 1.0
END
