TITL C-205061-6053-14 -37.3021393138061 125000 -468.931361869213 0 0 70 (C1) n - 1
REM
REM in /rds/project/t2_vol4/rds-t2-cs072/BORA/CARBON/from-Arr/AIRSS/Generating-Clusters/GAP-ML-2020/Higher-Symm/SD-CG/HFTN-CG
REM
REM
REM
REM
REM
REM ./C.cell (b20cbc046b6831c77cfcea5457e17084)
REM AIRSS Version 0.9.1 bugfix July 2018 build 013d7b7c2542+ Fri, 06 Jul 2018 19:26:36 +0100
REM compiler GCC version 9.3.0
REM options -cpp -mtune=generic -march=x86-64 -g -O0
REM seed 631630981 1770062056 -1645428948 -1034456271 -918460586 -1636014957 -1460753010 1653738386 -1994832850 -1910780213 689631114 1028029250 1001545916 -1371957906 705485172 -824397765 792194480 1755897546 1531062943 -36788486 -1161158611 -1128302333 -1728033072 268388207 978854231 -782175963 -727907945 439633455 -991559340 -31261867 -1472477314 -528700134 507189910
REM
CELL 1.54180   50.00000   50.00000   50.00000   90.00000   90.00000   90.00000
LATT -1
SFAC C  
C      1  0.5081570000000  0.4329630000000  0.5375720000000 1.0
C      1  0.5280580000000  0.4300880000000  0.4874690000000 1.0
C      1  0.4623890000000  0.4278020000000  0.4911200000000 1.0
C      1  0.5514770000000  0.5148220000000  0.5550690000000 1.0
C      1  0.5204940000000  0.5016970000000  0.4255880000000 1.0
C      1  0.4244660000000  0.5088190000000  0.5202710000000 1.0
C      1  0.4709490000000  0.4940620000000  0.5118390000000 1.0
C      1  0.5186440000000  0.4971630000000  0.5223430000000 1.0
C      1  0.5019100000000  0.4980970000000  0.4789960000000 1.0
C      1  0.5561000000000  0.4625920000000  0.4703740000000 1.0
C      1  0.4416240000000  0.4651590000000  0.4725570000000 1.0
C      1  0.5009730000000  0.4706560000000  0.5659710000000 1.0
C      1  0.5333320000000  0.5708790000000  0.4933820000000 1.0
C      1  0.4979760000000  0.5667090000000  0.4603710000000 1.0
C      1  0.4674130000000  0.5689120000000  0.5118320000000 1.0
C      1  0.5640820000000  0.4877660000000  0.4758950000000 1.0
C      1  0.4422130000000  0.4892560000000  0.4600000000000 1.0
C      1  0.4912240000000  0.4960120000000  0.5662160000000 1.0
C      1  0.4266960000000  0.5259240000000  0.4998460000000 1.0
C      1  0.5363300000000  0.5353780000000  0.5640210000000 1.0
C      1  0.5390440000000  0.5207080000000  0.4323410000000 1.0
C      1  0.5364980000000  0.4548830000000  0.4487760000000 1.0
C      1  0.4317950000000  0.4610120000000  0.5006200000000 1.0
C      1  0.5301830000000  0.4663000000000  0.5627480000000 1.0
C      1  0.4248030000000  0.4798590000000  0.5199950000000 1.0
C      1  0.5500390000000  0.4856790000000  0.5583440000000 1.0
C      1  0.5227290000000  0.4723670000000  0.4302750000000 1.0
C      1  0.5149510000000  0.5480120000000  0.5221190000000 1.0
C      1  0.5117230000000  0.5264170000000  0.4705360000000 1.0
C      1  0.4698320000000  0.5463280000000  0.4941380000000 1.0
C      1  0.5640140000000  0.4811890000000  0.5335320000000 1.0
C      1  0.4940780000000  0.4701430000000  0.4319430000000 1.0
C      1  0.4411470000000  0.4781500000000  0.5438850000000 1.0
C      1  0.5330320000000  0.4457940000000  0.5426490000000 1.0
C      1  0.5172020000000  0.4378900000000  0.4608350000000 1.0
C      1  0.4502080000000  0.4428660000000  0.5129980000000 1.0
C      1  0.4605610000000  0.4551020000000  0.5390260000000 1.0
C      1  0.5497620000000  0.4572380000000  0.5209180000000 1.0
C      1  0.4893160000000  0.4518370000000  0.4553540000000 1.0
C      1  0.5402790000000  0.5260370000000  0.4599330000000 1.0
C      1  0.4478760000000  0.5313710000000  0.4823630000000 1.0
C      1  0.5122850000000  0.5389230000000  0.5496880000000 1.0
C      1  0.4417920000000  0.5078310000000  0.5446190000000 1.0
C      1  0.5646350000000  0.5102790000000  0.5284890000000 1.0
C      1  0.4911620000000  0.4998790000000  0.4283080000000 1.0
C      1  0.4620530000000  0.5291550000000  0.5469300000000 1.0
C      1  0.5587900000000  0.5270380000000  0.5060630000000 1.0
C      1  0.4755500000000  0.5216000000000  0.4404780000000 1.0
C      1  0.4603790000000  0.5513310000000  0.5312390000000 1.0
C      1  0.5417520000000  0.5507100000000  0.5098790000000 1.0
C      1  0.4939890000000  0.5416120000000  0.4506210000000 1.0
C      1  0.4884180000000  0.5216940000000  0.5578600000000 1.0
C      1  0.5591900000000  0.5143590000000  0.4797340000000 1.0
C      1  0.4525610000000  0.5147750000000  0.4579820000000 1.0
C      1  0.4763240000000  0.4676130000000  0.5168840000000 1.0
C      1  0.5230210000000  0.4713890000000  0.5152770000000 1.0
C      1  0.5013230000000  0.4700590000000  0.4778880000000 1.0
C      1  0.4872580000000  0.4489660000000  0.5513270000000 1.0
C      1  0.5503990000000  0.4454650000000  0.4936840000000 1.0
C      1  0.4625920000000  0.4446750000000  0.4678930000000 1.0
C      1  0.5056450000000  0.4279230000000  0.5074730000000 1.0
C      1  0.4892490000000  0.5872130000000  0.5056520000000 1.0
C      1  0.4945890000000  0.6088220000000  0.5213530000000 1.0
C      1  0.4959810000000  0.5061260000000  0.5065560000000 1.0
C      1  0.4844790000000  0.4081270000000  0.4966200000000 1.0
C      1  0.5001720000000  0.4577190000000  0.5041090000000 1.0
C      1  0.4973170000000  0.6283610000000  0.5375490000000 1.0
C      1  0.4868720000000  0.3824570000000  0.4902530000000 1.0
C      1  0.4981370000000  0.5360900000000  0.4991350000000 1.0
C      1  0.5081080000000  0.5774650000000  0.4835780000000 1.0
END
