TITL C-20185-7546-1 -70.5952860221741 125000 -731.632912634713 0 0 105 (C1) n - 1
REM
REM in /rds/project/t2_vol4/rds-t2-cs072/BORA/CARBON/from-Arr/AIRSS/Generating-Clusters/GAP-ML-2020/Higher-Symm/SD-CG/HFTN-CG
REM
REM
REM
REM
REM
REM ./C.cell (b20cbc046b6831c77cfcea5457e17084)
REM AIRSS Version 0.9.1 bugfix July 2018 build 013d7b7c2542+ Fri, 06 Jul 2018 19:26:36 +0100
REM compiler GCC version 9.3.0
REM options -cpp -mtune=generic -march=x86-64 -g -O0
REM seed -1920358628 1877445183 459556557 1671257731 1424603093 654306583 -2059097242 267678407 -1370206996 213175942 -602088351 1765835269 9818791 603313964 914718353 961969670 -187007792 -1671804081 -378284363 451256924 588871802 1512926887 1869133519 1556414603 -744170978 1130656426 -2028943123 -167891607 -1965231140 1873931515 -1628344287 2145077966 -1909510391
REM
CELL 1.54180   50.00000   50.00000   50.00000   90.00000   90.00000   90.00000
LATT -1
SFAC C  
C      1  0.5834120000000  0.4970270000000  0.4878020000000 1.0
C      1  0.5561110000000  0.4780060000000  0.5571170000000 1.0
C      1  0.5384610000000  0.5577590000000  0.5651950000000 1.0
C      1  0.5725300000000  0.4727440000000  0.4758620000000 1.0
C      1  0.5360860000000  0.5034110000000  0.4522700000000 1.0
C      1  0.4071380000000  0.5019840000000  0.5192380000000 1.0
C      1  0.4637170000000  0.4713510000000  0.5772590000000 1.0
C      1  0.5224090000000  0.4750340000000  0.4183720000000 1.0
C      1  0.5351450000000  0.5795710000000  0.5206100000000 1.0
C      1  0.5605920000000  0.4530060000000  0.4915540000000 1.0
C      1  0.4808490000000  0.5140770000000  0.5201630000000 1.0
C      1  0.4646190000000  0.4237960000000  0.4916310000000 1.0
C      1  0.5247080000000  0.5109130000000  0.5745520000000 1.0
C      1  0.4890070000000  0.4997980000000  0.4426540000000 1.0
C      1  0.5802010000000  0.5171170000000  0.4670790000000 1.0
C      1  0.4855460000000  0.4783040000000  0.4924460000000 1.0
C      1  0.4898150000000  0.4234540000000  0.5029690000000 1.0
C      1  0.4781690000000  0.5726410000000  0.5321700000000 1.0
C      1  0.5257360000000  0.5757110000000  0.5467920000000 1.0
C      1  0.4475440000000  0.5419250000000  0.4945980000000 1.0
C      1  0.4814370000000  0.5186590000000  0.4637300000000 1.0
C      1  0.4414460000000  0.4336870000000  0.5045790000000 1.0
C      1  0.4886210000000  0.5682730000000  0.5052300000000 1.0
C      1  0.4769260000000  0.4952680000000  0.5829000000000 1.0
C      1  0.4580770000000  0.4365810000000  0.4655730000000 1.0
C      1  0.5619720000000  0.4771840000000  0.4493560000000 1.0
C      1  0.4672620000000  0.5427100000000  0.5660220000000 1.0
C      1  0.5220090000000  0.4745350000000  0.5031870000000 1.0
C      1  0.5240740000000  0.5223960000000  0.5207210000000 1.0
C      1  0.4594310000000  0.5522960000000  0.4355970000000 1.0
C      1  0.4474430000000  0.4869370000000  0.5258710000000 1.0
C      1  0.4705220000000  0.4384170000000  0.5448510000000 1.0
C      1  0.4316990000000  0.4453220000000  0.4791320000000 1.0
C      1  0.4438860000000  0.4387630000000  0.5332330000000 1.0
C      1  0.5731940000000  0.4764550000000  0.5331120000000 1.0
C      1  0.4943040000000  0.4940220000000  0.5356150000000 1.0
C      1  0.4637910000000  0.4642640000000  0.4273770000000 1.0
C      1  0.5191530000000  0.5726520000000  0.4502650000000 1.0
C      1  0.4990850000000  0.5343200000000  0.5078440000000 1.0
C      1  0.5569900000000  0.5288360000000  0.4267970000000 1.0
C      1  0.5151200000000  0.5530870000000  0.4271900000000 1.0
C      1  0.5274780000000  0.5142560000000  0.4765300000000 1.0
C      1  0.5145350000000  0.4229160000000  0.4874700000000 1.0
C      1  0.5309500000000  0.4033680000000  0.5042560000000 1.0
C      1  0.4222590000000  0.4551310000000  0.5433840000000 1.0
C      1  0.4821830000000  0.4433070000000  0.4225900000000 1.0
C      1  0.5355600000000  0.4578330000000  0.5576610000000 1.0
C      1  0.4407310000000  0.5033360000000  0.5535720000000 1.0
C      1  0.4185860000000  0.4732840000000  0.4732430000000 1.0
C      1  0.4601220000000  0.5160200000000  0.5717040000000 1.0
C      1  0.5740170000000  0.5466130000000  0.4658350000000 1.0
C      1  0.4394660000000  0.5417420000000  0.5231870000000 1.0
C      1  0.4151030000000  0.4595920000000  0.5701800000000 1.0
C      1  0.4818330000000  0.4520980000000  0.5674630000000 1.0
C      1  0.4908870000000  0.5787880000000  0.4489100000000 1.0
C      1  0.4562370000000  0.5136970000000  0.4796630000000 1.0
C      1  0.4640440000000  0.4649340000000  0.4574150000000 1.0
C      1  0.4871520000000  0.5600070000000  0.4259110000000 1.0
C      1  0.4426880000000  0.5318500000000  0.4310630000000 1.0
C      1  0.4403960000000  0.5042080000000  0.4313120000000 1.0
C      1  0.4249510000000  0.5194330000000  0.5336870000000 1.0
C      1  0.5312890000000  0.4509350000000  0.4856000000000 1.0
C      1  0.5827800000000  0.5222560000000  0.5333380000000 1.0
C      1  0.5602620000000  0.5676090000000  0.5120040000000 1.0
C      1  0.4659410000000  0.5697510000000  0.4598050000000 1.0
C      1  0.4055280000000  0.4831360000000  0.4979600000000 1.0
C      1  0.5283900000000  0.5288660000000  0.4203800000000 1.0
C      1  0.4905160000000  0.4403960000000  0.5253070000000 1.0
C      1  0.4982170000000  0.5730320000000  0.5517290000000 1.0
C      1  0.5027620000000  0.5266940000000  0.4792460000000 1.0
C      1  0.5644510000000  0.4535940000000  0.5199460000000 1.0
C      1  0.4938110000000  0.5526210000000  0.5711820000000 1.0
C      1  0.5167720000000  0.5026810000000  0.4293400000000 1.0
C      1  0.4920610000000  0.4746200000000  0.4631500000000 1.0
C      1  0.5846280000000  0.4986620000000  0.5175160000000 1.0
C      1  0.5587150000000  0.5647100000000  0.4833550000000 1.0
C      1  0.5636340000000  0.5495670000000  0.5581010000000 1.0
C      1  0.4647750000000  0.5633620000000  0.4869150000000 1.0
C      1  0.5321970000000  0.5748530000000  0.4754480000000 1.0
C      1  0.5737970000000  0.5510430000000  0.5310390000000 1.0
C      1  0.5658190000000  0.5057340000000  0.4444600000000 1.0
C      1  0.5455700000000  0.4395460000000  0.5364730000000 1.0
C      1  0.4186430000000  0.4750660000000  0.5224860000000 1.0
C      1  0.5056640000000  0.4894810000000  0.5826810000000 1.0
C      1  0.4221770000000  0.4882080000000  0.4469990000000 1.0
C      1  0.5396340000000  0.4140550000000  0.5261510000000 1.0
C      1  0.5179840000000  0.5072470000000  0.5432880000000 1.0
C      1  0.5322170000000  0.5023190000000  0.5012750000000 1.0
C      1  0.5097650000000  0.4629290000000  0.5711230000000 1.0
C      1  0.4446990000000  0.4880520000000  0.4651390000000 1.0
C      1  0.5675500000000  0.5508090000000  0.4385410000000 1.0
C      1  0.5708180000000  0.5215900000000  0.5601390000000 1.0
C      1  0.4648890000000  0.4973000000000  0.5025570000000 1.0
C      1  0.4658640000000  0.4921390000000  0.4239210000000 1.0
C      1  0.5531190000000  0.5028140000000  0.5705280000000 1.0
C      1  0.5397140000000  0.4625020000000  0.4382100000000 1.0
C      1  0.4985220000000  0.4694810000000  0.5177030000000 1.0
C      1  0.4367840000000  0.4770080000000  0.5683340000000 1.0
C      1  0.5067860000000  0.4271010000000  0.4587410000000 1.0
C      1  0.4811270000000  0.4261470000000  0.4467980000000 1.0
C      1  0.4572610000000  0.5552440000000  0.5414250000000 1.0
C      1  0.5192840000000  0.5402630000000  0.5775010000000 1.0
C      1  0.5163680000000  0.5803080000000  0.4990740000000 1.0
C      1  0.5195520000000  0.4538400000000  0.4583170000000 1.0
C      1  0.5022510000000  0.4577190000000  0.4132240000000 1.0
END
