TITL C-205063-5946-5 0.0962661108433569 125000 -282.978529866195 0 0 43 (C1) n - 1
REM
REM in /rds/project/t2_vol4/rds-t2-cs072/BORA/CARBON/from-Arr/AIRSS/Generating-Clusters/GAP-ML-2020/Higher-Symm/SD-CG/HFTN-CG
REM
REM
REM
REM
REM
REM ./C.cell (b20cbc046b6831c77cfcea5457e17084)
REM AIRSS Version 0.9.1 bugfix July 2018 build 013d7b7c2542+ Fri, 06 Jul 2018 19:26:36 +0100
REM compiler GCC version 9.3.0
REM options -cpp -mtune=generic -march=x86-64 -g -O0
REM seed 671923141 82305498 614133976 -280850429 -1723056850 -1091163845 -1514280832 1068795806 -2104729997 -1617349034 -310143430 -1338097687 -1963597540 -1817534252 464405774 1627152821 -1903536852 -106174036 -25268258 1278970511 1722951249 -110128441 1890543186 -395627109 1621834293 -1153021567 1353319725 1553090515 -1865542069 -356797537 225206596 2076120086 -1385170021
REM
CELL 1.54180   50.00000   50.00000   50.00000   90.00000   90.00000   90.00000
LATT -1
SFAC C  
C      1  0.4970650000000  0.5223760000000  0.5652460000000 1.0
C      1  0.5225920000000  0.5571350000000  0.5003130000000 1.0
C      1  0.5471330000000  0.5126780000000  0.5263940000000 1.0
C      1  0.5019490000000  0.5236150000000  0.4394240000000 1.0
C      1  0.5105290000000  0.4771990000000  0.5566740000000 1.0
C      1  0.4891280000000  0.4746730000000  0.4402320000000 1.0
C      1  0.4792820000000  0.5422900000000  0.4913700000000 1.0
C      1  0.4804110000000  0.4429890000000  0.5092980000000 1.0
C      1  0.5211800000000  0.4443870000000  0.4965180000000 1.0
C      1  0.4457310000000  0.5038480000000  0.4716120000000 1.0
C      1  0.4390180000000  0.5018120000000  0.5193090000000 1.0
C      1  0.5603670000000  0.5051240000000  0.4817960000000 1.0
C      1  0.5584720000000  0.5263760000000  0.5039420000000 1.0
C      1  0.5088030000000  0.5450070000000  0.5226960000000 1.0
C      1  0.5197990000000  0.5023100000000  0.5674840000000 1.0
C      1  0.4383660000000  0.5201800000000  0.4954430000000 1.0
C      1  0.5510400000000  0.4799060000000  0.4941170000000 1.0
C      1  0.4479380000000  0.4759240000000  0.5081190000000 1.0
C      1  0.5016420000000  0.5565800000000  0.4777670000000 1.0
C      1  0.4942120000000  0.4502320000000  0.4827220000000 1.0
C      1  0.5071320000000  0.4434360000000  0.5226320000000 1.0
C      1  0.4787870000000  0.5029580000000  0.4367060000000 1.0
C      1  0.5242090000000  0.5067250000000  0.4487680000000 1.0
C      1  0.4750060000000  0.5091780000000  0.5517370000000 1.0
C      1  0.5465880000000  0.4531880000000  0.4903780000000 1.0
C      1  0.4520630000000  0.5439850000000  0.4954570000000 1.0
C      1  0.4488130000000  0.5109720000000  0.5440770000000 1.0
C      1  0.5013330000000  0.5486390000000  0.4515720000000 1.0
C      1  0.5500270000000  0.5107460000000  0.4571330000000 1.0
C      1  0.5374440000000  0.5207540000000  0.5520050000000 1.0
C      1  0.4542210000000  0.5094450000000  0.4461670000000 1.0
C      1  0.5145550000000  0.4513380000000  0.5484980000000 1.0
C      1  0.5500890000000  0.5528690000000  0.4989710000000 1.0
C      1  0.4553580000000  0.4504190000000  0.5164220000000 1.0
C      1  0.4857310000000  0.4512210000000  0.4532810000000 1.0
C      1  0.5150460000000  0.5408390000000  0.5501430000000 1.0
C      1  0.5333480000000  0.4916180000000  0.5137640000000 1.0
C      1  0.4916590000000  0.4891980000000  0.5374920000000 1.0
C      1  0.4945710000000  0.5246440000000  0.5089770000000 1.0
C      1  0.4609240000000  0.4836260000000  0.4841180000000 1.0
C      1  0.5064860000000  0.4866760000000  0.4604880000000 1.0
C      1  0.4917830000000  0.4813230000000  0.4857690000000 1.0
C      1  0.5025670000000  0.4950950000000  0.5102670000000 1.0
END
