TITL C-205063-5946-3 10.7581204442247 125000 -875.939235769864 0 0 124 (C1) n - 1
REM
REM in /rds/project/t2_vol4/rds-t2-cs072/BORA/CARBON/from-Arr/AIRSS/Generating-Clusters/GAP-ML-2020/Higher-Symm/SD-CG/HFTN-CG
REM
REM
REM
REM
REM
REM ./C.cell (b20cbc046b6831c77cfcea5457e17084)
REM AIRSS Version 0.9.1 bugfix July 2018 build 013d7b7c2542+ Fri, 06 Jul 2018 19:26:36 +0100
REM compiler GCC version 9.3.0
REM options -cpp -mtune=generic -march=x86-64 -g -O0
REM seed 942186418 2102119151 -1404812575 757172383 -1728052554 -1756664031 211294633 47840857 1714259025 -446796282 -716637822 696576812 1040311955 -447811956 727456702 1096766815 -575463474 -412802245 1754654920 1956917234 817911073 148309778 -364099719 462474967 -1767295303 794239855 457925294 685206787 -880523652 317519325 -516380738 -1493646310 1902411939
REM
CELL 1.54180   50.00000   50.00000   50.00000   90.00000   90.00000   90.00000
LATT -1
SFAC C  
C      1  0.5659850000000  0.4522920000000  0.5492680000000 1.0
C      1  0.5057840000000  0.4127030000000  0.5492880000000 1.0
C      1  0.4399860000000  0.4443020000000  0.5467230000000 1.0
C      1  0.4143820000000  0.5165720000000  0.5449970000000 1.0
C      1  0.4592940000000  0.5744220000000  0.5490760000000 1.0
C      1  0.5314400000000  0.5815500000000  0.5489220000000 1.0
C      1  0.5830620000000  0.5249550000000  0.5473030000000 1.0
C      1  0.4853270000000  0.4538630000000  0.4994710000000 1.0
C      1  0.4397000000000  0.4727410000000  0.5093270000000 1.0
C      1  0.4660990000000  0.5136980000000  0.4998920000000 1.0
C      1  0.5036410000000  0.5386880000000  0.4998800000000 1.0
C      1  0.5456380000000  0.5557610000000  0.5137500000000 1.0
C      1  0.5556900000000  0.5033600000000  0.5151250000000 1.0
C      1  0.5263000000000  0.4669820000000  0.5035360000000 1.0
C      1  0.5268400000000  0.4902020000000  0.4005530000000 1.0
C      1  0.5080030000000  0.4702040000000  0.3953100000000 1.0
C      1  0.4653100000000  0.4751230000000  0.3959270000000 1.0
C      1  0.4679860000000  0.5012410000000  0.4059750000000 1.0
C      1  0.4799830000000  0.5265280000000  0.4023330000000 1.0
C      1  0.5066830000000  0.5355340000000  0.3978770000000 1.0
C      1  0.5292710000000  0.5182790000000  0.3963100000000 1.0
C      1  0.4913500000000  0.5361250000000  0.5981750000000 1.0
C      1  0.5192780000000  0.5277530000000  0.5985400000000 1.0
C      1  0.5326030000000  0.5015640000000  0.5994120000000 1.0
C      1  0.5209900000000  0.4757090000000  0.5983810000000 1.0
C      1  0.4923640000000  0.4693650000000  0.5966080000000 1.0
C      1  0.4704880000000  0.4871860000000  0.5958500000000 1.0
C      1  0.4699610000000  0.5163190000000  0.5965080000000 1.0
C      1  0.5670130000000  0.5045010000000  0.5605170000000 1.0
C      1  0.5456550000000  0.4396600000000  0.5658470000000 1.0
C      1  0.4859160000000  0.4250460000000  0.5659420000000 1.0
C      1  0.4387450000000  0.4734810000000  0.5555410000000 1.0
C      1  0.4300060000000  0.5321240000000  0.5631560000000 1.0
C      1  0.4825460000000  0.5770030000000  0.5666220000000 1.0
C      1  0.5458420000000  0.5562170000000  0.5599880000000 1.0
C      1  0.5740160000000  0.5571580000000  0.5198710000000 1.0
C      1  0.5793280000000  0.4849540000000  0.5198910000000 1.0
C      1  0.5434980000000  0.4207610000000  0.5228620000000 1.0
C      1  0.4674150000000  0.4134940000000  0.5237520000000 1.0
C      1  0.4139110000000  0.4846640000000  0.5157980000000 1.0
C      1  0.4279730000000  0.5544540000000  0.5210840000000 1.0
C      1  0.4927170000000  0.5928730000000  0.5230800000000 1.0
C      1  0.4449730000000  0.4276100000000  0.4762150000000 1.0
C      1  0.4117980000000  0.5021340000000  0.4718350000000 1.0
C      1  0.4464320000000  0.5706620000000  0.4765710000000 1.0
C      1  0.5197700000000  0.5900240000000  0.4773000000000 1.0
C      1  0.5818410000000  0.5400560000000  0.4755760000000 1.0
C      1  0.5751380000000  0.4628950000000  0.4750340000000 1.0
C      1  0.5165620000000  0.4207190000000  0.4737080000000 1.0
C      1  0.5778630000000  0.4602350000000  0.5034210000000 1.0
C      1  0.5189830000000  0.4156980000000  0.5058790000000 1.0
C      1  0.4462460000000  0.4226350000000  0.5046170000000 1.0
C      1  0.4071490000000  0.5072830000000  0.4996690000000 1.0
C      1  0.4443770000000  0.5726000000000  0.5047600000000 1.0
C      1  0.5162990000000  0.5944230000000  0.5050130000000 1.0
C      1  0.5886640000000  0.5389790000000  0.5025270000000 1.0
C      1  0.4529680000000  0.4431860000000  0.4379790000000 1.0
C      1  0.4496260000000  0.4977930000000  0.4544780000000 1.0
C      1  0.4712220000000  0.5439610000000  0.4579510000000 1.0
C      1  0.5166700000000  0.5680850000000  0.4422800000000 1.0
C      1  0.5600040000000  0.5329560000000  0.4412990000000 1.0
C      1  0.5460630000000  0.4804760000000  0.4518810000000 1.0
C      1  0.5105960000000  0.4344770000000  0.4360530000000 1.0
C      1  0.5542680000000  0.4519560000000  0.4564720000000 1.0
C      1  0.4937260000000  0.4201120000000  0.4541070000000 1.0
C      1  0.4332230000000  0.4501730000000  0.4594250000000 1.0
C      1  0.4294050000000  0.5207140000000  0.4574880000000 1.0
C      1  0.4719380000000  0.5742600000000  0.4621590000000 1.0
C      1  0.5390870000000  0.5740730000000  0.4600920000000 1.0
C      1  0.5783270000000  0.5165770000000  0.4572570000000 1.0
C      1  0.5410100000000  0.5103100000000  0.5391850000000 1.0
C      1  0.5113760000000  0.4741350000000  0.5281810000000 1.0
C      1  0.4845200000000  0.4653090000000  0.5254200000000 1.0
C      1  0.4600910000000  0.4808730000000  0.5315010000000 1.0
C      1  0.4692060000000  0.5079340000000  0.5273630000000 1.0
C      1  0.5043790000000  0.5376900000000  0.5286550000000 1.0
C      1  0.5330580000000  0.5396690000000  0.5369440000000 1.0
C      1  0.4680700000000  0.4554680000000  0.4183600000000 1.0
C      1  0.4747170000000  0.5021020000000  0.4349970000000 1.0
C      1  0.4834260000000  0.5315320000000  0.4337860000000 1.0
C      1  0.5115340000000  0.5424460000000  0.4292100000000 1.0
C      1  0.5358860000000  0.5238320000000  0.4280580000000 1.0
C      1  0.5288260000000  0.4943150000000  0.4307520000000 1.0
C      1  0.4981720000000  0.4578800000000  0.4230160000000 1.0
C      1  0.5734020000000  0.4891390000000  0.4606190000000 1.0
C      1  0.5348700000000  0.4317040000000  0.4527120000000 1.0
C      1  0.4656590000000  0.4235800000000  0.4553270000000 1.0
C      1  0.4255570000000  0.4779430000000  0.4598800000000 1.0
C      1  0.4408350000000  0.5452640000000  0.4616920000000 1.0
C      1  0.4978010000000  0.5839000000000  0.4584760000000 1.0
C      1  0.5621110000000  0.5560830000000  0.4592230000000 1.0
C      1  0.5421620000000  0.5394430000000  0.5842950000000 1.0
C      1  0.5555550000000  0.5132150000000  0.5855510000000 1.0
C      1  0.5270150000000  0.4501050000000  0.5844090000000 1.0
C      1  0.4981950000000  0.4436710000000  0.5834000000000 1.0
C      1  0.4459420000000  0.4869460000000  0.5800930000000 1.0
C      1  0.4446000000000  0.5162230000000  0.5814820000000 1.0
C      1  0.4875540000000  0.5608410000000  0.5874580000000 1.0
C      1  0.4961490000000  0.4076640000000  0.5232860000000 1.0
C      1  0.4345720000000  0.4442490000000  0.5188340000000 1.0
C      1  0.4124550000000  0.5293650000000  0.5188020000000 1.0
C      1  0.4649220000000  0.5836280000000  0.5226940000000 1.0
C      1  0.5369440000000  0.5828940000000  0.5211530000000 1.0
C      1  0.5864550000000  0.5153340000000  0.5202180000000 1.0
C      1  0.5651110000000  0.4410540000000  0.5223700000000 1.0
C      1  0.4375080000000  0.5557610000000  0.5480990000000 1.0
C      1  0.5035640000000  0.5879550000000  0.5495330000000 1.0
C      1  0.5737610000000  0.5513560000000  0.5477240000000 1.0
C      1  0.5757120000000  0.4785650000000  0.5479690000000 1.0
C      1  0.5334040000000  0.4198860000000  0.5489950000000 1.0
C      1  0.4615930000000  0.4256530000000  0.5496210000000 1.0
C      1  0.4155480000000  0.4886990000000  0.5435010000000 1.0
C      1  0.5275680000000  0.4871290000000  0.4804230000000 1.0
C      1  0.5117360000000  0.4419290000000  0.4948630000000 1.0
C      1  0.4804580000000  0.4741790000000  0.4811500000000 1.0
C      1  0.4579380000000  0.4903790000000  0.4845070000000 1.0
C      1  0.4812380000000  0.5323310000000  0.4855950000000 1.0
C      1  0.5302730000000  0.5368690000000  0.4915620000000 1.0
C      1  0.5392890000000  0.5105270000000  0.4926000000000 1.0
C      1  0.5017280000000  0.4849000000000  0.4676680000000 1.0
C      1  0.5006110000000  0.4852870000000  0.4391210000000 1.0
C      1  0.4923280000000  0.5157250000000  0.5413540000000 1.0
C      1  0.5146650000000  0.4969790000000  0.5433020000000 1.0
C      1  0.4866630000000  0.4697110000000  0.3777770000000 1.0
END
