TITL C-20196-7543-8 0.0405416163495972 125000 -239.023731331075 0 0 37 (C3v) n - 1
REM
REM in /rds/project/t2_vol4/rds-t2-cs072/BORA/CARBON/from-Arr/AIRSS/Generating-Clusters/GAP-ML-2020/Higher-Symm/SD-CG/HFTN-CG
REM
REM
REM
REM
REM
REM ./C.cell (b20cbc046b6831c77cfcea5457e17084)
REM AIRSS Version 0.9.1 bugfix July 2018 build 013d7b7c2542+ Fri, 06 Jul 2018 19:26:36 +0100
REM compiler GCC version 9.3.0
REM options -cpp -mtune=generic -march=x86-64 -g -O0
REM seed 18066210 -998030740 1431305369 -1469359459 1038466312 -1749078348 1031398774 710118125 179973155 1076260281 573469208 -1329565087 -1729929327 1409146915 -1743996961 1473650003 520683228 703267217 14332102 -308594672 -472406584 -1843613538 737108908 189323259 -152052563 -1581982834 892072693 1792033824 -1784422876 653899124 -820347955 390501453 698354419
REM
CELL 1.54180   50.00000   50.00000   50.00000   90.00000   90.00000   90.00000
LATT -1
SFAC C  
C      1  0.4411530000000  0.5065170000000  0.4647160000000 1.0
C      1  0.5201810000000  0.4445330000000  0.4646080000000 1.0
C      1  0.5342920000000  0.5439020000000  0.4608380000000 1.0
C      1  0.4354290000000  0.5099260000000  0.5331540000000 1.0
C      1  0.5249720000000  0.4396960000000  0.5330310000000 1.0
C      1  0.5409590000000  0.5522850000000  0.5287600000000 1.0
C      1  0.4709660000000  0.5042900000000  0.5176050000000 1.0
C      1  0.5110040000000  0.4728870000000  0.5175500000000 1.0
C      1  0.5181530000000  0.5232300000000  0.5156400000000 1.0
C      1  0.4730190000000  0.5029010000000  0.4886900000000 1.0
C      1  0.5091180000000  0.4745880000000  0.4886410000000 1.0
C      1  0.5155630000000  0.5199780000000  0.4869190000000 1.0
C      1  0.4513500000000  0.4840190000000  0.4767990000000 1.0
C      1  0.5353890000000  0.4649020000000  0.4750950000000 1.0
C      1  0.5098600000000  0.5472110000000  0.4730150000000 1.0
C      1  0.4496210000000  0.4861550000000  0.5275490000000 1.0
C      1  0.5380260000000  0.4636900000000  0.5258360000000 1.0
C      1  0.5132090000000  0.5514500000000  0.5235510000000 1.0
C      1  0.5467520000000  0.5251420000000  0.5235050000000 1.0
C      1  0.4556100000000  0.5283300000000  0.5259490000000 1.0
C      1  0.4984940000000  0.4478220000000  0.5274820000000 1.0
C      1  0.5433470000000  0.5209460000000  0.4729690000000 1.0
C      1  0.4573290000000  0.5261260000000  0.4752020000000 1.0
C      1  0.4959220000000  0.4490600000000  0.4767380000000 1.0
C      1  0.4617690000000  0.5518430000000  0.4844310000000 1.0
C      1  0.4721520000000  0.4403390000000  0.4879270000000 1.0
C      1  0.5635350000000  0.5049900000000  0.4831720000000 1.0
C      1  0.4631080000000  0.5526340000000  0.5146680000000 1.0
C      1  0.4729570000000  0.4419090000000  0.5181530000000 1.0
C      1  0.5639320000000  0.5057090000000  0.5134380000000 1.0
C      1  0.4902250000000  0.5635190000000  0.5135390000000 1.0
C      1  0.4499470000000  0.4599560000000  0.5181840000000 1.0
C      1  0.5598240000000  0.4767770000000  0.5145360000000 1.0
C      1  0.4895700000000  0.5630020000000  0.4832740000000 1.0
C      1  0.4485630000000  0.4588410000000  0.4879590000000 1.0
C      1  0.5593230000000  0.4753290000000  0.4842970000000 1.0
C      1  0.4989880000000  0.4988590000000  0.4793290000000 1.0
END
