TITL C-20192-8892-2 0.242351600611669 125000 -754.778061897995 0 0 108 (Ci) n - 1
REM
REM in /rds/project/t2_vol4/rds-t2-cs072/BORA/CARBON/from-Arr/AIRSS/Generating-Clusters/GAP-ML-2020/Higher-Symm/SD-CG/HFTN-CG
REM
REM
REM
REM
REM
REM ./C.cell (b20cbc046b6831c77cfcea5457e17084)
REM AIRSS Version 0.9.1 bugfix July 2018 build 013d7b7c2542+ Fri, 06 Jul 2018 19:26:36 +0100
REM compiler GCC version 9.3.0
REM options -cpp -mtune=generic -march=x86-64 -g -O0
REM seed -1750919499 -1020851845 201147242 918038159 -1167152569 -1397672 1961138617 83168234 -764102082 -115902459 122623476 1810241442 -535380608 -1212207907 1745016225 -1001466828 1263192727 -914332699 -1625300224 -876646051 -1464476498 368552848 -14285055 -563867995 -968631670 -1264330939 -1512643032 1513541145 439115655 1902249459 -1039009165 1644322055 1765418231
REM
CELL 1.54180   50.00000   50.00000   50.00000   90.00000   90.00000   90.00000
LATT -1
SFAC C  
C      1  0.5545620000000  0.5342620000000  0.5354590000000 1.0
C      1  0.4454380000000  0.4657380000000  0.4645410000000 1.0
C      1  0.5319030000000  0.4583170000000  0.4906290000000 1.0
C      1  0.4680970000000  0.5416830000000  0.5093710000000 1.0
C      1  0.5234530000000  0.5073290000000  0.4836230000000 1.0
C      1  0.4765470000000  0.4926710000000  0.5163770000000 1.0
C      1  0.5071570000000  0.5726670000000  0.5307660000000 1.0
C      1  0.4928430000000  0.4273330000000  0.4692340000000 1.0
C      1  0.4832300000000  0.5863930000000  0.5256570000000 1.0
C      1  0.5167700000000  0.4136070000000  0.4743430000000 1.0
C      1  0.4795240000000  0.4466070000000  0.5554920000000 1.0
C      1  0.5204760000000  0.5533930000000  0.4445080000000 1.0
C      1  0.5302570000000  0.4700180000000  0.5536960000000 1.0
C      1  0.4697430000000  0.5299820000000  0.4463040000000 1.0
C      1  0.4869310000000  0.4730710000000  0.5636770000000 1.0
C      1  0.5130690000000  0.5269290000000  0.4363230000000 1.0
C      1  0.5431760000000  0.4226480000000  0.4643320000000 1.0
C      1  0.4568240000000  0.5773520000000  0.5356680000000 1.0
C      1  0.5178690000000  0.5044790000000  0.4552850000000 1.0
C      1  0.4821310000000  0.4955210000000  0.5447150000000 1.0
C      1  0.4232110000000  0.5558020000000  0.5061060000000 1.0
C      1  0.5767890000000  0.4441980000000  0.4938940000000 1.0
C      1  0.5607610000000  0.4215890000000  0.4868220000000 1.0
C      1  0.4392390000000  0.5784110000000  0.5131780000000 1.0
C      1  0.4833100000000  0.5589640000000  0.4917020000000 1.0
C      1  0.5166900000000  0.4410360000000  0.5082980000000 1.0
C      1  0.4961090000000  0.4847210000000  0.4506560000000 1.0
C      1  0.5038910000000  0.5152790000000  0.5493440000000 1.0
C      1  0.5001410000000  0.4287990000000  0.5458810000000 1.0
C      1  0.4998590000000  0.5712010000000  0.4541190000000 1.0
C      1  0.5160900000000  0.5594180000000  0.5795120000000 1.0
C      1  0.4839100000000  0.4405820000000  0.4204880000000 1.0
C      1  0.5234250000000  0.4792870000000  0.4171260000000 1.0
C      1  0.4765750000000  0.5207130000000  0.5828740000000 1.0
C      1  0.5110810000000  0.4821660000000  0.5744790000000 1.0
C      1  0.4889190000000  0.5178340000000  0.4255210000000 1.0
C      1  0.4493770000000  0.4324410000000  0.5186870000000 1.0
C      1  0.5506230000000  0.5675590000000  0.4813130000000 1.0
C      1  0.4744030000000  0.4843880000000  0.4696310000000 1.0
C      1  0.5255970000000  0.5156120000000  0.5303690000000 1.0
C      1  0.4891080000000  0.4437350000000  0.4946770000000 1.0
C      1  0.5108920000000  0.5562650000000  0.5053230000000 1.0
C      1  0.4304310000000  0.4535800000000  0.5100760000000 1.0
C      1  0.5695690000000  0.5464200000000  0.4899240000000 1.0
C      1  0.5377090000000  0.4972990000000  0.4328220000000 1.0
C      1  0.4622910000000  0.5027010000000  0.5671780000000 1.0
C      1  0.4953020000000  0.4102040000000  0.5236090000000 1.0
C      1  0.5046980000000  0.5897960000000  0.4763910000000 1.0
C      1  0.4334280000000  0.5198010000000  0.4723240000000 1.0
C      1  0.5665720000000  0.4801990000000  0.5276760000000 1.0
C      1  0.5264340000000  0.5777470000000  0.4912460000000 1.0
C      1  0.4735660000000  0.4222530000000  0.5087540000000 1.0
C      1  0.4736920000000  0.5573620000000  0.4580520000000 1.0
C      1  0.5263080000000  0.4426380000000  0.5419480000000 1.0
C      1  0.5675130000000  0.4635220000000  0.4502240000000 1.0
C      1  0.4324870000000  0.5364780000000  0.5497760000000 1.0
C      1  0.4359720000000  0.5094220000000  0.5585480000000 1.0
C      1  0.5640280000000  0.4905780000000  0.4414520000000 1.0
C      1  0.5785520000000  0.5011480000000  0.5093630000000 1.0
C      1  0.4214480000000  0.4988520000000  0.4906370000000 1.0
C      1  0.4938500000000  0.4876340000000  0.4207460000000 1.0
C      1  0.5061500000000  0.5123660000000  0.5792540000000 1.0
C      1  0.5254400000000  0.5328370000000  0.5876800000000 1.0
C      1  0.4745600000000  0.4671630000000  0.4123200000000 1.0
C      1  0.4750160000000  0.4305850000000  0.4467640000000 1.0
C      1  0.5249840000000  0.5694150000000  0.5532360000000 1.0
C      1  0.5294260000000  0.4512750000000  0.4233820000000 1.0
C      1  0.4705740000000  0.5487250000000  0.5766180000000 1.0
C      1  0.4284830000000  0.4712630000000  0.4880110000000 1.0
C      1  0.5715170000000  0.5287370000000  0.5119890000000 1.0
C      1  0.4523650000000  0.4392320000000  0.4580420000000 1.0
C      1  0.5476350000000  0.5607680000000  0.5419580000000 1.0
C      1  0.4806760000000  0.5890220000000  0.4955410000000 1.0
C      1  0.5193240000000  0.4109780000000  0.5044590000000 1.0
C      1  0.4677770000000  0.5125080000000  0.4746780000000 1.0
C      1  0.5322230000000  0.4874920000000  0.5253220000000 1.0
C      1  0.5521610000000  0.5259660000000  0.5846720000000 1.0
C      1  0.4478390000000  0.4740340000000  0.4153280000000 1.0
C      1  0.5483890000000  0.4433240000000  0.4441280000000 1.0
C      1  0.4516110000000  0.5566760000000  0.5558720000000 1.0
C      1  0.5123810000000  0.5256040000000  0.5040270000000 1.0
C      1  0.4876190000000  0.4743960000000  0.4959730000000 1.0
C      1  0.4414090000000  0.5193370000000  0.4428590000000 1.0
C      1  0.5585910000000  0.4806630000000  0.5571410000000 1.0
C      1  0.5472280000000  0.4128060000000  0.5107200000000 1.0
C      1  0.4527720000000  0.5871940000000  0.4892800000000 1.0
C      1  0.4478150000000  0.5680570000000  0.4684210000000 1.0
C      1  0.5521850000000  0.4319430000000  0.5315790000000 1.0
C      1  0.4903070000000  0.5656740000000  0.5850030000000 1.0
C      1  0.5096930000000  0.4343260000000  0.4149970000000 1.0
C      1  0.5808800000000  0.4647480000000  0.4753320000000 1.0
C      1  0.4191200000000  0.5352520000000  0.5246680000000 1.0
C      1  0.4311510000000  0.4649620000000  0.5368240000000 1.0
C      1  0.5688490000000  0.5350380000000  0.4631760000000 1.0
C      1  0.5631580000000  0.5012900000000  0.5747310000000 1.0
C      1  0.4368420000000  0.4987100000000  0.4252690000000 1.0
C      1  0.4299080000000  0.5478770000000  0.4792580000000 1.0
C      1  0.5700920000000  0.4521230000000  0.5207420000000 1.0
C      1  0.5197860000000  0.4816360000000  0.4972700000000 1.0
C      1  0.4802140000000  0.5183640000000  0.5027300000000 1.0
C      1  0.4164400000000  0.5078710000000  0.5170370000000 1.0
C      1  0.5835600000000  0.4921290000000  0.4829630000000 1.0
C      1  0.4327610000000  0.4730150000000  0.4386240000000 1.0
C      1  0.5672390000000  0.5269850000000  0.5613760000000 1.0
C      1  0.5760070000000  0.5080990000000  0.4601880000000 1.0
C      1  0.4239930000000  0.4919010000000  0.5398120000000 1.0
C      1  0.5470960000000  0.5539520000000  0.4558630000000 1.0
C      1  0.4529040000000  0.4460480000000  0.5441370000000 1.0
END
