TITL C-20191-7609-5 -282.97808759708 125000 -517.74029773599 0 0 78 (D2d) n - 1
REM
REM in /rds/project/t2_vol4/rds-t2-cs072/BORA/CARBON/from-Arr/AIRSS/Generating-Clusters/GAP-ML-2020/Higher-Symm/SD-CG/HFTN-CG
REM
REM
REM
REM
REM
REM ./C.cell (b20cbc046b6831c77cfcea5457e17084)
REM AIRSS Version 0.9.1 bugfix July 2018 build 013d7b7c2542+ Fri, 06 Jul 2018 19:26:36 +0100
REM compiler GCC version 9.3.0
REM options -cpp -mtune=generic -march=x86-64 -g -O0
REM seed -1578733312 371748702 -422850904 -1146156889 10735586 -1731571721 -2105138506 1136408735 -907003725 -1293981368 947839243 -212912448 1212554606 -62216957 2060460189 233916353 -18345629 -39141691 1101064420 1350515745 -681014955 1297538756 -690924241 256130047 -1915487963 -663785732 1452223723 1114175745 -689056991 269693721 -1248412 -534395160 124827626
REM
CELL 1.54180   50.00000   50.00000   50.00000   90.00000   90.00000   90.00000
LATT -1
SFAC C  
C      1  0.4591950000000  0.5035550000000  0.5600270000000 1.0
C      1  0.5423560000000  0.4945870000000  0.5587760000000 1.0
C      1  0.5408140000000  0.5053490000000  0.4425500000000 1.0
C      1  0.4576360000000  0.4965090000000  0.4435170000000 1.0
C      1  0.5051880000000  0.4574840000000  0.5586780000000 1.0
C      1  0.4963630000000  0.5406580000000  0.5601250000000 1.0
C      1  0.5037190000000  0.5425100000000  0.4436390000000 1.0
C      1  0.4947300000000  0.4593490000000  0.4424300000000 1.0
C      1  0.5244800000000  0.5757000000000  0.4766510000000 1.0
C      1  0.4748410000000  0.4251130000000  0.4749070000000 1.0
C      1  0.4756670000000  0.5749260000000  0.5281900000000 1.0
C      1  0.5250100000000  0.4242620000000  0.5251250000000 1.0
C      1  0.5750020000000  0.5250920000000  0.4751670000000 1.0
C      1  0.4243200000000  0.4757200000000  0.4763870000000 1.0
C      1  0.5756310000000  0.4747920000000  0.5252590000000 1.0
C      1  0.4250470000000  0.5243960000000  0.5280570000000 1.0
C      1  0.4500030000000  0.4697040000000  0.4846560000000 1.0
C      1  0.5495510000000  0.5308300000000  0.4843040000000 1.0
C      1  0.5499370000000  0.4690930000000  0.5168040000000 1.0
C      1  0.4505100000000  0.5303730000000  0.5191070000000 1.0
C      1  0.4691240000000  0.4505500000000  0.4840960000000 1.0
C      1  0.5304300000000  0.5499840000000  0.4848670000000 1.0
C      1  0.4696680000000  0.5494970000000  0.5191560000000 1.0
C      1  0.5307780000000  0.4499680000000  0.5167520000000 1.0
C      1  0.4878270000000  0.4658510000000  0.5356010000000 1.0
C      1  0.5131000000000  0.5330390000000  0.5363370000000 1.0
C      1  0.5121070000000  0.4669410000000  0.4657620000000 1.0
C      1  0.4869670000000  0.5341690000000  0.4671710000000 1.0
C      1  0.4668460000000  0.4868670000000  0.5362160000000 1.0
C      1  0.5340810000000  0.5120230000000  0.5357220000000 1.0
C      1  0.4659450000000  0.5131850000000  0.4671160000000 1.0
C      1  0.5331290000000  0.4879250000000  0.4658170000000 1.0
C      1  0.4927530000000  0.4712560000000  0.4878490000000 1.0
C      1  0.5069010000000  0.5291600000000  0.4885850000000 1.0
C      1  0.5071900000000  0.4708300000000  0.5136630000000 1.0
C      1  0.4931570000000  0.5287550000000  0.5147750000000 1.0
C      1  0.4708610000000  0.4931850000000  0.4884900000000 1.0
C      1  0.5287920000000  0.5072300000000  0.4879430000000 1.0
C      1  0.4712220000000  0.5068600000000  0.5147180000000 1.0
C      1  0.5291250000000  0.4927250000000  0.5137200000000 1.0
C      1  0.5661610000000  0.5197200000000  0.5303850000000 1.0
C      1  0.4346310000000  0.4793300000000  0.5314930000000 1.0
C      1  0.4338790000000  0.5207710000000  0.4726970000000 1.0
C      1  0.5653290000000  0.4801780000000  0.4702970000000 1.0
C      1  0.5207060000000  0.5652530000000  0.5317180000000 1.0
C      1  0.4800850000000  0.4337980000000  0.5301600000000 1.0
C      1  0.5197850000000  0.4347160000000  0.4701770000000 1.0
C      1  0.4794220000000  0.5662330000000  0.4728160000000 1.0
C      1  0.5136790000000  0.4223020000000  0.4979360000000 1.0
C      1  0.4862710000000  0.5777570000000  0.5007840000000 1.0
C      1  0.4861670000000  0.4222640000000  0.5020190000000 1.0
C      1  0.5138810000000  0.5776760000000  0.5041320000000 1.0
C      1  0.4222710000000  0.5138700000000  0.5006170000000 1.0
C      1  0.5776800000000  0.4861900000000  0.4981040000000 1.0
C      1  0.4222930000000  0.4862500000000  0.5038920000000 1.0
C      1  0.5777570000000  0.5136900000000  0.5022580000000 1.0
C      1  0.5684620000000  0.5065620000000  0.4543290000000 1.0
C      1  0.4303110000000  0.4949090000000  0.4559840000000 1.0
C      1  0.4315500000000  0.5051980000000  0.5482940000000 1.0
C      1  0.5696780000000  0.4933310000000  0.5462640000000 1.0
C      1  0.5053350000000  0.5697980000000  0.4561810000000 1.0
C      1  0.4934360000000  0.4316730000000  0.4541330000000 1.0
C      1  0.5064270000000  0.4301930000000  0.5460980000000 1.0
C      1  0.4948000000000  0.5683360000000  0.5484600000000 1.0
C      1  0.5474450000000  0.4344400000000  0.4600310000000 1.0
C      1  0.4515020000000  0.5668210000000  0.4634230000000 1.0
C      1  0.4524240000000  0.4332530000000  0.5402940000000 1.0
C      1  0.5486280000000  0.5654860000000  0.5411230000000 1.0
C      1  0.4333660000000  0.5487170000000  0.4633760000000 1.0
C      1  0.5655810000000  0.4525440000000  0.4600780000000 1.0
C      1  0.4343230000000  0.4513850000000  0.5408240000000 1.0
C      1  0.5667290000000  0.5473550000000  0.5405920000000 1.0
C      1  0.4804150000000  0.4824970000000  0.4312420000000 1.0
C      1  0.5177210000000  0.5197360000000  0.4313400000000 1.0
C      1  0.5195480000000  0.4802350000000  0.5705990000000 1.0
C      1  0.4823160000000  0.5175310000000  0.5716910000000 1.0
C      1  0.5010490000000  0.4987430000000  0.5799390000000 1.0
C      1  0.4989510000000  0.5012570000000  0.4224960000000 1.0
END
