TITL C-207216-9047-11 0.793551028601145 125000 -107.951286521828 0 0 17 (C1) n - 1
REM
REM in /rds/project/t2_vol4/rds-t2-cs072/BORA/CARBON/from-Arr/AIRSS/Generating-Clusters/GAP-ML-2020/Higher-Symm/SD-CG/HFTN-CG
REM
REM
REM
REM
REM
REM ./C.cell (b20cbc046b6831c77cfcea5457e17084)
REM AIRSS Version 0.9.1 bugfix July 2018 build 013d7b7c2542+ Fri, 06 Jul 2018 19:26:36 +0100
REM compiler GCC version 9.3.0
REM options -cpp -mtune=generic -march=x86-64 -g -O0
REM seed 920080579 -1783818124 -262994436 -659200937 681276763 -668099786 -27808792 2092855791 929965638 1833291873 -63866277 499963320 -1238084551 -1606816446 -335669645 1793905256 1861005233 -1730205864 -1076875618 1253456267 1487504401 1668808793 -232277404 -1531613601 -215216092 223491312 248831850 1112049345 -2015922974 895885611 -1480525079 1718603537 -772270416
REM
CELL 1.54180   50.00000   50.00000   50.00000   90.00000   90.00000   90.00000
LATT -1
SFAC C  
C      1  0.5316020000000  0.5164020000000  0.4826860000000 1.0
C      1  0.5314190000000  0.5182510000000  0.5108220000000 1.0
C      1  0.5291400000000  0.4916330000000  0.5226890000000 1.0
C      1  0.5271590000000  0.4722410000000  0.5012270000000 1.0
C      1  0.5292600000000  0.4876380000000  0.4762980000000 1.0
C      1  0.4856400000000  0.4938140000000  0.4617040000000 1.0
C      1  0.4821100000000  0.5202830000000  0.4735030000000 1.0
C      1  0.4836220000000  0.5184110000000  0.5203210000000 1.0
C      1  0.4905200000000  0.5038610000000  0.5434780000000 1.0
C      1  0.4841400000000  0.4575910000000  0.4949580000000 1.0
C      1  0.5064500000000  0.5345950000000  0.5102930000000 1.0
C      1  0.5132130000000  0.4921090000000  0.5470000000000 1.0
C      1  0.5076460000000  0.4499430000000  0.5015290000000 1.0
C      1  0.5106460000000  0.4832440000000  0.4566160000000 1.0
C      1  0.5059230000000  0.5332600000000  0.4815790000000 1.0
C      1  0.4691210000000  0.5082930000000  0.4976240000000 1.0
C      1  0.4732130000000  0.4808230000000  0.4852210000000 1.0
END
