TITL C-20191-7609-7 0.346142301953407 125000 -908.896878778995 0 0 129 (C1) n - 1
REM
REM in /rds/project/t2_vol4/rds-t2-cs072/BORA/CARBON/from-Arr/AIRSS/Generating-Clusters/GAP-ML-2020/Higher-Symm/SD-CG/HFTN-CG
REM
REM
REM
REM
REM
REM ./C.cell (b20cbc046b6831c77cfcea5457e17084)
REM AIRSS Version 0.9.1 bugfix July 2018 build 013d7b7c2542+ Fri, 06 Jul 2018 19:26:36 +0100
REM compiler GCC version 9.3.0
REM options -cpp -mtune=generic -march=x86-64 -g -O0
REM seed 874277964 -1536672359 -257443571 510493705 -1688079957 -557453061 -1659782661 -1035922145 -897895100 1656635810 1752404442 -4408100 743359197 507386899 1186856072 -837080093 315087330 -823672075 -951785839 -788289529 -1813965077 1805380298 -852819989 -1812191538 -808362762 -82876755 -1386378511 1728596732 1146588299 1000580456 -1738436734 -653470675 -1342937579
REM
CELL 1.54180   50.00000   50.00000   50.00000   90.00000   90.00000   90.00000
LATT -1
SFAC C  
C      1  0.4970140000000  0.5242850000000  0.4216130000000 1.0
C      1  0.5067500000000  0.4649860000000  0.4093040000000 1.0
C      1  0.4760620000000  0.5303290000000  0.4713920000000 1.0
C      1  0.4756420000000  0.4714930000000  0.4721650000000 1.0
C      1  0.4416430000000  0.5319920000000  0.5630030000000 1.0
C      1  0.4416660000000  0.4680600000000  0.5625130000000 1.0
C      1  0.5511280000000  0.4076310000000  0.5142790000000 1.0
C      1  0.5500330000000  0.5911910000000  0.5125230000000 1.0
C      1  0.5626310000000  0.5871630000000  0.4877370000000 1.0
C      1  0.5631160000000  0.4123320000000  0.4890960000000 1.0
C      1  0.4794630000000  0.4449030000000  0.4802420000000 1.0
C      1  0.4814660000000  0.5561920000000  0.4804360000000 1.0
C      1  0.4943650000000  0.4854640000000  0.4559860000000 1.0
C      1  0.4944510000000  0.5156150000000  0.4534560000000 1.0
C      1  0.5681270000000  0.4440390000000  0.4636470000000 1.0
C      1  0.5669330000000  0.5547760000000  0.4632940000000 1.0
C      1  0.5811850000000  0.4436070000000  0.5181310000000 1.0
C      1  0.5814490000000  0.5555500000000  0.5171070000000 1.0
C      1  0.4254370000000  0.4686360000000  0.4505520000000 1.0
C      1  0.4236130000000  0.5331940000000  0.4519320000000 1.0
C      1  0.5238420000000  0.4382310000000  0.5666690000000 1.0
C      1  0.5240090000000  0.5607020000000  0.5676060000000 1.0
C      1  0.4885170000000  0.5327290000000  0.5778100000000 1.0
C      1  0.4886400000000  0.4669180000000  0.5774550000000 1.0
C      1  0.5232970000000  0.4129260000000  0.4583410000000 1.0
C      1  0.5215940000000  0.5854890000000  0.4585250000000 1.0
C      1  0.4598300000000  0.5152630000000  0.5461690000000 1.0
C      1  0.4597620000000  0.4855280000000  0.5463590000000 1.0
C      1  0.5793510000000  0.4854810000000  0.5476930000000 1.0
C      1  0.5794040000000  0.5139330000000  0.5476410000000 1.0
C      1  0.5029260000000  0.4032020000000  0.5281740000000 1.0
C      1  0.5030550000000  0.5970050000000  0.5285370000000 1.0
C      1  0.4773150000000  0.4209950000000  0.4626090000000 1.0
C      1  0.4754920000000  0.5801870000000  0.4633330000000 1.0
C      1  0.4658720000000  0.5498050000000  0.5717650000000 1.0
C      1  0.4658470000000  0.4500400000000  0.5712200000000 1.0
C      1  0.4741810000000  0.4316890000000  0.5521470000000 1.0
C      1  0.4742110000000  0.5683020000000  0.5527540000000 1.0
C      1  0.5867220000000  0.4708030000000  0.5238260000000 1.0
C      1  0.5871750000000  0.5285530000000  0.5237140000000 1.0
C      1  0.4980880000000  0.5738720000000  0.4448180000000 1.0
C      1  0.5001370000000  0.4241930000000  0.4439410000000 1.0
C      1  0.5353440000000  0.4850470000000  0.5330770000000 1.0
C      1  0.5356560000000  0.5145590000000  0.5332110000000 1.0
C      1  0.5119610000000  0.6016490000000  0.4818880000000 1.0
C      1  0.5130650000000  0.3982330000000  0.4822490000000 1.0
C      1  0.4251360000000  0.5410400000000  0.5384100000000 1.0
C      1  0.4253300000000  0.4593190000000  0.5374490000000 1.0
C      1  0.4851790000000  0.4014260000000  0.4841820000000 1.0
C      1  0.4839920000000  0.5995270000000  0.4846200000000 1.0
C      1  0.4610200000000  0.5733390000000  0.5271970000000 1.0
C      1  0.4610110000000  0.4270530000000  0.5263160000000 1.0
C      1  0.5814750000000  0.4855560000000  0.4715670000000 1.0
C      1  0.5814770000000  0.5137330000000  0.4714090000000 1.0
C      1  0.4593310000000  0.5521310000000  0.4303180000000 1.0
C      1  0.4626670000000  0.4504990000000  0.4294520000000 1.0
C      1  0.5743580000000  0.5148790000000  0.5007280000000 1.0
C      1  0.5741250000000  0.4846980000000  0.5006440000000 1.0
C      1  0.5243720000000  0.3988210000000  0.5099090000000 1.0
C      1  0.5236860000000  0.6012290000000  0.5091340000000 1.0
C      1  0.4244500000000  0.4466390000000  0.4925840000000 1.0
C      1  0.4229100000000  0.5545190000000  0.4940590000000 1.0
C      1  0.4512780000000  0.4856110000000  0.5180980000000 1.0
C      1  0.4512260000000  0.5162230000000  0.5178410000000 1.0
C      1  0.4886960000000  0.5532930000000  0.4266330000000 1.0
C      1  0.4923460000000  0.4445320000000  0.4251360000000 1.0
C      1  0.5315830000000  0.4480920000000  0.5048400000000 1.0
C      1  0.5357750000000  0.5539470000000  0.5117480000000 1.0
C      1  0.5535430000000  0.5256980000000  0.5573100000000 1.0
C      1  0.5534680000000  0.4733710000000  0.5569220000000 1.0
C      1  0.4885830000000  0.5153030000000  0.5540170000000 1.0
C      1  0.4885150000000  0.4850200000000  0.5540930000000 1.0
C      1  0.4447420000000  0.4743560000000  0.4288760000000 1.0
C      1  0.4425950000000  0.5281510000000  0.4302550000000 1.0
C      1  0.4309220000000  0.4438870000000  0.4641230000000 1.0
C      1  0.4290610000000  0.5579100000000  0.4656820000000 1.0
C      1  0.4194310000000  0.5169150000000  0.5201410000000 1.0
C      1  0.4199280000000  0.4836520000000  0.5196290000000 1.0
C      1  0.5672040000000  0.5290790000000  0.4518070000000 1.0
C      1  0.5677550000000  0.4696740000000  0.4522260000000 1.0
C      1  0.5576350000000  0.5675570000000  0.5302300000000 1.0
C      1  0.5614760000000  0.4284590000000  0.5332400000000 1.0
C      1  0.4341720000000  0.5612730000000  0.5204720000000 1.0
C      1  0.4344530000000  0.4393300000000  0.5193200000000 1.0
C      1  0.5504030000000  0.4203010000000  0.4638310000000 1.0
C      1  0.5489460000000  0.5784880000000  0.4633110000000 1.0
C      1  0.5072440000000  0.5252540000000  0.5323280000000 1.0
C      1  0.5067360000000  0.4754220000000  0.5321030000000 1.0
C      1  0.5033440000000  0.5737260000000  0.5482920000000 1.0
C      1  0.5030160000000  0.4261100000000  0.5476150000000 1.0
C      1  0.5159700000000  0.4618320000000  0.5815670000000 1.0
C      1  0.5159220000000  0.5370130000000  0.5820850000000 1.0
C      1  0.5248210000000  0.5128510000000  0.4172310000000 1.0
C      1  0.5276070000000  0.4844130000000  0.4156430000000 1.0
C      1  0.5068180000000  0.4476430000000  0.5220430000000 1.0
C      1  0.5080810000000  0.5536030000000  0.5240000000000 1.0
C      1  0.4987000000000  0.4860150000000  0.5064630000000 1.0
C      1  0.4991090000000  0.5162560000000  0.5060250000000 1.0
C      1  0.5787140000000  0.5633000000000  0.4892880000000 1.0
C      1  0.5793980000000  0.4358130000000  0.4902280000000 1.0
C      1  0.5438320000000  0.4743210000000  0.5058370000000 1.0
C      1  0.5444550000000  0.5260470000000  0.5065110000000 1.0
C      1  0.5241070000000  0.5159680000000  0.4884660000000 1.0
C      1  0.5236940000000  0.4854550000000  0.4882090000000 1.0
C      1  0.4838690000000  0.5620120000000  0.5083450000000 1.0
C      1  0.4824680000000  0.4388030000000  0.5079010000000 1.0
C      1  0.4883350000000  0.4822580000000  0.3986040000000 1.0
C      1  0.4773430000000  0.5049670000000  0.4080030000000 1.0
C      1  0.4119320000000  0.4861170000000  0.4694320000000 1.0
C      1  0.4110670000000  0.5148930000000  0.4702010000000 1.0
C      1  0.4798300000000  0.4078350000000  0.5120350000000 1.0
C      1  0.4796830000000  0.5924500000000  0.5127900000000 1.0
C      1  0.5425160000000  0.5153370000000  0.4420240000000 1.0
C      1  0.5428650000000  0.4834800000000  0.4421000000000 1.0
C      1  0.4118220000000  0.4721930000000  0.4944760000000 1.0
C      1  0.4106810000000  0.5285610000000  0.4955210000000 1.0
C      1  0.4532040000000  0.4324470000000  0.4500390000000 1.0
C      1  0.4508430000000  0.5697940000000  0.4512590000000 1.0
C      1  0.4708340000000  0.4860120000000  0.4955220000000 1.0
C      1  0.4709490000000  0.5161230000000  0.4950030000000 1.0
C      1  0.5351390000000  0.5138790000000  0.5783480000000 1.0
C      1  0.5352480000000  0.4848830000000  0.5783980000000 1.0
C      1  0.5212700000000  0.5241730000000  0.4614250000000 1.0
C      1  0.5204520000000  0.4761260000000  0.4613150000000 1.0
C      1  0.5494550000000  0.4429490000000  0.5551090000000 1.0
C      1  0.5492780000000  0.5556270000000  0.5560200000000 1.0
C      1  0.4274250000000  0.5129170000000  0.5820920000000 1.0
C      1  0.4274690000000  0.4868460000000  0.5817880000000 1.0
C      1  0.4512070000000  0.5020600000000  0.4196840000000 1.0
END
