TITL C-20170-8636-9 0.0797950913195919 125000 -669.482113914055 0 0 95 (C1) n - 1
REM
REM in /rds/project/t2_vol4/rds-t2-cs072/BORA/CARBON/from-Arr/AIRSS/Generating-Clusters/GAP-ML-2020/Higher-Symm/SD-CG/HFTN-CG
REM
REM
REM
REM
REM
REM ./C.cell (b20cbc046b6831c77cfcea5457e17084)
REM AIRSS Version 0.9.1 bugfix July 2018 build 013d7b7c2542+ Fri, 06 Jul 2018 19:26:36 +0100
REM compiler GCC version 9.3.0
REM options -cpp -mtune=generic -march=x86-64 -g -O0
REM seed 1718173113 2071321693 271110460 -763110848 644979148 -1855687697 -555063345 1288731055 394729531 1353896729 -924195072 -1459280221 -656165617 1813379299 -1996192121 3334567 -974135868 -353657860 20798879 -2135949653 -144840025 407705376 -1438779487 831996034 1399372557 -636025362 -615611765 1899766942 -1031463353 -835322093 1372966164 -2108883400 -1471325092
REM
CELL 1.54180   50.00000   50.00000   50.00000   90.00000   90.00000   90.00000
LATT -1
SFAC C  
C      1  0.5795940000000  0.4857830000000  0.4584210000000 1.0
C      1  0.5750030000000  0.5290840000000  0.4648480000000 1.0
C      1  0.5429860000000  0.5730850000000  0.4615700000000 1.0
C      1  0.4988360000000  0.5793570000000  0.4617730000000 1.0
C      1  0.4571110000000  0.5624880000000  0.4699880000000 1.0
C      1  0.4280950000000  0.5299320000000  0.4640790000000 1.0
C      1  0.4238230000000  0.4863650000000  0.4696440000000 1.0
C      1  0.4409430000000  0.4461420000000  0.4649950000000 1.0
C      1  0.4785990000000  0.4243970000000  0.4691560000000 1.0
C      1  0.5219550000000  0.4241040000000  0.4638640000000 1.0
C      1  0.5583320000000  0.4478520000000  0.4655920000000 1.0
C      1  0.4683420000000  0.5712200000000  0.5283730000000 1.0
C      1  0.4426010000000  0.5569660000000  0.5291920000000 1.0
C      1  0.4156450000000  0.5006210000000  0.5303510000000 1.0
C      1  0.4209170000000  0.4712850000000  0.5309030000000 1.0
C      1  0.4635290000000  0.4246770000000  0.5310220000000 1.0
C      1  0.4923850000000  0.4178020000000  0.5306400000000 1.0
C      1  0.5515940000000  0.4385730000000  0.5282560000000 1.0
C      1  0.5639840000000  0.4668270000000  0.5246110000000 1.0
C      1  0.5868200000000  0.5144490000000  0.5210980000000 1.0
C      1  0.5500540000000  0.5530020000000  0.5312950000000 1.0
C      1  0.5288660000000  0.5718840000000  0.5310390000000 1.0
C      1  0.5350860000000  0.4355250000000  0.5511730000000 1.0
C      1  0.5660540000000  0.4841590000000  0.5503580000000 1.0
C      1  0.5721760000000  0.5117830000000  0.5447770000000 1.0
C      1  0.5547090000000  0.5340220000000  0.5525620000000 1.0
C      1  0.5122200000000  0.5696760000000  0.5529150000000 1.0
C      1  0.4833580000000  0.5692100000000  0.5522690000000 1.0
C      1  0.4393570000000  0.5402600000000  0.5517490000000 1.0
C      1  0.4267290000000  0.5141350000000  0.5525830000000 1.0
C      1  0.4354580000000  0.4618500000000  0.5533490000000 1.0
C      1  0.4557060000000  0.4407200000000  0.5530080000000 1.0
C      1  0.5069550000000  0.4301730000000  0.5508850000000 1.0
C      1  0.4516780000000  0.4776610000000  0.5723570000000 1.0
C      1  0.4724300000000  0.4565350000000  0.5713790000000 1.0
C      1  0.5012290000000  0.4580220000000  0.5676310000000 1.0
C      1  0.5318380000000  0.4557850000000  0.5706940000000 1.0
C      1  0.5463020000000  0.4799540000000  0.5702100000000 1.0
C      1  0.5268800000000  0.5004990000000  0.5737560000000 1.0
C      1  0.5326220000000  0.5281850000000  0.5705780000000 1.0
C      1  0.5122740000000  0.5472680000000  0.5717990000000 1.0
C      1  0.4826700000000  0.5476000000000  0.5726070000000 1.0
C      1  0.4595140000000  0.5318270000000  0.5717340000000 1.0
C      1  0.4468660000000  0.5049820000000  0.5724800000000 1.0
C      1  0.4850660000000  0.5790610000000  0.5063260000000 1.0
C      1  0.4266910000000  0.5462470000000  0.5077030000000 1.0
C      1  0.4142730000000  0.5192830000000  0.5079290000000 1.0
C      1  0.4253970000000  0.4525010000000  0.5091130000000 1.0
C      1  0.4451090000000  0.4300710000000  0.5090500000000 1.0
C      1  0.5107900000000  0.4130120000000  0.5083720000000 1.0
C      1  0.5391730000000  0.4226260000000  0.5074710000000 1.0
C      1  0.5855660000000  0.4704800000000  0.5029830000000 1.0
C      1  0.5953840000000  0.4976670000000  0.5006500000000 1.0
C      1  0.5717570000000  0.5523500000000  0.4810870000000 1.0
C      1  0.5151510000000  0.5752610000000  0.5044340000000 1.0
C      1  0.5533330000000  0.4912270000000  0.4468940000000 1.0
C      1  0.5499020000000  0.5214960000000  0.4516510000000 1.0
C      1  0.5288570000000  0.5447370000000  0.4580750000000 1.0
C      1  0.5002830000000  0.5529750000000  0.4502490000000 1.0
C      1  0.4737240000000  0.5389680000000  0.4587880000000 1.0
C      1  0.4507750000000  0.5192910000000  0.4494200000000 1.0
C      1  0.4471460000000  0.4899290000000  0.4517410000000 1.0
C      1  0.4593420000000  0.4629690000000  0.4495160000000 1.0
C      1  0.4848650000000  0.4474320000000  0.4503620000000 1.0
C      1  0.5146930000000  0.4475370000000  0.4477200000000 1.0
C      1  0.5398710000000  0.4641070000000  0.4484710000000 1.0
C      1  0.5059380000000  0.5249080000000  0.4985390000000 1.0
C      1  0.4790940000000  0.5261680000000  0.4888060000000 1.0
C      1  0.4621280000000  0.5108610000000  0.5027070000000 1.0
C      1  0.4713460000000  0.4929710000000  0.5210320000000 1.0
C      1  0.4801200000000  0.4707920000000  0.5078370000000 1.0
C      1  0.5049880000000  0.4652660000000  0.5054430000000 1.0
C      1  0.5236750000000  0.4821910000000  0.4956280000000 1.0
C      1  0.5450000000000  0.4897540000000  0.5113160000000 1.0
C      1  0.5602880000000  0.5144370000000  0.5088570000000 1.0
C      1  0.5530080000000  0.5426230000000  0.5035360000000 1.0
C      1  0.5253970000000  0.5457430000000  0.4908140000000 1.0
C      1  0.5452870000000  0.4267490000000  0.4789900000000 1.0
C      1  0.5798440000000  0.4627630000000  0.4754990000000 1.0
C      1  0.5912670000000  0.5071270000000  0.4725000000000 1.0
C      1  0.5689830000000  0.5758560000000  0.4670730000000 1.0
C      1  0.5218720000000  0.5865190000000  0.4764880000000 1.0
C      1  0.4760490000000  0.5809740000000  0.4793130000000 1.0
C      1  0.4330480000000  0.5526080000000  0.4801420000000 1.0
C      1  0.4147480000000  0.5109390000000  0.4800510000000 1.0
C      1  0.4230600000000  0.4607200000000  0.4812090000000 1.0
C      1  0.4528740000000  0.4262040000000  0.4808510000000 1.0
C      1  0.5018850000000  0.4133720000000  0.4805280000000 1.0
C      1  0.5011880000000  0.4972100000000  0.4536460000000 1.0
C      1  0.5012620000000  0.4996440000000  0.4283270000000 1.0
C      1  0.5081830000000  0.5197000000000  0.5269460000000 1.0
C      1  0.4996160000000  0.4979980000000  0.4030280000000 1.0
C      1  0.5125560000000  0.5018020000000  0.4781240000000 1.0
C      1  0.4926730000000  0.5014100000000  0.5397210000000 1.0
C      1  0.5026940000000  0.4886150000000  0.5640010000000 1.0
END
