TITL C-20196-7543-12 -0.0724631304929593 125000 -321.550914016364 0 0 48 (C6h) n - 1
REM
REM in /rds/project/t2_vol4/rds-t2-cs072/BORA/CARBON/from-Arr/AIRSS/Generating-Clusters/GAP-ML-2020/Higher-Symm/SD-CG/HFTN-CG
REM
REM
REM
REM
REM
REM ./C.cell (b20cbc046b6831c77cfcea5457e17084)
REM AIRSS Version 0.9.1 bugfix July 2018 build 013d7b7c2542+ Fri, 06 Jul 2018 19:26:36 +0100
REM compiler GCC version 9.3.0
REM options -cpp -mtune=generic -march=x86-64 -g -O0
REM seed 41206557 1406966090 1760463313 876969598 -1786770511 1275592666 85536355 -418170883 1854932494 -830833185 77657011 679462310 1718744591 774193899 975600475 -945945576 2117221613 1762072793 -285105696 -725815371 971106182 1995574245 231409827 31936398 -1872211697 -1495336838 2121915215 -126235301 1061013203 -1538457309 1044032489 -724162908 35159160
REM
CELL 1.54180   50.00000   50.00000   50.00000   90.00000   90.00000   90.00000
LATT -1
SFAC C  
C      1  0.4695640000000  0.5000000000000  0.4668460000000 1.0
C      1  0.5152160000000  0.5263580000000  0.4668450000000 1.0
C      1  0.5152160000000  0.4736440000000  0.4668440000000 1.0
C      1  0.4695670000000  0.4999990000000  0.5331560000000 1.0
C      1  0.5152190000000  0.4736420000000  0.5331540000000 1.0
C      1  0.5152180000000  0.5263570000000  0.5331550000000 1.0
C      1  0.5304360000000  0.5000000000000  0.5331540000000 1.0
C      1  0.4847840000000  0.4736420000000  0.5331550000000 1.0
C      1  0.4847840000000  0.5263560000000  0.5331560000000 1.0
C      1  0.5304330000000  0.5000010000000  0.4668440000000 1.0
C      1  0.4847810000000  0.5263580000000  0.4668460000000 1.0
C      1  0.4847820000000  0.4736430000000  0.4668450000000 1.0
C      1  0.5569580000000  0.5000000000000  0.5204760000000 1.0
C      1  0.4715230000000  0.4506730000000  0.5204790000000 1.0
C      1  0.4715220000000  0.5493260000000  0.5204810000000 1.0
C      1  0.5569560000000  0.5000010000000  0.4795190000000 1.0
C      1  0.4715200000000  0.5493260000000  0.4795240000000 1.0
C      1  0.4715210000000  0.4506740000000  0.4795220000000 1.0
C      1  0.4430420000000  0.5000000000000  0.4795240000000 1.0
C      1  0.5284770000000  0.5493270000000  0.4795210000000 1.0
C      1  0.5284780000000  0.4506740000000  0.4795190000000 1.0
C      1  0.4430440000000  0.4999990000000  0.5204810000000 1.0
C      1  0.5284800000000  0.4506740000000  0.5204760000000 1.0
C      1  0.5284790000000  0.5493260000000  0.5204780000000 1.0
C      1  0.4716480000000  0.5000010000000  0.4357020000000 1.0
C      1  0.5141720000000  0.5245530000000  0.4357010000000 1.0
C      1  0.5141720000000  0.4754500000000  0.4357000000000 1.0
C      1  0.4716530000000  0.4999990000000  0.5643000000000 1.0
C      1  0.5141770000000  0.4754480000000  0.5642980000000 1.0
C      1  0.5141770000000  0.5245500000000  0.5642990000000 1.0
C      1  0.5283520000000  0.4999990000000  0.5642980000000 1.0
C      1  0.4858280000000  0.4754470000000  0.5642990000000 1.0
C      1  0.4858280000000  0.5245500000000  0.5643000000000 1.0
C      1  0.5283470000000  0.5000010000000  0.4357000000000 1.0
C      1  0.4858230000000  0.5245520000000  0.4357020000000 1.0
C      1  0.4858230000000  0.4754500000000  0.4357010000000 1.0
C      1  0.4868010000000  0.5634660000000  0.5000020000000 1.0
C      1  0.5615630000000  0.4796970000000  0.4999970000000 1.0
C      1  0.4516360000000  0.4568370000000  0.5000010000000 1.0
C      1  0.4868020000000  0.4365330000000  0.4999990000000 1.0
C      1  0.5615620000000  0.5203040000000  0.4999980000000 1.0
C      1  0.4516350000000  0.5431630000000  0.5000030000000 1.0
C      1  0.5131990000000  0.4365340000000  0.4999980000000 1.0
C      1  0.4384370000000  0.5203030000000  0.5000030000000 1.0
C      1  0.5483640000000  0.5431630000000  0.4999990000000 1.0
C      1  0.5131980000000  0.5634670000000  0.5000010000000 1.0
C      1  0.4384380000000  0.4796960000000  0.5000020000000 1.0
C      1  0.5483650000000  0.4568370000000  0.4999970000000 1.0
END
