TITL C-205059-6510-5 -0.101902888448513 125000 -826.856472559324 0 0 115 (C3) n - 1
REM
REM in /rds/project/t2_vol4/rds-t2-cs072/BORA/CARBON/from-Arr/AIRSS/Generating-Clusters/GAP-ML-2020/Higher-Symm/SD-CG/HFTN-CG
REM
REM
REM
REM
REM
REM ./C.cell (b20cbc046b6831c77cfcea5457e17084)
REM AIRSS Version 0.9.1 bugfix July 2018 build 013d7b7c2542+ Fri, 06 Jul 2018 19:26:36 +0100
REM compiler GCC version 9.3.0
REM options -cpp -mtune=generic -march=x86-64 -g -O0
REM seed -1284912093 -1607897929 1332115960 -1250428110 937331739 700245848 646192548 1903409978 632954130 -179301654 1317389579 -1392801644 1369262864 -704369675 638241527 1836451318 -1562856465 727426949 -1337494832 1127581851 2073665193 1118222909 -1126488301 869898835 896621174 -1278947169 -1867667163 970902263 -653523090 -819529204 -516868557 551190888 2051469426
REM
CELL 1.54180   50.00000   50.00000   50.00000   90.00000   90.00000   90.00000
LATT -1
SFAC C  
C      1  0.5124310000000  0.5642750000000  0.4659610000000 1.0
C      1  0.4810010000000  0.4405090000000  0.4753680000000 1.0
C      1  0.4640420000000  0.5642760000000  0.5056220000000 1.0
C      1  0.4879010000000  0.4405100000000  0.5281380000000 1.0
C      1  0.5225840000000  0.5642750000000  0.5276980000000 1.0
C      1  0.5301510000000  0.4405090000000  0.4957780000000 1.0
C      1  0.4910040000000  0.4691840000000  0.5304080000000 1.0
C      1  0.5201180000000  0.5326090000000  0.5201820000000 1.0
C      1  0.5305660000000  0.4691830000000  0.4919560000000 1.0
C      1  0.5071540000000  0.5326090000000  0.4718550000000 1.0
C      1  0.4774840000000  0.4691840000000  0.4769200000000 1.0
C      1  0.4717840000000  0.5326100000000  0.5072450000000 1.0
C      1  0.4189360000000  0.4875370000000  0.4475860000000 1.0
C      1  0.4140160000000  0.5112870000000  0.5435710000000 1.0
C      1  0.4948750000000  0.4875380000000  0.5957790000000 1.0
C      1  0.5804610000000  0.5112860000000  0.5520470000000 1.0
C      1  0.5852440000000  0.4875360000000  0.4559170000000 1.0
C      1  0.5045790000000  0.5112850000000  0.4036640000000 1.0
C      1  0.4081160000000  0.5220740000000  0.4750920000000 1.0
C      1  0.4326270000000  0.4764940000000  0.5667380000000 1.0
C      1  0.5241060000000  0.5220740000000  0.5913960000000 1.0
C      1  0.5912170000000  0.4764920000000  0.5243470000000 1.0
C      1  0.5668340000000  0.5220720000000  0.4327940000000 1.0
C      1  0.4752110000000  0.4764930000000  0.4081980000000 1.0
C      1  0.5275710000000  0.4270350000000  0.4691730000000 1.0
C      1  0.4838900000000  0.5783680000000  0.4624230000000 1.0
C      1  0.4592510000000  0.4270360000000  0.4909050000000 1.0
C      1  0.4752490000000  0.5783690000000  0.5321080000000 1.0
C      1  0.5122310000000  0.4270360000000  0.5392060000000 1.0
C      1  0.5399180000000  0.5783680000000  0.5047490000000 1.0
C      1  0.5504810000000  0.5734990000000  0.5292840000000 1.0
C      1  0.5524220000000  0.4239270000000  0.4583900000000 1.0
C      1  0.4998560000000  0.5734990000000  0.4410080000000 1.0
C      1  0.4374870000000  0.4239280000000  0.4747750000000 1.0
C      1  0.4487200000000  0.5735000000000  0.5289880000000 1.0
C      1  0.5091440000000  0.4239290000000  0.5661190000000 1.0
C      1  0.4714350000000  0.4873620000000  0.5223930000000 1.0
C      1  0.5058820000000  0.5138680000000  0.5381600000000 1.0
C      1  0.5334100000000  0.4873610000000  0.5129100000000 1.0
C      1  0.5298420000000  0.5138670000000  0.4751940000000 1.0
C      1  0.4942090000000  0.4873610000000  0.4639800000000 1.0
C      1  0.4633320000000  0.5138680000000  0.4859280000000 1.0
C      1  0.5535900000000  0.5470610000000  0.4370910000000 1.0
C      1  0.4725790000000  0.4514560000000  0.4220120000000 1.0
C      1  0.4184600000000  0.5470630000000  0.4844120000000 1.0
C      1  0.4459050000000  0.4514570000000  0.5621100000000 1.0
C      1  0.5270060000000  0.5470630000000  0.5777780000000 1.0
C      1  0.5805700000000  0.4514550000000  0.5151620000000 1.0
C      1  0.5709560000000  0.4439140000000  0.4614150000000 1.0
C      1  0.5037600000000  0.5543030000000  0.4204100000000 1.0
C      1  0.4308400000000  0.4439150000000  0.4572120000000 1.0
C      1  0.4289290000000  0.5543050000000  0.5359070000000 1.0
C      1  0.4972580000000  0.4439160000000  0.5806570000000 1.0
C      1  0.5663680000000  0.5543040000000  0.5429640000000 1.0
C      1  0.5180800000000  0.4649300000000  0.4199120000000 1.0
C      1  0.4395450000000  0.5343040000000  0.4441600000000 1.0
C      1  0.4213360000000  0.4649320000000  0.5237550000000 1.0
C      1  0.4816050000000  0.5343040000000  0.5796440000000 1.0
C      1  0.5596380000000  0.4649310000000  0.5556160000000 1.0
C      1  0.5779070000000  0.5343020000000  0.4754770000000 1.0
C      1  0.4691720000000  0.4786740000000  0.5900730000000 1.0
C      1  0.5631130000000  0.5195920000000  0.5721190000000 1.0
C      1  0.5931540000000  0.4786720000000  0.4810300000000 1.0
C      1  0.5306350000000  0.5195910000000  0.4086510000000 1.0
C      1  0.4367290000000  0.4786730000000  0.4281800000000 1.0
C      1  0.4053080000000  0.5195930000000  0.5185120000000 1.0
C      1  0.5412180000000  0.5145920000000  0.5037530000000 1.0
C      1  0.5237690000000  0.4860070000000  0.4667710000000 1.0
C      1  0.4823760000000  0.5145920000000  0.4617960000000 1.0
C      1  0.4590720000000  0.4860070000000  0.4953980000000 1.0
C      1  0.4754620000000  0.5145920000000  0.5337330000000 1.0
C      1  0.5162130000000  0.4860070000000  0.5371140000000 1.0
C      1  0.4994910000000  0.4444320000000  0.4306090000000 1.0
C      1  0.4390450000000  0.5546870000000  0.4657570000000 1.0
C      1  0.4398930000000  0.4444340000000  0.5345050000000 1.0
C      1  0.5005580000000  0.5546870000000  0.5692780000000 1.0
C      1  0.5596690000000  0.4444320000000  0.5341700000000 1.0
C      1  0.5594540000000  0.5546860000000  0.4642450000000 1.0
C      1  0.5312970000000  0.5460870000000  0.4189410000000 1.0
C      1  0.4457260000000  0.4520440000000  0.4331210000000 1.0
C      1  0.4138880000000  0.5460890000000  0.5127930000000 1.0
C      1  0.4689520000000  0.4520450000000  0.5798110000000 1.0
C      1  0.5538710000000  0.5460880000000  0.5675470000000 1.0
C      1  0.5843760000000  0.4520430000000  0.4863510000000 1.0
C      1  0.4161810000000  0.4831890000000  0.5452820000000 1.0
C      1  0.4973290000000  0.5157370000000  0.5947500000000 1.0
C      1  0.5808590000000  0.4831870000000  0.5493170000000 1.0
C      1  0.5831260000000  0.5157350000000  0.4543060000000 1.0
C      1  0.5020150000000  0.4831870000000  0.4046840000000 1.0
C      1  0.4186000000000  0.5157370000000  0.4502260000000 1.0
C      1  0.5760080000000  0.5212450000000  0.5033300000000 1.0
C      1  0.5411370000000  0.4778080000000  0.4348670000000 1.0
C      1  0.4646150000000  0.5212460000000  0.4318790000000 1.0
C      1  0.4227590000000  0.4778100000000  0.4963100000000 1.0
C      1  0.4584330000000  0.5212470000000  0.5640730000000 1.0
C      1  0.5351590000000  0.4778090000000  0.5681070000000 1.0
C      1  0.5428980000000  0.5033450000000  0.5821240000000 1.0
C      1  0.5922110000000  0.4953710000000  0.5034920000000 1.0
C      1  0.5494080000000  0.5033440000000  0.4211560000000 1.0
C      1  0.4566540000000  0.4953710000000  0.4177650000000 1.0
C      1  0.4067500000000  0.5033460000000  0.4960020000000 1.0
C      1  0.4501900000000  0.4953730000000  0.5780250000000 1.0
C      1  0.5389130000000  0.5705840000000  0.4778170000000 1.0
C      1  0.5020170000000  0.4319150000000  0.4567540000000 1.0
C      1  0.4610690000000  0.5705840000000  0.4767600000000 1.0
C      1  0.4612720000000  0.4319160000000  0.5192450000000 1.0
C      1  0.4990760000000  0.5705850000000  0.5447030000000 1.0
C      1  0.5357640000000  0.4319160000000  0.5232860000000 1.0
C      1  0.4185630000000  0.4679250000000  0.4681540000000 1.0
C      1  0.4320570000000  0.5313220000000  0.5534180000000 1.0
C      1  0.5128730000000  0.4679260000000  0.5858180000000 1.0
C      1  0.5799690000000  0.5313200000000  0.5314990000000 1.0
C      1  0.5676180000000  0.4679240000000  0.4453110000000 1.0
C      1  0.4870300000000  0.5313200000000  0.4143640000000 1.0
C      1  0.4996850000000  0.5336430000000  0.4997600000000 1.0
END
