TITL C-207196-9275-6 0.172714439870511 125000 -852.861347371421 0 0 121 (C1) n - 1
REM
REM in /rds/project/t2_vol4/rds-t2-cs072/BORA/CARBON/from-Arr/AIRSS/Generating-Clusters/GAP-ML-2020/Higher-Symm/SD-CG/HFTN-CG
REM
REM
REM
REM
REM
REM ./C.cell (b20cbc046b6831c77cfcea5457e17084)
REM AIRSS Version 0.9.1 bugfix July 2018 build 013d7b7c2542+ Fri, 06 Jul 2018 19:26:36 +0100
REM compiler GCC version 9.3.0
REM options -cpp -mtune=generic -march=x86-64 -g -O0
REM seed -1632955744 2125435273 -1248629824 -66805903 -1148918698 1168432705 -317744178 -500658607 -820104890 -1173571869 -1880260316 -2109590455 -584895352 -1942332517 -875586755 -1039705100 -1623538761 -481790999 -692253196 1564824112 1511574838 -1443610462 -962262418 -1976342406 2128456530 1448321995 -978556357 -1700220733 -773710589 732387619 804309641 1802837279 2013442724
REM
CELL 1.54180   50.00000   50.00000   50.00000   90.00000   90.00000   90.00000
LATT -1
SFAC C  
C      1  0.4728800000000  0.4751380000000  0.5804160000000 1.0
C      1  0.4067540000000  0.5244850000000  0.4942510000000 1.0
C      1  0.4703980000000  0.4252820000000  0.4608390000000 1.0
C      1  0.4854810000000  0.4336680000000  0.5585070000000 1.0
C      1  0.4944870000000  0.5161520000000  0.4812070000000 1.0
C      1  0.5549490000000  0.4351810000000  0.4655320000000 1.0
C      1  0.4537200000000  0.5652450000000  0.5233680000000 1.0
C      1  0.4762300000000  0.5919040000000  0.4712780000000 1.0
C      1  0.4669530000000  0.5037700000000  0.5835760000000 1.0
C      1  0.5162030000000  0.5771320000000  0.5460680000000 1.0
C      1  0.5339870000000  0.4435920000000  0.5694220000000 1.0
C      1  0.4472800000000  0.5392740000000  0.4753070000000 1.0
C      1  0.4452430000000  0.4572640000000  0.4296690000000 1.0
C      1  0.5178010000000  0.5341090000000  0.4324590000000 1.0
C      1  0.5582330000000  0.5525050000000  0.4444100000000 1.0
C      1  0.4538310000000  0.5005000000000  0.4102150000000 1.0
C      1  0.5734890000000  0.4778050000000  0.5705340000000 1.0
C      1  0.5823500000000  0.5142630000000  0.4587680000000 1.0
C      1  0.5157850000000  0.5990470000000  0.4984550000000 1.0
C      1  0.4053720000000  0.4771730000000  0.5108130000000 1.0
C      1  0.5544460000000  0.5717150000000  0.4951300000000 1.0
C      1  0.4507100000000  0.5449980000000  0.5684960000000 1.0
C      1  0.3979590000000  0.4686710000000  0.4858340000000 1.0
C      1  0.5931190000000  0.5234730000000  0.5248510000000 1.0
C      1  0.5545700000000  0.4235750000000  0.4907110000000 1.0
C      1  0.4556560000000  0.5370740000000  0.4309340000000 1.0
C      1  0.5008400000000  0.5153250000000  0.4170690000000 1.0
C      1  0.5201350000000  0.5947770000000  0.5251300000000 1.0
C      1  0.4998570000000  0.4258790000000  0.4631430000000 1.0
C      1  0.5274100000000  0.4713000000000  0.5204940000000 1.0
C      1  0.5872930000000  0.4679870000000  0.4746750000000 1.0
C      1  0.5091930000000  0.5582020000000  0.4801990000000 1.0
C      1  0.4392420000000  0.5625100000000  0.4968640000000 1.0
C      1  0.5020020000000  0.5094530000000  0.5327850000000 1.0
C      1  0.5505920000000  0.5086630000000  0.5464350000000 1.0
C      1  0.5241820000000  0.4690070000000  0.4403960000000 1.0
C      1  0.4865460000000  0.4182430000000  0.5084540000000 1.0
C      1  0.4625940000000  0.4524800000000  0.5630950000000 1.0
C      1  0.4375420000000  0.4573670000000  0.5483470000000 1.0
C      1  0.5443500000000  0.4277120000000  0.5484520000000 1.0
C      1  0.5368650000000  0.5090690000000  0.4983870000000 1.0
C      1  0.4592310000000  0.4312330000000  0.4872670000000 1.0
C      1  0.4654800000000  0.5198760000000  0.4875280000000 1.0
C      1  0.5681620000000  0.4377400000000  0.5366760000000 1.0
C      1  0.5151040000000  0.4725780000000  0.4722020000000 1.0
C      1  0.4216490000000  0.5049080000000  0.5621890000000 1.0
C      1  0.5748010000000  0.5061830000000  0.5645170000000 1.0
C      1  0.4151440000000  0.5455440000000  0.5343690000000 1.0
C      1  0.5260910000000  0.5236100000000  0.5507190000000 1.0
C      1  0.4733820000000  0.5215610000000  0.4130520000000 1.0
C      1  0.5680250000000  0.4576970000000  0.4561190000000 1.0
C      1  0.5398410000000  0.5229690000000  0.4756250000000 1.0
C      1  0.5950790000000  0.5196990000000  0.5536240000000 1.0
C      1  0.4997690000000  0.4690170000000  0.5865340000000 1.0
C      1  0.5310690000000  0.4118210000000  0.5031150000000 1.0
C      1  0.4220580000000  0.5206780000000  0.4708420000000 1.0
C      1  0.5536010000000  0.4768270000000  0.4398000000000 1.0
C      1  0.4887460000000  0.5229460000000  0.5836070000000 1.0
C      1  0.5476020000000  0.5293500000000  0.4312910000000 1.0
C      1  0.4177950000000  0.4545910000000  0.4730600000000 1.0
C      1  0.5338680000000  0.4809680000000  0.4947870000000 1.0
C      1  0.5951900000000  0.4999800000000  0.5079510000000 1.0
C      1  0.5440580000000  0.4712960000000  0.5725000000000 1.0
C      1  0.5736750000000  0.4340700000000  0.5091040000000 1.0
C      1  0.4579160000000  0.4733610000000  0.4089070000000 1.0
C      1  0.4824190000000  0.4878790000000  0.4432310000000 1.0
C      1  0.5761170000000  0.4658230000000  0.5431910000000 1.0
C      1  0.4583080000000  0.5122280000000  0.5154290000000 1.0
C      1  0.4396660000000  0.5129070000000  0.4316750000000 1.0
C      1  0.5787080000000  0.5433530000000  0.4623130000000 1.0
C      1  0.5039720000000  0.4855150000000  0.4219700000000 1.0
C      1  0.4963200000000  0.4185090000000  0.5357990000000 1.0
C      1  0.5470110000000  0.4805850000000  0.5409880000000 1.0
C      1  0.5009400000000  0.4495550000000  0.4795640000000 1.0
C      1  0.5800090000000  0.5465070000000  0.5145390000000 1.0
C      1  0.4433550000000  0.5182790000000  0.5757380000000 1.0
C      1  0.4909330000000  0.5646290000000  0.5533900000000 1.0
C      1  0.4338650000000  0.4420960000000  0.4945920000000 1.0
C      1  0.4012590000000  0.5052220000000  0.5157840000000 1.0
C      1  0.5894570000000  0.4553590000000  0.4999390000000 1.0
C      1  0.5920360000000  0.4961200000000  0.4785970000000 1.0
C      1  0.4862490000000  0.4663410000000  0.4072860000000 1.0
C      1  0.4808850000000  0.5537110000000  0.5273690000000 1.0
C      1  0.5114780000000  0.4398850000000  0.4375220000000 1.0
C      1  0.5017810000000  0.4807170000000  0.5281510000000 1.0
C      1  0.4810860000000  0.4460640000000  0.5001450000000 1.0
C      1  0.4547600000000  0.4838150000000  0.5087150000000 1.0
C      1  0.5926450000000  0.4745850000000  0.5205100000000 1.0
C      1  0.5148790000000  0.5317380000000  0.4653880000000 1.0
C      1  0.4790860000000  0.5486040000000  0.5733610000000 1.0
C      1  0.5622410000000  0.5049470000000  0.4395440000000 1.0
C      1  0.4888460000000  0.4416840000000  0.4209710000000 1.0
C      1  0.4895890000000  0.5685710000000  0.4568970000000 1.0
C      1  0.5136540000000  0.5636490000000  0.4374700000000 1.0
C      1  0.5065020000000  0.4437340000000  0.5751070000000 1.0
C      1  0.4616470000000  0.5556310000000  0.4533630000000 1.0
C      1  0.5099380000000  0.5199000000000  0.5067050000000 1.0
C      1  0.4790090000000  0.4703700000000  0.5155800000000 1.0
C      1  0.4250710000000  0.4782780000000  0.5599390000000 1.0
C      1  0.4763660000000  0.5228220000000  0.5333540000000 1.0
C      1  0.4642620000000  0.4361370000000  0.4352930000000 1.0
C      1  0.5380060000000  0.5718290000000  0.4497940000000 1.0
C      1  0.5063890000000  0.5495460000000  0.5096750000000 1.0
C      1  0.5320530000000  0.5784270000000  0.4788120000000 1.0
C      1  0.4319390000000  0.4617420000000  0.5178630000000 1.0
C      1  0.4077820000000  0.5184740000000  0.5404840000000 1.0
C      1  0.4914920000000  0.6071470000000  0.4878340000000 1.0
C      1  0.5296370000000  0.5527000000000  0.5348600000000 1.0
C      1  0.4336320000000  0.4974260000000  0.4559300000000 1.0
C      1  0.4143240000000  0.5497910000000  0.5060580000000 1.0
C      1  0.5154510000000  0.5145990000000  0.5783900000000 1.0
C      1  0.4509770000000  0.5774680000000  0.4728530000000 1.0
C      1  0.4382430000000  0.5571820000000  0.5458560000000 1.0
C      1  0.5069210000000  0.4113440000000  0.4889790000000 1.0
C      1  0.5548530000000  0.5599960000000  0.5215530000000 1.0
C      1  0.4588980000000  0.4911720000000  0.4785260000000 1.0
C      1  0.4889520000000  0.4884090000000  0.4703360000000 1.0
C      1  0.5779420000000  0.5565070000000  0.4873920000000 1.0
C      1  0.5216630000000  0.4871640000000  0.5843290000000 1.0
C      1  0.5249350000000  0.4154600000000  0.5312950000000 1.0
C      1  0.4277020000000  0.4683920000000  0.4494110000000 1.0
END
