TITL C-207206-9062-3 74.135983716914 125000 -769.472595446625 0 0 111 (C1) n - 1
REM
REM in /rds/project/t2_vol4/rds-t2-cs072/BORA/CARBON/from-Arr/AIRSS/Generating-Clusters/GAP-ML-2020/Higher-Symm/SD-CG/HFTN-CG
REM
REM
REM
REM
REM
REM ./C.cell (b20cbc046b6831c77cfcea5457e17084)
REM AIRSS Version 0.9.1 bugfix July 2018 build 013d7b7c2542+ Fri, 06 Jul 2018 19:26:36 +0100
REM compiler GCC version 9.3.0
REM options -cpp -mtune=generic -march=x86-64 -g -O0
REM seed -325981926 -1728830662 1955310994 -669829356 -1208166447 64491028 891127964 1583924167 -1223679902 489965030 1096097839 1742203111 1816019573 1288355087 -316834190 1641489856 -83712006 -1461168750 -313866733 -556521587 -507359652 646785419 -1635714230 -1434894176 1636831125 -325971592 1952950777 -1668508959 505940789 -286768944 -409959799 -1515131522 313243568
REM
CELL 1.54180   50.00000   50.00000   50.00000   90.00000   90.00000   90.00000
LATT -1
SFAC C  
C      1  0.5810370000000  0.5243290000000  0.5506720000000 1.0
C      1  0.5599700000000  0.5356520000000  0.5654720000000 1.0
C      1  0.4815410000000  0.5848090000000  0.4902080000000 1.0
C      1  0.5210060000000  0.4235780000000  0.5436960000000 1.0
C      1  0.5191090000000  0.4500390000000  0.5008130000000 1.0
C      1  0.5159780000000  0.5520950000000  0.4315410000000 1.0
C      1  0.5763570000000  0.4790920000000  0.5394610000000 1.0
C      1  0.4962580000000  0.4749690000000  0.5342830000000 1.0
C      1  0.4837280000000  0.4957250000000  0.5840300000000 1.0
C      1  0.4625340000000  0.4779600000000  0.5759890000000 1.0
C      1  0.4970140000000  0.4243580000000  0.4590060000000 1.0
C      1  0.4867540000000  0.5423990000000  0.4808390000000 1.0
C      1  0.5767050000000  0.4957090000000  0.5160370000000 1.0
C      1  0.5719190000000  0.5452760000000  0.5071060000000 1.0
C      1  0.5590140000000  0.5627010000000  0.4630960000000 1.0
C      1  0.5559530000000  0.5049020000000  0.5777050000000 1.0
C      1  0.4646730000000  0.5313580000000  0.5545230000000 1.0
C      1  0.5639860000000  0.4949550000000  0.4276130000000 1.0
C      1  0.5416150000000  0.5546700000000  0.5462330000000 1.0
C      1  0.4642700000000  0.5029130000000  0.4159370000000 1.0
C      1  0.5059020000000  0.4934210000000  0.5008950000000 1.0
C      1  0.5105550000000  0.5629740000000  0.5803800000000 1.0
C      1  0.5111690000000  0.5397790000000  0.4965490000000 1.0
C      1  0.4747800000000  0.5167860000000  0.4749360000000 1.0
C      1  0.4490870000000  0.5683600000000  0.5251830000000 1.0
C      1  0.5566250000000  0.4563770000000  0.5388820000000 1.0
C      1  0.4286930000000  0.5504460000000  0.5171240000000 1.0
C      1  0.4678150000000  0.5614800000000  0.5444560000000 1.0
C      1  0.4722520000000  0.4777470000000  0.4056320000000 1.0
C      1  0.5780370000000  0.4969530000000  0.5610750000000 1.0
C      1  0.5379200000000  0.4981940000000  0.4727850000000 1.0
C      1  0.5767740000000  0.5464000000000  0.4790830000000 1.0
C      1  0.4858350000000  0.5682230000000  0.4641820000000 1.0
C      1  0.4210410000000  0.4697610000000  0.4613900000000 1.0
C      1  0.4106850000000  0.5159790000000  0.4654420000000 1.0
C      1  0.4226240000000  0.4973890000000  0.4472570000000 1.0
C      1  0.5760210000000  0.4760710000000  0.4693880000000 1.0
C      1  0.4974390000000  0.4736060000000  0.4577300000000 1.0
C      1  0.5598550000000  0.4846520000000  0.4932840000000 1.0
C      1  0.5659670000000  0.4504570000000  0.4626370000000 1.0
C      1  0.4225210000000  0.5257730000000  0.5312120000000 1.0
C      1  0.4950090000000  0.4497150000000  0.5192990000000 1.0
C      1  0.4342090000000  0.4459480000000  0.4612830000000 1.0
C      1  0.4457670000000  0.4384920000000  0.5389830000000 1.0
C      1  0.5204940000000  0.5143050000000  0.4866860000000 1.0
C      1  0.4693610000000  0.5542850000000  0.4418040000000 1.0
C      1  0.4741730000000  0.4512410000000  0.5738490000000 1.0
C      1  0.4232320000000  0.5415010000000  0.4641700000000 1.0
C      1  0.5792650000000  0.4978620000000  0.4502480000000 1.0
C      1  0.5000460000000  0.4734080000000  0.4061490000000 1.0
C      1  0.5544460000000  0.4196890000000  0.5033380000000 1.0
C      1  0.4808140000000  0.4965790000000  0.5195570000000 1.0
C      1  0.4265020000000  0.4773130000000  0.5145480000000 1.0
C      1  0.4417070000000  0.5129830000000  0.4308020000000 1.0
C      1  0.4102220000000  0.4749360000000  0.4875500000000 1.0
C      1  0.5024700000000  0.5387410000000  0.5257250000000 1.0
C      1  0.4902600000000  0.5413990000000  0.4276490000000 1.0
C      1  0.4624630000000  0.5064670000000  0.4976100000000 1.0
C      1  0.5411690000000  0.4671830000000  0.5124520000000 1.0
C      1  0.5216630000000  0.5309030000000  0.5462700000000 1.0
C      1  0.5350990000000  0.5743320000000  0.4710410000000 1.0
C      1  0.5500670000000  0.5604690000000  0.5183850000000 1.0
C      1  0.5023660000000  0.5821860000000  0.5089170000000 1.0
C      1  0.5013520000000  0.4533370000000  0.5805720000000 1.0
C      1  0.4510040000000  0.4217770000000  0.5175460000000 1.0
C      1  0.5134030000000  0.5706100000000  0.4530990000000 1.0
C      1  0.5277250000000  0.5685800000000  0.4990370000000 1.0
C      1  0.5676240000000  0.4298230000000  0.4821140000000 1.0
C      1  0.4392680000000  0.5154570000000  0.5524910000000 1.0
C      1  0.4964810000000  0.5678580000000  0.5347860000000 1.0
C      1  0.4756710000000  0.4124390000000  0.5090610000000 1.0
C      1  0.5069010000000  0.5366780000000  0.5741700000000 1.0
C      1  0.4779220000000  0.4190600000000  0.4801760000000 1.0
C      1  0.4827140000000  0.5225710000000  0.5759920000000 1.0
C      1  0.5225620000000  0.4868660000000  0.5252360000000 1.0
C      1  0.5414220000000  0.5083910000000  0.4178430000000 1.0
C      1  0.4901090000000  0.5121870000000  0.4279480000000 1.0
C      1  0.4821210000000  0.4541580000000  0.4177960000000 1.0
C      1  0.4724240000000  0.4589930000000  0.4942020000000 1.0
C      1  0.4124310000000  0.5046350000000  0.5162760000000 1.0
C      1  0.5428680000000  0.4589950000000  0.5652880000000 1.0
C      1  0.5221330000000  0.4400830000000  0.5670370000000 1.0
C      1  0.4552970000000  0.4806680000000  0.5034450000000 1.0
C      1  0.5815690000000  0.5229950000000  0.5227390000000 1.0
C      1  0.4832130000000  0.4480950000000  0.4470890000000 1.0
C      1  0.4026400000000  0.5024960000000  0.4895080000000 1.0
C      1  0.5616120000000  0.5444440000000  0.4408790000000 1.0
C      1  0.5365710000000  0.4836070000000  0.5801720000000 1.0
C      1  0.5350620000000  0.5072290000000  0.5392170000000 1.0
C      1  0.5792610000000  0.5269420000000  0.4561430000000 1.0
C      1  0.4439610000000  0.5401830000000  0.4431930000000 1.0
C      1  0.5475420000000  0.4276900000000  0.5310380000000 1.0
C      1  0.4996250000000  0.4693030000000  0.4861570000000 1.0
C      1  0.5254960000000  0.4780010000000  0.4487820000000 1.0
C      1  0.4790880000000  0.5229680000000  0.5296040000000 1.0
C      1  0.4338180000000  0.5842660000000  0.4843440000000 1.0
C      1  0.5163230000000  0.4933070000000  0.4213110000000 1.0
C      1  0.4555740000000  0.5854170000000  0.5015900000000 1.0
C      1  0.5398740000000  0.5366780000000  0.4251760000000 1.0
C      1  0.5185540000000  0.5722180000000  0.5555920000000 1.0
C      1  0.4916180000000  0.4238990000000  0.5334540000000 1.0
C      1  0.5084430000000  0.4802560000000  0.5867540000000 1.0
C      1  0.5395690000000  0.4512770000000  0.4500450000000 1.0
C      1  0.4693990000000  0.4329880000000  0.5533290000000 1.0
C      1  0.4326130000000  0.4646690000000  0.5401490000000 1.0
C      1  0.4613000000000  0.4421130000000  0.4693920000000 1.0
C      1  0.4411990000000  0.4864700000000  0.5589770000000 1.0
C      1  0.4236540000000  0.5578580000000  0.4881000000000 1.0
C      1  0.4837670000000  0.4996250000000  0.4542510000000 1.0
C      1  0.5247320000000  0.4280870000000  0.4605690000000 1.0
C      1  0.5306700000000  0.4254960000000  0.4882530000000 1.0
END
