TITL C-20165-7585-5 -0.0831685500900648 125000 -297.02044748474 0 0 46 (C1) n - 1
REM
REM in /rds/project/t2_vol4/rds-t2-cs072/BORA/CARBON/from-Arr/AIRSS/Generating-Clusters/GAP-ML-2020/Higher-Symm/SD-CG/HFTN-CG
REM
REM
REM
REM
REM
REM ./C.cell (b20cbc046b6831c77cfcea5457e17084)
REM AIRSS Version 0.9.1 bugfix July 2018 build 013d7b7c2542+ Fri, 06 Jul 2018 19:26:36 +0100
REM compiler GCC version 9.3.0
REM options -cpp -mtune=generic -march=x86-64 -g -O0
REM seed 212636634 1188063193 -1306160008 -1913702509 1976441300 1301873254 44943122 -1917012206 -876038978 235496768 -280010874 -1172679033 1727311000 665316172 -225597801 637517704 -1474877290 -1265690730 1894633362 -217047138 -995140572 275077790 1458542126 -1493756682 255834020 887420793 -553336033 -914732934 1823543297 2687799 -1651334125 1781002405 -644869322
REM
CELL 1.54180   50.00000   50.00000   50.00000   90.00000   90.00000   90.00000
LATT -1
SFAC C  
C      1  0.5283390000000  0.5563160000000  0.4537060000000 1.0
C      1  0.5166550000000  0.4853470000000  0.4295760000000 1.0
C      1  0.5673610000000  0.4431280000000  0.5004320000000 1.0
C      1  0.5243190000000  0.4829110000000  0.5706390000000 1.0
C      1  0.5232210000000  0.5558610000000  0.5404820000000 1.0
C      1  0.5658570000000  0.4471030000000  0.4746030000000 1.0
C      1  0.5241770000000  0.5110660000000  0.4258270000000 1.0
C      1  0.5228100000000  0.5661980000000  0.4781700000000 1.0
C      1  0.5286730000000  0.5378050000000  0.5600590000000 1.0
C      1  0.5208540000000  0.4589020000000  0.5592010000000 1.0
C      1  0.4447460000000  0.5128040000000  0.5425210000000 1.0
C      1  0.4247730000000  0.5477440000000  0.5067120000000 1.0
C      1  0.4450900000000  0.5270570000000  0.4614970000000 1.0
C      1  0.4211850000000  0.4822730000000  0.4690580000000 1.0
C      1  0.4324830000000  0.4654330000000  0.5192210000000 1.0
C      1  0.4463880000000  0.4846390000000  0.5359220000000 1.0
C      1  0.4259320000000  0.4657630000000  0.4897560000000 1.0
C      1  0.4426770000000  0.4980020000000  0.4602850000000 1.0
C      1  0.4401320000000  0.5473050000000  0.4825570000000 1.0
C      1  0.4393300000000  0.5388110000000  0.5288500000000 1.0
C      1  0.5382400000000  0.5434580000000  0.4924370000000 1.0
C      1  0.5419330000000  0.5095700000000  0.4507820000000 1.0
C      1  0.5405320000000  0.4584250000000  0.4667600000000 1.0
C      1  0.5404380000000  0.4648490000000  0.5370410000000 1.0
C      1  0.5413790000000  0.5189270000000  0.5404930000000 1.0
C      1  0.5426230000000  0.4506550000000  0.5135800000000 1.0
C      1  0.5381850000000  0.4804140000000  0.4502420000000 1.0
C      1  0.5421720000000  0.5324700000000  0.4657860000000 1.0
C      1  0.5377180000000  0.5383890000000  0.5191670000000 1.0
C      1  0.5410990000000  0.4922750000000  0.5464480000000 1.0
C      1  0.4692400000000  0.4862930000000  0.4660840000000 1.0
C      1  0.4487780000000  0.4465160000000  0.4853980000000 1.0
C      1  0.4750650000000  0.4773940000000  0.5337090000000 1.0
C      1  0.4678620000000  0.5457100000000  0.5316420000000 1.0
C      1  0.4687530000000  0.5529190000000  0.4834400000000 1.0
C      1  0.4733800000000  0.5327250000000  0.4638190000000 1.0
C      1  0.4823280000000  0.5455160000000  0.5073290000000 1.0
C      1  0.4726200000000  0.5211310000000  0.5447670000000 1.0
C      1  0.4527520000000  0.4446750000000  0.5135440000000 1.0
C      1  0.4728260000000  0.4592060000000  0.4745280000000 1.0
C      1  0.4838670000000  0.5086570000000  0.4765950000000 1.0
C      1  0.4950980000000  0.4523170000000  0.4937790000000 1.0
C      1  0.4873680000000  0.5025780000000  0.5287150000000 1.0
C      1  0.4798990000000  0.4525720000000  0.5199460000000 1.0
C      1  0.4882550000000  0.5168370000000  0.5036120000000 1.0
C      1  0.5224660000000  0.4516970000000  0.4905700000000 1.0
END
