TITL C-20169-7960-1 129.180388878649 125000 -395.802742918365 0 0 58 (Cs) n - 1
REM
REM in /rds/project/t2_vol4/rds-t2-cs072/BORA/CARBON/from-Arr/AIRSS/Generating-Clusters/GAP-ML-2020/Higher-Symm/SD-CG/HFTN-CG
REM
REM
REM
REM
REM
REM ./C.cell (b20cbc046b6831c77cfcea5457e17084)
REM AIRSS Version 0.9.1 bugfix July 2018 build 013d7b7c2542+ Fri, 06 Jul 2018 19:26:36 +0100
REM compiler GCC version 9.3.0
REM options -cpp -mtune=generic -march=x86-64 -g -O0
REM seed 343196462 -1623479101 -1764315086 838484972 -1295459835 -444748586 -1947229682 10617017 -1415373543 -609350195 645270438 -816387401 1163694785 -100258588 -1081066265 -1864725321 1750223516 1467805598 1428282185 661447804 -1364506406 -1413649470 -1097018527 -787251001 -2109819524 2143781985 -165846257 -787462392 -1249874087 474992485 -1539546511 -1196895628 33913118
REM
CELL 1.54180   50.00000   50.00000   50.00000   90.00000   90.00000   90.00000
LATT -1
SFAC C  
C      1  0.4517790000000  0.5011700000000  0.4459180000000 1.0
C      1  0.4516490000000  0.5017580000000  0.5539500000000 1.0
C      1  0.5161660000000  0.5565970000000  0.4709540000000 1.0
C      1  0.5160970000000  0.5569100000000  0.5284670000000 1.0
C      1  0.4186220000000  0.5093660000000  0.5128950000000 1.0
C      1  0.4186530000000  0.5092240000000  0.4868080000000 1.0
C      1  0.4701930000000  0.5505750000000  0.4718920000000 1.0
C      1  0.4701260000000  0.5508780000000  0.5274850000000 1.0
C      1  0.5328160000000  0.4966570000000  0.5146580000000 1.0
C      1  0.5328510000000  0.4964980000000  0.4854580000000 1.0
C      1  0.4510630000000  0.4483990000000  0.4873130000000 1.0
C      1  0.4510320000000  0.4485390000000  0.5131300000000 1.0
C      1  0.4700780000000  0.4591000000000  0.4704530000000 1.0
C      1  0.4700060000000  0.4594230000000  0.5299190000000 1.0
C      1  0.5134990000000  0.5241130000000  0.5675280000000 1.0
C      1  0.5136610000000  0.5233770000000  0.4322460000000 1.0
C      1  0.5062890000000  0.5467060000000  0.5537740000000 1.0
C      1  0.5064180000000  0.5461180000000  0.4457360000000 1.0
C      1  0.4639490000000  0.5243550000000  0.4842000000000 1.0
C      1  0.4639110000000  0.5245250000000  0.5154480000000 1.0
C      1  0.5154820000000  0.4763930000000  0.4444120000000 1.0
C      1  0.5153480000000  0.4770000000000  0.5558790000000 1.0
C      1  0.5182840000000  0.4410450000000  0.4727090000000 1.0
C      1  0.5182180000000  0.4413460000000  0.5279750000000 1.0
C      1  0.4671520000000  0.4764090000000  0.4468560000000 1.0
C      1  0.4670240000000  0.4769890000000  0.5533180000000 1.0
C      1  0.5555480000000  0.4565170000000  0.4685270000000 1.0
C      1  0.5554720000000  0.4568630000000  0.5320780000000 1.0
C      1  0.5722830000000  0.5074980000000  0.4852780000000 1.0
C      1  0.5722480000000  0.5076590000000  0.5148130000000 1.0
C      1  0.4766950000000  0.5460850000000  0.5543300000000 1.0
C      1  0.4768260000000  0.5454910000000  0.4451160000000 1.0
C      1  0.5078410000000  0.4879040000000  0.5266730000000 1.0
C      1  0.5079050000000  0.4876150000000  0.4734790000000 1.0
C      1  0.5488360000000  0.5206940000000  0.4756430000000 1.0
C      1  0.5487780000000  0.5209580000000  0.5242480000000 1.0
C      1  0.4915270000000  0.5092730000000  0.5774030000000 1.0
C      1  0.4917130000000  0.5084300000000  0.4224810000000 1.0
C      1  0.4406460000000  0.5118780000000  0.5291300000000 1.0
C      1  0.4407160000000  0.5115600000000  0.4706000000000 1.0
C      1  0.5316560000000  0.4549440000000  0.4507590000000 1.0
C      1  0.5315370000000  0.4554830000000  0.5498040000000 1.0
C      1  0.4978950000000  0.4603450000000  0.5159250000000 1.0
C      1  0.4979330000000  0.4601740000000  0.4845020000000 1.0
C      1  0.4914950000000  0.4803920000000  0.4305780000000 1.0
C      1  0.4913280000000  0.4811490000000  0.5696100000000 1.0
C      1  0.4896070000000  0.5065200000000  0.5136710000000 1.0
C      1  0.4896400000000  0.5063710000000  0.4862340000000 1.0
C      1  0.5425110000000  0.4359820000000  0.4868830000000 1.0
C      1  0.5424780000000  0.4361290000000  0.5139150000000 1.0
C      1  0.4924760000000  0.5639610000000  0.4857200000000 1.0
C      1  0.4924420000000  0.5641120000000  0.5135650000000 1.0
C      1  0.5381020000000  0.5453260000000  0.4852630000000 1.0
C      1  0.5380670000000  0.5454840000000  0.5143350000000 1.0
C      1  0.4682610000000  0.5211580000000  0.4326340000000 1.0
C      1  0.4680990000000  0.5218890000000  0.5670550000000 1.0
C      1  0.5595550000000  0.4792580000000  0.4846030000000 1.0
C      1  0.5595170000000  0.4794270000000  0.5157650000000 1.0
END
