TITL C-20166-8807-8 56.033093090507 125000 -563.011602301858 0 0 82 (D2) n - 1
REM
REM in /rds/project/t2_vol4/rds-t2-cs072/BORA/CARBON/from-Arr/AIRSS/Generating-Clusters/GAP-ML-2020/Higher-Symm/SD-CG/HFTN-CG
REM
REM
REM
REM
REM
REM ./C.cell (b20cbc046b6831c77cfcea5457e17084)
REM AIRSS Version 0.9.1 bugfix July 2018 build 013d7b7c2542+ Fri, 06 Jul 2018 19:26:36 +0100
REM compiler GCC version 9.3.0
REM options -cpp -mtune=generic -march=x86-64 -g -O0
REM seed 532013740 1777613761 -154857975 -733373098 1840443596 -451407548 -1264521230 -1035422743 -673882675 -1284946089 -1037529445 458213684 1039878619 -1100803677 -1964507429 -62728901 2141524512 1156693357 -1526076695 -1823682302 1732982516 -904796926 -1792881299 109882004 1980322454 315865046 807883139 1699509708 -1392055349 1112433045 -827811384 -909953018 33420946
REM
CELL 1.54180   50.00000   50.00000   50.00000   90.00000   90.00000   90.00000
LATT -1
SFAC C  
C      1  0.5384880000000  0.5616360000000  0.4500490000000 1.0
C      1  0.4615090000000  0.4383490000000  0.4500690000000 1.0
C      1  0.5385370000000  0.4383930000000  0.5504710000000 1.0
C      1  0.4614660000000  0.5616220000000  0.5504550000000 1.0
C      1  0.5502190000000  0.5283630000000  0.5470910000000 1.0
C      1  0.4497830000000  0.4716510000000  0.5471020000000 1.0
C      1  0.5502380000000  0.4716750000000  0.4534280000000 1.0
C      1  0.4497600000000  0.5283110000000  0.4534220000000 1.0
C      1  0.4525290000000  0.4467670000000  0.4977620000000 1.0
C      1  0.5474710000000  0.5532320000000  0.4977440000000 1.0
C      1  0.4524890000000  0.5531970000000  0.5027620000000 1.0
C      1  0.5475110000000  0.4468030000000  0.5027750000000 1.0
C      1  0.5641630000000  0.4699020000000  0.5036590000000 1.0
C      1  0.4358380000000  0.5300990000000  0.5036530000000 1.0
C      1  0.5641400000000  0.5301460000000  0.4968590000000 1.0
C      1  0.4358600000000  0.4698530000000  0.4968720000000 1.0
C      1  0.4858210000000  0.5809000000000  0.5238290000000 1.0
C      1  0.5141800000000  0.4191070000000  0.5238520000000 1.0
C      1  0.4858800000000  0.4190890000000  0.4766940000000 1.0
C      1  0.5141180000000  0.5809040000000  0.4766690000000 1.0
C      1  0.5101290000000  0.4312480000000  0.5508490000000 1.0
C      1  0.4898740000000  0.5687670000000  0.5508290000000 1.0
C      1  0.5100740000000  0.5687600000000  0.4496730000000 1.0
C      1  0.4899230000000  0.4312250000000  0.4496940000000 1.0
C      1  0.4762910000000  0.4471820000000  0.5153920000000 1.0
C      1  0.5237100000000  0.5528230000000  0.5153750000000 1.0
C      1  0.4762500000000  0.5528010000000  0.4851310000000 1.0
C      1  0.5237490000000  0.4471950000000  0.4851450000000 1.0
C      1  0.5589900000000  0.4847690000000  0.4792100000000 1.0
C      1  0.4410090000000  0.5152250000000  0.4792080000000 1.0
C      1  0.5589790000000  0.5152750000000  0.5213090000000 1.0
C      1  0.4410220000000  0.4847310000000  0.5213170000000 1.0
C      1  0.4731500000000  0.5036760000000  0.4853660000000 1.0
C      1  0.5268490000000  0.4963200000000  0.4853650000000 1.0
C      1  0.4731530000000  0.4963040000000  0.5151580000000 1.0
C      1  0.5268470000000  0.5037000000000  0.5151550000000 1.0
C      1  0.4691860000000  0.4512480000000  0.5449470000000 1.0
C      1  0.5308160000000  0.5487650000000  0.5449310000000 1.0
C      1  0.4691470000000  0.5487280000000  0.4555760000000 1.0
C      1  0.5308500000000  0.4512580000000  0.4555890000000 1.0
C      1  0.4314070000000  0.4877640000000  0.4745400000000 1.0
C      1  0.5685910000000  0.5122280000000  0.4745330000000 1.0
C      1  0.4314000000000  0.5121850000000  0.5259850000000 1.0
C      1  0.5686020000000  0.4878230000000  0.5259850000000 1.0
C      1  0.4829780000000  0.5189050000000  0.5311140000000 1.0
C      1  0.5170240000000  0.4811040000000  0.5311180000000 1.0
C      1  0.4829900000000  0.4810820000000  0.4694090000000 1.0
C      1  0.5170080000000  0.5189090000000  0.4694030000000 1.0
C      1  0.4577720000000  0.4284280000000  0.4765980000000 1.0
C      1  0.5422260000000  0.5715640000000  0.4765750000000 1.0
C      1  0.4577200000000  0.5715400000000  0.5239260000000 1.0
C      1  0.5422810000000  0.4284670000000  0.5239450000000 1.0
C      1  0.4925210000000  0.5489170000000  0.4391730000000 1.0
C      1  0.5074760000000  0.4510640000000  0.4391870000000 1.0
C      1  0.4925610000000  0.4510770000000  0.5613500000000 1.0
C      1  0.5074420000000  0.5489410000000  0.5613350000000 1.0
C      1  0.4940050000000  0.4742590000000  0.5144290000000 1.0
C      1  0.5059960000000  0.5257450000000  0.5144210000000 1.0
C      1  0.4939850000000  0.5257360000000  0.4860940000000 1.0
C      1  0.5060140000000  0.4742590000000  0.4861010000000 1.0
C      1  0.5001180000000  0.4781560000000  0.5743770000000 1.0
C      1  0.4998860000000  0.5218660000000  0.5743700000000 1.0
C      1  0.5000970000000  0.5218440000000  0.4261450000000 1.0
C      1  0.4998990000000  0.4781340000000  0.4261510000000 1.0
C      1  0.4405080000000  0.5168560000000  0.5523500000000 1.0
C      1  0.5594950000000  0.4831590000000  0.5523510000000 1.0
C      1  0.4405180000000  0.4830990000000  0.4481750000000 1.0
C      1  0.5594800000000  0.5168850000000  0.4481670000000 1.0
C      1  0.5204030000000  0.5017810000000  0.5756380000000 1.0
C      1  0.4796010000000  0.4982410000000  0.5756390000000 1.0
C      1  0.5204000000000  0.4982340000000  0.4248830000000 1.0
C      1  0.4795960000000  0.5017430000000  0.4248840000000 1.0
C      1  0.5390310000000  0.4654390000000  0.5499810000000 1.0
C      1  0.4609720000000  0.5345760000000  0.5499730000000 1.0
C      1  0.5390020000000  0.5345910000000  0.4505380000000 1.0
C      1  0.4609950000000  0.4653950000000  0.4505510000000 1.0
C      1  0.5461620000000  0.4942930000000  0.4366080000000 1.0
C      1  0.4538350000000  0.5056890000000  0.4366090000000 1.0
C      1  0.5461610000000  0.5057420000000  0.5639110000000 1.0
C      1  0.4538430000000  0.4942770000000  0.5639150000000 1.0
C      1  0.5000270000000  0.4293250000000  0.5002710000000 1.0
C      1  0.4999730000000  0.5706750000000  0.5002500000000 1.0
END
