TITL C-207211-9156-3 -29.2914513217299 125000 -564.144869865211 0 0 83 (Cs) n - 1
REM
REM in /rds/project/t2_vol4/rds-t2-cs072/BORA/CARBON/from-Arr/AIRSS/Generating-Clusters/GAP-ML-2020/Higher-Symm/SD-CG/HFTN-CG
REM
REM
REM
REM
REM
REM ./C.cell (b20cbc046b6831c77cfcea5457e17084)
REM AIRSS Version 0.9.1 bugfix July 2018 build 013d7b7c2542+ Fri, 06 Jul 2018 19:26:36 +0100
REM compiler GCC version 9.3.0
REM options -cpp -mtune=generic -march=x86-64 -g -O0
REM seed -977797917 -1329615072 -774019456 1823292009 -105555149 1645750338 -1135922196 -491113862 488507075 322796674 -1126389174 -1188768049 212983175 -746066526 1480522304 1351545061 1200576996 -1818140959 1099154284 -222087828 -734248705 1455586155 -2008801223 1866409904 640003192 -1496933380 1356184899 -925886445 -1441314332 -350149614 1983492800 -467557838 -183154434
REM
CELL 1.54180   50.00000   50.00000   50.00000   90.00000   90.00000   90.00000
LATT -1
SFAC C  
C      1  0.4388790000000  0.4661820000000  0.5422890000000 1.0
C      1  0.5283720000000  0.4631430000000  0.5752990000000 1.0
C      1  0.5777800000000  0.4718540000000  0.4941150000000 1.0
C      1  0.5215970000000  0.4759400000000  0.4199470000000 1.0
C      1  0.4366960000000  0.4724730000000  0.4493920000000 1.0
C      1  0.4441320000000  0.5311770000000  0.5510530000000 1.0
C      1  0.5296960000000  0.5199040000000  0.5858020000000 1.0
C      1  0.5743570000000  0.5364940000000  0.5058890000000 1.0
C      1  0.5251420000000  0.5330890000000  0.4262660000000 1.0
C      1  0.4336690000000  0.5293540000000  0.4579910000000 1.0
C      1  0.4888480000000  0.5511300000000  0.5443170000000 1.0
C      1  0.5337440000000  0.5529630000000  0.5287460000000 1.0
C      1  0.5212740000000  0.5521300000000  0.4791330000000 1.0
C      1  0.4833690000000  0.5489360000000  0.4556420000000 1.0
C      1  0.4679950000000  0.5499540000000  0.4976120000000 1.0
C      1  0.4907900000000  0.4465820000000  0.5423070000000 1.0
C      1  0.5385920000000  0.4485340000000  0.5257280000000 1.0
C      1  0.5255280000000  0.4505910000000  0.4768540000000 1.0
C      1  0.4873130000000  0.4489300000000  0.4552380000000 1.0
C      1  0.4706490000000  0.4483490000000  0.4958870000000 1.0
C      1  0.4824030000000  0.4758940000000  0.4442570000000 1.0
C      1  0.4564110000000  0.4756770000000  0.4981870000000 1.0
C      1  0.4865860000000  0.4737740000000  0.5530470000000 1.0
C      1  0.5465430000000  0.4762230000000  0.5322530000000 1.0
C      1  0.5361030000000  0.4789310000000  0.4705480000000 1.0
C      1  0.4785820000000  0.5241550000000  0.4389210000000 1.0
C      1  0.4551780000000  0.5230460000000  0.5035730000000 1.0
C      1  0.4906750000000  0.5220790000000  0.5492130000000 1.0
C      1  0.5374560000000  0.5239890000000  0.5329890000000 1.0
C      1  0.5369480000000  0.5263850000000  0.4752130000000 1.0
C      1  0.4592280000000  0.5597910000000  0.4696860000000 1.0
C      1  0.4707060000000  0.5636270000000  0.5235650000000 1.0
C      1  0.5166970000000  0.5575070000000  0.5527480000000 1.0
C      1  0.5342020000000  0.5662200000000  0.5015430000000 1.0
C      1  0.5101540000000  0.5618700000000  0.4520240000000 1.0
C      1  0.4622970000000  0.4373950000000  0.4672850000000 1.0
C      1  0.4701150000000  0.4373780000000  0.5245950000000 1.0
C      1  0.5187450000000  0.4389510000000  0.5446940000000 1.0
C      1  0.5444920000000  0.4404160000000  0.4988000000000 1.0
C      1  0.5151780000000  0.4395550000000  0.4489450000000 1.0
C      1  0.4979130000000  0.4911970000000  0.4110010000000 1.0
C      1  0.4416410000000  0.4859860000000  0.4744950000000 1.0
C      1  0.4581780000000  0.4821240000000  0.5577690000000 1.0
C      1  0.5471060000000  0.4801690000000  0.5617040000000 1.0
C      1  0.5655420000000  0.4847230000000  0.4715010000000 1.0
C      1  0.4997480000000  0.5183090000000  0.4191510000000 1.0
C      1  0.4334350000000  0.5116250000000  0.4830100000000 1.0
C      1  0.4574850000000  0.5095740000000  0.5659260000000 1.0
C      1  0.5511800000000  0.5061260000000  0.5710110000000 1.0
C      1  0.5667380000000  0.5285620000000  0.4804200000000 1.0
C      1  0.5040660000000  0.4784110000000  0.5766310000000 1.0
C      1  0.5710860000000  0.4867350000000  0.5186100000000 1.0
C      1  0.5322640000000  0.4896870000000  0.4430650000000 1.0
C      1  0.4485900000000  0.4891830000000  0.4281070000000 1.0
C      1  0.4335390000000  0.4793330000000  0.5172820000000 1.0
C      1  0.5047420000000  0.5042300000000  0.5871170000000 1.0
C      1  0.5746740000000  0.5143590000000  0.5252830000000 1.0
C      1  0.5420840000000  0.5160610000000  0.4453280000000 1.0
C      1  0.4502200000000  0.5162860000000  0.4363280000000 1.0
C      1  0.4349260000000  0.5231790000000  0.5261350000000 1.0
C      1  0.5233470000000  0.5609120000000  0.4282080000000 1.0
C      1  0.4342490000000  0.5572730000000  0.4591080000000 1.0
C      1  0.4598830000000  0.5555460000000  0.5472190000000 1.0
C      1  0.5252140000000  0.5449580000000  0.5758280000000 1.0
C      1  0.5578850000000  0.5595480000000  0.5132300000000 1.0
C      1  0.5236320000000  0.4485270000000  0.4246470000000 1.0
C      1  0.4400060000000  0.4451120000000  0.4536500000000 1.0
C      1  0.4457790000000  0.4396600000000  0.5380510000000 1.0
C      1  0.5279020000000  0.4363110000000  0.5707850000000 1.0
C      1  0.5716900000000  0.4448010000000  0.4943820000000 1.0
C      1  0.4215440000000  0.5040110000000  0.5111960000000 1.0
C      1  0.4825510000000  0.5177220000000  0.5765980000000 1.0
C      1  0.5610610000000  0.5209280000000  0.5493690000000 1.0
C      1  0.4728760000000  0.4797050000000  0.4172370000000 1.0
C      1  0.5693700000000  0.5100470000000  0.4599270000000 1.0
C      1  0.5239600000000  0.4999390000000  0.5203220000000 1.0
C      1  0.4857600000000  0.5009570000000  0.4568870000000 1.0
C      1  0.4758380000000  0.4999750000000  0.5058320000000 1.0
C      1  0.4951560000000  0.4987630000000  0.5303120000000 1.0
C      1  0.5238570000000  0.5019360000000  0.4891780000000 1.0
C      1  0.4969130000000  0.4538910000000  0.4835020000000 1.0
C      1  0.4936020000000  0.5389600000000  0.4839720000000 1.0
C      1  0.4946500000000  0.5076880000000  0.4833130000000 1.0
END
