TITL C-205056-5877-5 -27.2704144795621 125000 -270.798929374573 0 0 41 (C2) n - 1
REM
REM in /rds/project/t2_vol4/rds-t2-cs072/BORA/CARBON/from-Arr/AIRSS/Generating-Clusters/GAP-ML-2020/Higher-Symm/SD-CG/HFTN-CG
REM
REM
REM
REM
REM
REM ./C.cell (b20cbc046b6831c77cfcea5457e17084)
REM AIRSS Version 0.9.1 bugfix July 2018 build 013d7b7c2542+ Fri, 06 Jul 2018 19:26:36 +0100
REM compiler GCC version 9.3.0
REM options -cpp -mtune=generic -march=x86-64 -g -O0
REM seed -1026226263 -1642990042 -701883011 -808207969 -1684233592 1463627279 -786194477 -1395917870 1364843315 1959200941 165162365 1251291705 1925750879 264457368 747531152 568028203 -1082953585 354563721 -748300380 -552814378 1291323836 -41574999 -433748404 -480419170 1466423744 -259921435 407615937 -2036812187 -1632144779 -1704895716 -1868330020 180444624 -1899427107
REM
CELL 1.54180   50.00000   50.00000   50.00000   90.00000   90.00000   90.00000
LATT -1
SFAC C  
C      1  0.5357140000000  0.4983520000000  0.5500240000000 1.0
C      1  0.4649790000000  0.4983470000000  0.4502320000000 1.0
C      1  0.4641020000000  0.4446470000000  0.5049880000000 1.0
C      1  0.5366190000000  0.4446680000000  0.4952530000000 1.0
C      1  0.5279960000000  0.5479140000000  0.4643400000000 1.0
C      1  0.4726710000000  0.5478890000000  0.5359300000000 1.0
C      1  0.5412840000000  0.5014040000000  0.4664010000000 1.0
C      1  0.4594070000000  0.5013730000000  0.5338560000000 1.0
C      1  0.4553330000000  0.5285700000000  0.5256260000000 1.0
C      1  0.5453430000000  0.5286010000000  0.4746380000000 1.0
C      1  0.4761290000000  0.5477100000000  0.4586700000000 1.0
C      1  0.5245370000000  0.5477120000000  0.5415990000000 1.0
C      1  0.4883260000000  0.4378950000000  0.4917770000000 1.0
C      1  0.5123990000000  0.4378990000000  0.5084620000000 1.0
C      1  0.5113830000000  0.4540880000000  0.5323250000000 1.0
C      1  0.4893330000000  0.4540910000000  0.4679180000000 1.0
C      1  0.4555680000000  0.5490520000000  0.4773000000000 1.0
C      1  0.5450980000000  0.5490700000000  0.5229700000000 1.0
C      1  0.4706010000000  0.4765210000000  0.4716130000000 1.0
C      1  0.5301030000000  0.4765290000000  0.5286360000000 1.0
C      1  0.4533210000000  0.5296780000000  0.4959180000000 1.0
C      1  0.5473550000000  0.5297020000000  0.5043470000000 1.0
C      1  0.4884250000000  0.5019390000000  0.4698570000000 1.0
C      1  0.5122660000000  0.5019370000000  0.5304000000000 1.0
C      1  0.4530140000000  0.4696370000000  0.4939420000000 1.0
C      1  0.5476940000000  0.4696610000000  0.5063060000000 1.0
C      1  0.4716050000000  0.5236030000000  0.4450880000000 1.0
C      1  0.5290750000000  0.5236030000000  0.5551740000000 1.0
C      1  0.5146670000000  0.4630380000000  0.4580060000000 1.0
C      1  0.4860450000000  0.4630190000000  0.5422400000000 1.0
C      1  0.4978340000000  0.5520560000000  0.5274200000000 1.0
C      1  0.5028310000000  0.5520650000000  0.4728500000000 1.0
C      1  0.4474300000000  0.4791550000000  0.5211840000000 1.0
C      1  0.5532730000000  0.4791890000000  0.4790660000000 1.0
C      1  0.4803250000000  0.5207560000000  0.4917430000000 1.0
C      1  0.5203560000000  0.5207650000000  0.5085190000000 1.0
C      1  0.4857990000000  0.4916260000000  0.5408070000000 1.0
C      1  0.5148970000000  0.4916450000000  0.4594470000000 1.0
C      1  0.4618610000000  0.4539500000000  0.5311650000000 1.0
C      1  0.5388550000000  0.4539790000000  0.4690790000000 1.0
C      1  0.5003350000000  0.5396480000000  0.5001340000000 1.0
END
