TITL C-207204-9068-3 635.672462163596 125000 -641.578834766024 0 0 96 (D2) n - 1
REM
REM in /rds/project/t2_vol4/rds-t2-cs072/BORA/CARBON/from-Arr/AIRSS/Generating-Clusters/GAP-ML-2020/Higher-Symm/SD-CG/HFTN-CG
REM
REM
REM
REM
REM
REM ./C.cell (b20cbc046b6831c77cfcea5457e17084)
REM AIRSS Version 0.9.1 bugfix July 2018 build 013d7b7c2542+ Fri, 06 Jul 2018 19:26:36 +0100
REM compiler GCC version 9.3.0
REM options -cpp -mtune=generic -march=x86-64 -g -O0
REM seed 1384197678 827391767 -506158688 834160403 -606451871 1416526801 890932081 763412839 2052120589 -1304775238 45575056 -897390866 904389810 46662218 901451714 613358143 713222540 -253609547 1025065641 -1696679803 1313188061 -834548497 1362934065 1508633023 -1975530620 4961338 -1962597966 -1449282798 502213118 2011522669 1552653268 -1403475056 2105637506
REM
CELL 1.54180   50.00000   50.00000   50.00000   90.00000   90.00000   90.00000
LATT -1
SFAC C  
C      1  0.4982930000000  0.5144160000000  0.4676000000000 1.0
C      1  0.5017110000000  0.5144160000000  0.5324000000000 1.0
C      1  0.4982890000000  0.4855840000000  0.5324000000000 1.0
C      1  0.5017070000000  0.4855840000000  0.4676000000000 1.0
C      1  0.4765120000000  0.4460010000000  0.5409530000000 1.0
C      1  0.5234730000000  0.4459940000000  0.4590470000000 1.0
C      1  0.4765260000000  0.5540060000000  0.4590470000000 1.0
C      1  0.5234880000000  0.5540000000000  0.5409530000000 1.0
C      1  0.5099590000000  0.5611740000000  0.4186150000000 1.0
C      1  0.4900580000000  0.5611770000000  0.5813850000000 1.0
C      1  0.5099430000000  0.4388230000000  0.5813850000000 1.0
C      1  0.4900410000000  0.4388250000000  0.4186150000000 1.0
C      1  0.4896900000000  0.5277520000000  0.5100530000000 1.0
C      1  0.5103170000000  0.5277490000000  0.4899470000000 1.0
C      1  0.4896830000000  0.4722510000000  0.4899470000000 1.0
C      1  0.5103100000000  0.4722480000000  0.5100530000000 1.0
C      1  0.4652650000000  0.5589760000000  0.5736280000000 1.0
C      1  0.5347510000000  0.5589670000000  0.4263720000000 1.0
C      1  0.4652490000000  0.4410330000000  0.4263720000000 1.0
C      1  0.5347360000000  0.4410240000000  0.5736280000000 1.0
C      1  0.5476510000000  0.4775800000000  0.4392100000000 1.0
C      1  0.4523430000000  0.4775930000000  0.5607900000000 1.0
C      1  0.5476580000000  0.5224070000000  0.5607890000000 1.0
C      1  0.4523480000000  0.5224200000000  0.4392110000000 1.0
C      1  0.4524660000000  0.5632710000000  0.5101940000000 1.0
C      1  0.5475510000000  0.5632580000000  0.4898050000000 1.0
C      1  0.4524490000000  0.4367420000000  0.4898060000000 1.0
C      1  0.5475340000000  0.4367290000000  0.5101940000000 1.0
C      1  0.4598530000000  0.4602400000000  0.4462210000000 1.0
C      1  0.5401360000000  0.4602300000000  0.5537790000000 1.0
C      1  0.4598650000000  0.5397700000000  0.5537790000000 1.0
C      1  0.5401460000000  0.5397590000000  0.4462210000000 1.0
C      1  0.4457590000000  0.5139600000000  0.4828370000000 1.0
C      1  0.5542440000000  0.5139450000000  0.5171630000000 1.0
C      1  0.4457560000000  0.4860550000000  0.5171640000000 1.0
C      1  0.5542410000000  0.4860400000000  0.4828360000000 1.0
C      1  0.4810260000000  0.5578650000000  0.5082220000000 1.0
C      1  0.5189890000000  0.5578600000000  0.4917780000000 1.0
C      1  0.4810100000000  0.4421400000000  0.4917780000000 1.0
C      1  0.5189740000000  0.4421340000000  0.5082220000000 1.0
C      1  0.4378560000000  0.5167830000000  0.5135400000000 1.0
C      1  0.5621480000000  0.5167660000000  0.4864600000000 1.0
C      1  0.4378520000000  0.4832340000000  0.4864610000000 1.0
C      1  0.5621440000000  0.4832180000000  0.5135390000000 1.0
C      1  0.4727180000000  0.5219050000000  0.4214170000000 1.0
C      1  0.5272880000000  0.5218980000000  0.5785830000000 1.0
C      1  0.4727130000000  0.4781030000000  0.5785830000000 1.0
C      1  0.5272810000000  0.4780950000000  0.4214170000000 1.0
C      1  0.4908530000000  0.4558090000000  0.5677310000000 1.0
C      1  0.5091360000000  0.4558060000000  0.4322700000000 1.0
C      1  0.4908640000000  0.5441930000000  0.4322700000000 1.0
C      1  0.5091480000000  0.5441910000000  0.5677300000000 1.0
C      1  0.5673340000000  0.5412950000000  0.5516400000000 1.0
C      1  0.4326770000000  0.5413120000000  0.4483600000000 1.0
C      1  0.5673220000000  0.4586870000000  0.4483590000000 1.0
C      1  0.4326670000000  0.4587060000000  0.5516400000000 1.0
C      1  0.4423030000000  0.5729880000000  0.4863350000000 1.0
C      1  0.5577160000000  0.5729730000000  0.5136640000000 1.0
C      1  0.4422840000000  0.4270270000000  0.5136650000000 1.0
C      1  0.5576960000000  0.4270110000000  0.4863350000000 1.0
C      1  0.5542030000000  0.5410890000000  0.4711590000000 1.0
C      1  0.4458090000000  0.5411030000000  0.5288410000000 1.0
C      1  0.5541920000000  0.4588970000000  0.5288400000000 1.0
C      1  0.4457970000000  0.4589110000000  0.4711600000000 1.0
C      1  0.4068500000000  0.5123940000000  0.5100100000000 1.0
C      1  0.5931530000000  0.5123670000000  0.4899920000000 1.0
C      1  0.4068470000000  0.4876320000000  0.4899910000000 1.0
C      1  0.5931500000000  0.4876080000000  0.5100070000000 1.0
C      1  0.5074250000000  0.4362210000000  0.4803970000000 1.0
C      1  0.4925570000000  0.4362230000000  0.5196040000000 1.0
C      1  0.5074420000000  0.5637770000000  0.5196030000000 1.0
C      1  0.4925740000000  0.5637790000000  0.4803960000000 1.0
C      1  0.5138510000000  0.4757980000000  0.5576200000000 1.0
C      1  0.4861430000000  0.4758020000000  0.4423800000000 1.0
C      1  0.5138570000000  0.5241980000000  0.4423800000000 1.0
C      1  0.4861500000000  0.5242020000000  0.5576200000000 1.0
C      1  0.4482330000000  0.4366720000000  0.5388010000000 1.0
C      1  0.5517500000000  0.4366580000000  0.4611990000000 1.0
C      1  0.4482500000000  0.5633420000000  0.4612000000000 1.0
C      1  0.5517670000000  0.5633280000000  0.5388000000000 1.0
C      1  0.5779910000000  0.4747550000000  0.4684160000000 1.0
C      1  0.4220020000000  0.4747770000000  0.5315830000000 1.0
C      1  0.5779980000000  0.5252230000000  0.5315830000000 1.0
C      1  0.4220080000000  0.5252440000000  0.4684180000000 1.0
C      1  0.5995390000000  0.4862760000000  0.4814280000000 1.0
C      1  0.4004580000000  0.4863030000000  0.5185710000000 1.0
C      1  0.5995430000000  0.5136970000000  0.5185710000000 1.0
C      1  0.4004620000000  0.5137240000000  0.4814300000000 1.0
C      1  0.5312940000000  0.4768440000000  0.4654880000000 1.0
C      1  0.4686990000000  0.4768520000000  0.5345120000000 1.0
C      1  0.5313010000000  0.5231480000000  0.5345110000000 1.0
C      1  0.4687050000000  0.5231560000000  0.4654880000000 1.0
C      1  0.4862020000000  0.5028250000000  0.5803650000000 1.0
C      1  0.5137990000000  0.5028210000000  0.4196350000000 1.0
C      1  0.4862000000000  0.4971790000000  0.4196350000000 1.0
C      1  0.5137990000000  0.4971760000000  0.5803650000000 1.0
END
