TITL C-205054-4015-5 669.387252393108 125000 -934.959410279541 0 0 129 (C1) n - 1
REM
REM in /rds/project/t2_vol4/rds-t2-cs072/BORA/CARBON/from-Arr/AIRSS/Generating-Clusters/GAP-ML-2020/Higher-Symm/SD-CG/HFTN-CG
REM
REM
REM
REM
REM
REM ./C.cell (b20cbc046b6831c77cfcea5457e17084)
REM AIRSS Version 0.9.1 bugfix July 2018 build 013d7b7c2542+ Fri, 06 Jul 2018 19:26:36 +0100
REM compiler GCC version 9.3.0
REM options -cpp -mtune=generic -march=x86-64 -g -O0
REM seed -1830525203 -510321149 -623735330 -124118634 -420057677 1928072115 869332539 1893126773 1596641521 301843565 -250629629 5746090 1927702586 2130207027 54465691 -950555750 -706931142 1231274605 -763753743 -1191210783 1538087305 -1508152953 -2030661081 1490624800 22554582 -766672762 -1961804580 1597353216 1828338586 -1963763025 2036929932 804470116 1421571601
REM
CELL 1.54180   50.00000   50.00000   50.00000   90.00000   90.00000   90.00000
LATT -1
SFAC C  
C      1  0.5170220000000  0.5986560000000  0.5156530000000 1.0
C      1  0.5168590000000  0.5128980000000  0.5957570000000 1.0
C      1  0.6003720000000  0.5119360000000  0.5144250000000 1.0
C      1  0.5124690000000  0.3968460000000  0.4847240000000 1.0
C      1  0.4846300000000  0.3999910000000  0.5148130000000 1.0
C      1  0.4861940000000  0.6011780000000  0.4877580000000 1.0
C      1  0.5112610000000  0.4853460000000  0.3998290000000 1.0
C      1  0.4874450000000  0.4843030000000  0.5982890000000 1.0
C      1  0.4825390000000  0.5151460000000  0.4018710000000 1.0
C      1  0.5973910000000  0.4832480000000  0.4849100000000 1.0
C      1  0.4055030000000  0.4869410000000  0.5180830000000 1.0
C      1  0.4043190000000  0.5161740000000  0.4890030000000 1.0
C      1  0.4877890000000  0.5994790000000  0.5167280000000 1.0
C      1  0.4878180000000  0.5136500000000  0.5984070000000 1.0
C      1  0.4056580000000  0.5159690000000  0.5185090000000 1.0
C      1  0.4828650000000  0.3985370000000  0.4858820000000 1.0
C      1  0.5138060000000  0.3989250000000  0.5136820000000 1.0
C      1  0.5157760000000  0.6011010000000  0.4867620000000 1.0
C      1  0.4821110000000  0.4860770000000  0.4015240000000 1.0
C      1  0.5166110000000  0.4838600000000  0.5956600000000 1.0
C      1  0.5116980000000  0.5148230000000  0.4001150000000 1.0
C      1  0.4041970000000  0.4871720000000  0.4887390000000 1.0
C      1  0.5999780000000  0.4829520000000  0.5142060000000 1.0
C      1  0.5976280000000  0.5120880000000  0.4852310000000 1.0
C      1  0.4883880000000  0.5562670000000  0.5741340000000 1.0
C      1  0.5742480000000  0.4830580000000  0.5557890000000 1.0
C      1  0.5591290000000  0.5723360000000  0.4858070000000 1.0
C      1  0.4827530000000  0.4416770000000  0.4283140000000 1.0
C      1  0.5153840000000  0.4418890000000  0.5712800000000 1.0
C      1  0.5126840000000  0.5580630000000  0.4291480000000 1.0
C      1  0.5673900000000  0.5122970000000  0.4453880000000 1.0
C      1  0.4294970000000  0.5153060000000  0.5613450000000 1.0
C      1  0.4260900000000  0.4870140000000  0.4457570000000 1.0
C      1  0.5588040000000  0.4252580000000  0.5120760000000 1.0
C      1  0.4403490000000  0.4286350000000  0.4873630000000 1.0
C      1  0.4433260000000  0.5724190000000  0.5169060000000 1.0
C      1  0.5168420000000  0.5551980000000  0.5719470000000 1.0
C      1  0.4296080000000  0.4863230000000  0.5605870000000 1.0
C      1  0.4422330000000  0.5732930000000  0.4887560000000 1.0
C      1  0.5108090000000  0.4413300000000  0.4277820000000 1.0
C      1  0.4868830000000  0.4419680000000  0.5734450000000 1.0
C      1  0.4846690000000  0.5589020000000  0.4296370000000 1.0
C      1  0.4262900000000  0.5158920000000  0.4459810000000 1.0
C      1  0.5745530000000  0.5119710000000  0.5559570000000 1.0
C      1  0.5671310000000  0.4846760000000  0.4449370000000 1.0
C      1  0.4419910000000  0.4295270000000  0.5153710000000 1.0
C      1  0.5571410000000  0.4241580000000  0.4841820000000 1.0
C      1  0.5605550000000  0.5708110000000  0.5136230000000 1.0
C      1  0.5326170000000  0.5713010000000  0.4448920000000 1.0
C      1  0.4464880000000  0.5342010000000  0.5753450000000 1.0
C      1  0.5731340000000  0.4418300000000  0.5312990000000 1.0
C      1  0.5329950000000  0.4282820000000  0.5530720000000 1.0
C      1  0.4635670000000  0.4276820000000  0.4444520000000 1.0
C      1  0.4699190000000  0.5706600000000  0.5576470000000 1.0
C      1  0.4425920000000  0.4680940000000  0.4315040000000 1.0
C      1  0.5567220000000  0.4646360000000  0.5695580000000 1.0
C      1  0.5528320000000  0.5316580000000  0.4304070000000 1.0
C      1  0.5699030000000  0.5538030000000  0.4674320000000 1.0
C      1  0.4296260000000  0.5570170000000  0.5371040000000 1.0
C      1  0.4261890000000  0.4449600000000  0.4683830000000 1.0
C      1  0.4660040000000  0.5736140000000  0.4458180000000 1.0
C      1  0.5575140000000  0.5307730000000  0.5699060000000 1.0
C      1  0.4287410000000  0.4451030000000  0.5355260000000 1.0
C      1  0.4680280000000  0.4291240000000  0.5561460000000 1.0
C      1  0.5303870000000  0.4267880000000  0.4429550000000 1.0
C      1  0.5354330000000  0.5690290000000  0.5546830000000 1.0
C      1  0.5519560000000  0.4661190000000  0.4294950000000 1.0
C      1  0.4461380000000  0.4664620000000  0.5741270000000 1.0
C      1  0.4435970000000  0.5342560000000  0.4322140000000 1.0
C      1  0.4276790000000  0.5577280000000  0.4692340000000 1.0
C      1  0.5747730000000  0.5536210000000  0.5323560000000 1.0
C      1  0.5684090000000  0.4424900000000  0.4659300000000 1.0
C      1  0.4179320000000  0.4718850000000  0.5379270000000 1.0
C      1  0.5289250000000  0.4176480000000  0.4717900000000 1.0
C      1  0.4721590000000  0.5309120000000  0.4247420000000 1.0
C      1  0.4156190000000  0.5312040000000  0.4682510000000 1.0
C      1  0.5865610000000  0.5267880000000  0.5337890000000 1.0
C      1  0.5731640000000  0.4717940000000  0.4719810000000 1.0
C      1  0.5333840000000  0.5770590000000  0.5265150000000 1.0
C      1  0.4692420000000  0.5803390000000  0.4750060000000 1.0
C      1  0.4703840000000  0.4230140000000  0.5268290000000 1.0
C      1  0.4725540000000  0.4642990000000  0.5859000000000 1.0
C      1  0.5232680000000  0.4690310000000  0.4217430000000 1.0
C      1  0.5311720000000  0.5323070000000  0.5820640000000 1.0
C      1  0.5857590000000  0.4682270000000  0.5333260000000 1.0
C      1  0.4669080000000  0.4205460000000  0.4735210000000 1.0
C      1  0.5241330000000  0.5301140000000  0.4223950000000 1.0
C      1  0.5736280000000  0.5243100000000  0.4727550000000 1.0
C      1  0.4178720000000  0.5304400000000  0.5390890000000 1.0
C      1  0.4151700000000  0.4719420000000  0.4679560000000 1.0
C      1  0.4722280000000  0.5773750000000  0.5284990000000 1.0
C      1  0.5312620000000  0.5796470000000  0.4738960000000 1.0
C      1  0.5307220000000  0.4207450000000  0.5245010000000 1.0
C      1  0.5306540000000  0.4638380000000  0.5822260000000 1.0
C      1  0.4712330000000  0.4702460000000  0.4239920000000 1.0
C      1  0.4732170000000  0.5344870000000  0.5868330000000 1.0
C      1  0.4850100000000  0.4457820000000  0.4831090000000 1.0
C      1  0.4841230000000  0.4844430000000  0.4511480000000 1.0
C      1  0.4768350000000  0.4727420000000  0.4761010000000 1.0
C      1  0.4868830000000  0.5512140000000  0.5157820000000 1.0
C      1  0.5153470000000  0.5553950000000  0.4841770000000 1.0
C      1  0.5174030000000  0.4471830000000  0.5110000000000 1.0
C      1  0.4738710000000  0.5266300000000  0.5222680000000 1.0
C      1  0.5141980000000  0.5138670000000  0.4473090000000 1.0
C      1  0.4956270000000  0.4907670000000  0.5380320000000 1.0
C      1  0.4652640000000  0.5138350000000  0.4978570000000 1.0
C      1  0.5485590000000  0.5116940000000  0.4926500000000 1.0
C      1  0.5309930000000  0.4737310000000  0.5109370000000 1.0
C      1  0.5138830000000  0.4419470000000  0.4822740000000 1.0
C      1  0.5138570000000  0.4851610000000  0.4470380000000 1.0
C      1  0.5492770000000  0.4840140000000  0.4917970000000 1.0
C      1  0.5178730000000  0.5482350000000  0.5127640000000 1.0
C      1  0.4862730000000  0.5534240000000  0.4842710000000 1.0
C      1  0.4866140000000  0.4478030000000  0.5147520000000 1.0
C      1  0.4819780000000  0.5133310000000  0.5443580000000 1.0
C      1  0.4845300000000  0.5155120000000  0.4514740000000 1.0
C      1  0.4778330000000  0.4745880000000  0.5219750000000 1.0
C      1  0.5293380000000  0.5205080000000  0.5119230000000 1.0
C      1  0.4772250000000  0.5269700000000  0.4766430000000 1.0
C      1  0.4670390000000  0.4861990000000  0.4981560000000 1.0
C      1  0.5549450000000  0.4405620000000  0.4410850000000 1.0
C      1  0.4434270000000  0.4419940000000  0.5596500000000 1.0
C      1  0.5600590000000  0.5555350000000  0.5564840000000 1.0
C      1  0.4414550000000  0.5597800000000  0.4443190000000 1.0
C      1  0.4395760000000  0.4425470000000  0.4432880000000 1.0
C      1  0.5582740000000  0.4401450000000  0.5553780000000 1.0
C      1  0.4446210000000  0.5589600000000  0.5613930000000 1.0
C      1  0.5566420000000  0.5567440000000  0.4426390000000 1.0
C      1  0.5215460000000  0.4958180000000  0.5265180000000 1.0
END
