TITL C-205062-5890-4 -0.0031345814491876 125000 -51.3110357170999 0 0 8 (D(inf)h) n - 1
REM
REM in /rds/project/t2_vol4/rds-t2-cs072/BORA/CARBON/from-Arr/AIRSS/Generating-Clusters/GAP-ML-2020/Higher-Symm/SD-CG/HFTN-CG
REM
REM
REM
REM
REM
REM ./C.cell (b20cbc046b6831c77cfcea5457e17084)
REM AIRSS Version 0.9.1 bugfix July 2018 build 013d7b7c2542+ Fri, 06 Jul 2018 19:26:36 +0100
REM compiler GCC version 9.3.0
REM options -cpp -mtune=generic -march=x86-64 -g -O0
REM seed 103034434 -195008156 1247856072 -552299783 -18329311 1629920579 692703778 -1170679435 1329804845 -923462166 789884714 -1596445623 1944209220 902819634 940837356 49052784 691954214 -88813400 1129551387 -225160030 272253810 543191073 1237013993 536956688 -935312007 -728495698 -104594472 -1466884949 888002033 -1647313860 -1404552904 -897144440 -1812733718
REM
CELL 1.54180   50.00000   50.00000   50.00000   90.00000   90.00000   90.00000
LATT -1
SFAC C  
C      1  0.4993710000000  0.5896510000000  0.4999000000000 1.0
C      1  0.4993710000000  0.4869750000000  0.4999000000000 1.0
C      1  0.4993710000000  0.5641290000000  0.4999000000000 1.0
C      1  0.4993710000000  0.4358710000000  0.4999000000000 1.0
C      1  0.4993710000000  0.4103490000000  0.4999000000000 1.0
C      1  0.4993710000000  0.5381020000000  0.4999000000000 1.0
C      1  0.4993710000000  0.5130250000000  0.4999000000000 1.0
C      1  0.4993710000000  0.4618980000000  0.4999000000000 1.0
END
