TITL C-20191-7609-1 -8.774529849134 125000 -831.885746519219 0 0 121 (C1) n - 1
REM
REM in /rds/project/t2_vol4/rds-t2-cs072/BORA/CARBON/from-Arr/AIRSS/Generating-Clusters/GAP-ML-2020/Higher-Symm/SD-CG/HFTN-CG
REM
REM
REM
REM
REM
REM ./C.cell (b20cbc046b6831c77cfcea5457e17084)
REM AIRSS Version 0.9.1 bugfix July 2018 build 013d7b7c2542+ Fri, 06 Jul 2018 19:26:36 +0100
REM compiler GCC version 9.3.0
REM options -cpp -mtune=generic -march=x86-64 -g -O0
REM seed 1895853446 -1110324224 1896594099 -1510513722 -22679561 -35729641 929630896 1095527699 232006143 223762560 764807020 1788027939 -39089553 -1258254825 -2060097070 1240829042 -923320707 -832092218 -14292242 -708105003 885982767 2041084090 -2002663450 -245267177 1109397755 100814971 -440635487 1217510814 1241936625 1598207477 -1437224696 -1061889785 -1415525992
REM
CELL 1.54180   50.00000   50.00000   50.00000   90.00000   90.00000   90.00000
LATT -1
SFAC C  
C      1  0.4967020000000  0.4708780000000  0.5804250000000 1.0
C      1  0.4269300000000  0.4778950000000  0.4333030000000 1.0
C      1  0.5820440000000  0.4613040000000  0.4924960000000 1.0
C      1  0.4295010000000  0.5861450000000  0.5191050000000 1.0
C      1  0.4778490000000  0.5971450000000  0.5260410000000 1.0
C      1  0.5087900000000  0.4681730000000  0.4621930000000 1.0
C      1  0.4823670000000  0.5220250000000  0.4871290000000 1.0
C      1  0.4552660000000  0.5933340000000  0.5099900000000 1.0
C      1  0.5238130000000  0.5356590000000  0.5714630000000 1.0
C      1  0.4864940000000  0.4698240000000  0.4833250000000 1.0
C      1  0.5533480000000  0.5411620000000  0.5653290000000 1.0
C      1  0.4108180000000  0.4942450000000  0.5349280000000 1.0
C      1  0.5555290000000  0.5328850000000  0.4392960000000 1.0
C      1  0.4570150000000  0.4544000000000  0.5240070000000 1.0
C      1  0.5064160000000  0.4293860000000  0.4364730000000 1.0
C      1  0.4189100000000  0.5629700000000  0.5061070000000 1.0
C      1  0.5350430000000  0.5779030000000  0.4530810000000 1.0
C      1  0.5866690000000  0.5312740000000  0.4771920000000 1.0
C      1  0.4391500000000  0.5512120000000  0.4879480000000 1.0
C      1  0.4116220000000  0.5486790000000  0.5305460000000 1.0
C      1  0.5175900000000  0.5637100000000  0.4384790000000 1.0
C      1  0.4673040000000  0.5509040000000  0.5212180000000 1.0
C      1  0.4441700000000  0.5453330000000  0.4388760000000 1.0
C      1  0.5485910000000  0.4945200000000  0.5777500000000 1.0
C      1  0.5877880000000  0.4813180000000  0.5114140000000 1.0
C      1  0.5392290000000  0.4911580000000  0.5243950000000 1.0
C      1  0.5323750000000  0.5198090000000  0.5228140000000 1.0
C      1  0.4190790000000  0.5137800000000  0.4632260000000 1.0
C      1  0.4897620000000  0.4174530000000  0.5580570000000 1.0
C      1  0.4146480000000  0.4539800000000  0.5029680000000 1.0
C      1  0.5640420000000  0.5584920000000  0.5449720000000 1.0
C      1  0.5408090000000  0.4801730000000  0.4957690000000 1.0
C      1  0.4686190000000  0.4161180000000  0.4650540000000 1.0
C      1  0.5166210000000  0.4116170000000  0.4824710000000 1.0
C      1  0.5748190000000  0.4913190000000  0.4547300000000 1.0
C      1  0.5152770000000  0.5854840000000  0.4988420000000 1.0
C      1  0.5759690000000  0.4357640000000  0.5045740000000 1.0
C      1  0.4074630000000  0.4807900000000  0.5075780000000 1.0
C      1  0.5338650000000  0.4510990000000  0.5055080000000 1.0
C      1  0.5298670000000  0.4697650000000  0.4095510000000 1.0
C      1  0.4276440000000  0.5706990000000  0.5433500000000 1.0
C      1  0.5381410000000  0.4319760000000  0.4811260000000 1.0
C      1  0.5078500000000  0.4492450000000  0.5202640000000 1.0
C      1  0.4617400000000  0.4456280000000  0.4317500000000 1.0
C      1  0.4959100000000  0.4964030000000  0.4977160000000 1.0
C      1  0.4567840000000  0.5269500000000  0.5004190000000 1.0
C      1  0.4384030000000  0.5167160000000  0.5591200000000 1.0
C      1  0.5537370000000  0.4382760000000  0.5268430000000 1.0
C      1  0.4928970000000  0.5085090000000  0.5460520000000 1.0
C      1  0.4631530000000  0.5001030000000  0.5513890000000 1.0
C      1  0.4548600000000  0.4213730000000  0.4421080000000 1.0
C      1  0.5434770000000  0.4452990000000  0.4089630000000 1.0
C      1  0.5298290000000  0.5393160000000  0.4276480000000 1.0
C      1  0.5667720000000  0.5150810000000  0.5666000000000 1.0
C      1  0.5100930000000  0.4965090000000  0.4573820000000 1.0
C      1  0.5012360000000  0.5836470000000  0.5239810000000 1.0
C      1  0.5646550000000  0.4200460000000  0.4857960000000 1.0
C      1  0.5613920000000  0.4562420000000  0.5487520000000 1.0
C      1  0.4709420000000  0.5551910000000  0.4406530000000 1.0
C      1  0.5135520000000  0.4754100000000  0.5347830000000 1.0
C      1  0.4778740000000  0.5060210000000  0.5927650000000 1.0
C      1  0.4645660000000  0.5694230000000  0.4954440000000 1.0
C      1  0.5039070000000  0.4943260000000  0.5941970000000 1.0
C      1  0.4922640000000  0.5693700000000  0.4518730000000 1.0
C      1  0.5201290000000  0.5151400000000  0.4129980000000 1.0
C      1  0.5112860000000  0.5306280000000  0.5418420000000 1.0
C      1  0.4887440000000  0.4474990000000  0.4215210000000 1.0
C      1  0.5534700000000  0.5709410000000  0.4711520000000 1.0
C      1  0.4483100000000  0.4673880000000  0.4455730000000 1.0
C      1  0.4806740000000  0.4475810000000  0.5042710000000 1.0
C      1  0.5233760000000  0.4040240000000  0.5085810000000 1.0
C      1  0.5948240000000  0.5082300000000  0.5200610000000 1.0
C      1  0.5938560000000  0.5070870000000  0.4662790000000 1.0
C      1  0.5168480000000  0.4603380000000  0.5622770000000 1.0
C      1  0.4483420000000  0.4981590000000  0.4969590000000 1.0
C      1  0.5262690000000  0.5087060000000  0.5860960000000 1.0
C      1  0.5676510000000  0.5467570000000  0.4615930000000 1.0
C      1  0.4817710000000  0.5092730000000  0.4595940000000 1.0
C      1  0.5607800000000  0.5053810000000  0.4339310000000 1.0
C      1  0.5447070000000  0.4669160000000  0.5693670000000 1.0
C      1  0.5005990000000  0.5469830000000  0.5835810000000 1.0
C      1  0.4776160000000  0.5275840000000  0.4359970000000 1.0
C      1  0.5801180000000  0.5540090000000  0.5223070000000 1.0
C      1  0.5226710000000  0.5011080000000  0.4833680000000 1.0
C      1  0.4536560000000  0.5396790000000  0.5693360000000 1.0
C      1  0.4423430000000  0.5214690000000  0.4215600000000 1.0
C      1  0.4976100000000  0.4148270000000  0.4607130000000 1.0
C      1  0.4239550000000  0.5043040000000  0.4360910000000 1.0
C      1  0.4655570000000  0.4229800000000  0.5637080000000 1.0
C      1  0.4943430000000  0.5001060000000  0.4069640000000 1.0
C      1  0.4967220000000  0.5517750000000  0.5245070000000 1.0
C      1  0.5618730000000  0.4708520000000  0.4721680000000 1.0
C      1  0.4681190000000  0.4827980000000  0.5757540000000 1.0
C      1  0.5024060000000  0.5430120000000  0.4948410000000 1.0
C      1  0.4766330000000  0.5337670000000  0.5852770000000 1.0
C      1  0.4934580000000  0.5699010000000  0.4820910000000 1.0
C      1  0.4431350000000  0.4678870000000  0.5702220000000 1.0
C      1  0.4522560000000  0.4455990000000  0.5531900000000 1.0
C      1  0.4912860000000  0.4905630000000  0.5247230000000 1.0
C      1  0.5832240000000  0.5038540000000  0.5469010000000 1.0
C      1  0.4175070000000  0.5225510000000  0.5389730000000 1.0
C      1  0.5373790000000  0.4528910000000  0.4602490000000 1.0
C      1  0.5340720000000  0.4390360000000  0.4338660000000 1.0
C      1  0.4607940000000  0.4281730000000  0.4897480000000 1.0
C      1  0.4380970000000  0.4406400000000  0.5024380000000 1.0
C      1  0.5404820000000  0.4960850000000  0.4157120000000 1.0
C      1  0.4608650000000  0.4846540000000  0.5237480000000 1.0
C      1  0.4295400000000  0.5403570000000  0.4627650000000 1.0
C      1  0.5699420000000  0.4801160000000  0.5358960000000 1.0
C      1  0.5912460000000  0.5329830000000  0.5059110000000 1.0
C      1  0.4635080000000  0.4848360000000  0.4697290000000 1.0
C      1  0.4534190000000  0.5586970000000  0.5480540000000 1.0
C      1  0.5326230000000  0.4165790000000  0.5308920000000 1.0
C      1  0.4243600000000  0.4868870000000  0.5597180000000 1.0
C      1  0.5010880000000  0.4716280000000  0.4090050000000 1.0
C      1  0.5434390000000  0.5797280000000  0.4975710000000 1.0
C      1  0.4695040000000  0.5140850000000  0.4118090000000 1.0
C      1  0.5602980000000  0.5739530000000  0.5205870000000 1.0
C      1  0.4200810000000  0.4985600000000  0.4884990000000 1.0
C      1  0.5274390000000  0.5273780000000  0.4952600000000 1.0
C      1  0.5118510000000  0.4322370000000  0.5465710000000 1.0
END
