TITL C-205050-3357-3 -0.0995119842186269 125000 -460.739378949149 0 0 68 (C2) n - 1
REM
REM in /rds/project/t2_vol4/rds-t2-cs072/BORA/CARBON/from-Arr/AIRSS/Generating-Clusters/GAP-ML-2020/Higher-Symm/SD-CG/HFTN-CG
REM
REM
REM
REM
REM
REM ./C.cell (b20cbc046b6831c77cfcea5457e17084)
REM AIRSS Version 0.9.1 bugfix July 2018 build 013d7b7c2542+ Fri, 06 Jul 2018 19:26:36 +0100
REM compiler GCC version 9.3.0
REM options -cpp -mtune=generic -march=x86-64 -g -O0
REM seed 1614969836 1800531944 -501924428 -1370883362 -704653851 -952509589 346101325 -184971492 1667174400 -370751439 1799492222 -194064994 1276348117 -623864537 880179465 1723077892 1950417625 -808584357 -308446190 1205733944 -609491253 2115262057 1181342612 848532132 -1904363932 786044161 -1168284903 2072805564 -1071290615 -2070517482 1001006828 1494870918 660866381
REM
CELL 1.54180   50.00000   50.00000   50.00000   90.00000   90.00000   90.00000
LATT -1
SFAC C  
C      1  0.4917220000000  0.5260050000000  0.4345580000000 1.0
C      1  0.5260460000000  0.4930310000000  0.4346160000000 1.0
C      1  0.4804020000000  0.4807630000000  0.4359050000000 1.0
C      1  0.4930940000000  0.4737880000000  0.5669610000000 1.0
C      1  0.5264820000000  0.5072440000000  0.5657010000000 1.0
C      1  0.4816210000000  0.5199810000000  0.5671270000000 1.0
C      1  0.4940840000000  0.5417590000000  0.5542040000000 1.0
C      1  0.5398810000000  0.4851250000000  0.5542880000000 1.0
C      1  0.4676290000000  0.4731710000000  0.5554350000000 1.0
C      1  0.4929100000000  0.4580980000000  0.4472570000000 1.0
C      1  0.5392900000000  0.5147760000000  0.4461710000000 1.0
C      1  0.4666450000000  0.5260310000000  0.4475110000000 1.0
C      1  0.4891830000000  0.5255480000000  0.5151330000000 1.0
C      1  0.5271320000000  0.4988520000000  0.5150600000000 1.0
C      1  0.4839950000000  0.4777680000000  0.5151910000000 1.0
C      1  0.4874120000000  0.4759130000000  0.4865280000000 1.0
C      1  0.5271940000000  0.5027980000000  0.4864050000000 1.0
C      1  0.4831880000000  0.5221190000000  0.4865540000000 1.0
C      1  0.5546600000000  0.5543760000000  0.4940680000000 1.0
C      1  0.5203010000000  0.4256310000000  0.4931330000000 1.0
C      1  0.4266130000000  0.5186100000000  0.4918800000000 1.0
C      1  0.5543180000000  0.4452890000000  0.5083140000000 1.0
C      1  0.5204210000000  0.5728530000000  0.5098670000000 1.0
C      1  0.4255810000000  0.4796850000000  0.5076010000000 1.0
C      1  0.4442890000000  0.5403130000000  0.4940300000000 1.0
C      1  0.5631870000000  0.5276030000000  0.4944890000000 1.0
C      1  0.4928010000000  0.4320450000000  0.4944310000000 1.0
C      1  0.4445390000000  0.4589480000000  0.5071150000000 1.0
C      1  0.5624650000000  0.4723280000000  0.5070610000000 1.0
C      1  0.4927930000000  0.5683530000000  0.5077410000000 1.0
C      1  0.5128670000000  0.4820520000000  0.4752370000000 1.0
C      1  0.4702160000000  0.4972540000000  0.4800690000000 1.0
C      1  0.5084590000000  0.5204070000000  0.4745810000000 1.0
C      1  0.5172110000000  0.5243850000000  0.5215830000000 1.0
C      1  0.4780830000000  0.5027630000000  0.5270730000000 1.0
C      1  0.5091340000000  0.4798230000000  0.5263340000000 1.0
C      1  0.4660740000000  0.4569990000000  0.5283430000000 1.0
C      1  0.4795030000000  0.5513480000000  0.5282860000000 1.0
C      1  0.5544810000000  0.4924130000000  0.5278340000000 1.0
C      1  0.4656320000000  0.5433980000000  0.4734660000000 1.0
C      1  0.4793450000000  0.4490210000000  0.4737090000000 1.0
C      1  0.5541170000000  0.5080070000000  0.4732320000000 1.0
C      1  0.5319950000000  0.5676810000000  0.4828070000000 1.0
C      1  0.5440560000000  0.4370480000000  0.4813530000000 1.0
C      1  0.4219240000000  0.4923580000000  0.4806050000000 1.0
C      1  0.5325920000000  0.4303630000000  0.5200890000000 1.0
C      1  0.5455300000000  0.5638090000000  0.5210940000000 1.0
C      1  0.4253590000000  0.5059430000000  0.5189160000000 1.0
C      1  0.5463250000000  0.4593290000000  0.4646270000000 1.0
C      1  0.4400650000000  0.4787680000000  0.4641100000000 1.0
C      1  0.5116520000000  0.5592180000000  0.4656720000000 1.0
C      1  0.5482870000000  0.5412740000000  0.5375390000000 1.0
C      1  0.4428570000000  0.5193240000000  0.5360570000000 1.0
C      1  0.5121660000000  0.4394690000000  0.5368570000000 1.0
C      1  0.4509990000000  0.4547690000000  0.4785460000000 1.0
C      1  0.4861170000000  0.5636130000000  0.4791040000000 1.0
C      1  0.5618230000000  0.4801700000000  0.4785400000000 1.0
C      1  0.4517600000000  0.5436780000000  0.5226650000000 1.0
C      1  0.4863560000000  0.4364520000000  0.5229690000000 1.0
C      1  0.5636230000000  0.5198620000000  0.5230420000000 1.0
C      1  0.5231430000000  0.5321590000000  0.5508010000000 1.0
C      1  0.5161590000000  0.4647870000000  0.5513030000000 1.0
C      1  0.4620520000000  0.5038290000000  0.5522240000000 1.0
C      1  0.5223700000000  0.4685180000000  0.4502290000000 1.0
C      1  0.5154970000000  0.5348870000000  0.4494510000000 1.0
C      1  0.4604850000000  0.4960470000000  0.4508600000000 1.0
C      1  0.5006850000000  0.5003310000000  0.5759700000000 1.0
C      1  0.4992420000000  0.4997010000000  0.4256520000000 1.0
END
