TITL C-205058-5739-6 0.13094067455509 125000 -692.879080485479 0 0 100 (C1) n - 1
REM
REM in /rds/project/t2_vol4/rds-t2-cs072/BORA/CARBON/from-Arr/AIRSS/Generating-Clusters/GAP-ML-2020/Higher-Symm/SD-CG/HFTN-CG
REM
REM
REM
REM
REM
REM ./C.cell (b20cbc046b6831c77cfcea5457e17084)
REM AIRSS Version 0.9.1 bugfix July 2018 build 013d7b7c2542+ Fri, 06 Jul 2018 19:26:36 +0100
REM compiler GCC version 9.3.0
REM options -cpp -mtune=generic -march=x86-64 -g -O0
REM seed 993471283 844202223 1496777900 1431545940 -2007295180 -832888728 114630989 -352857461 959367071 -1714688640 1268087387 -1316719730 2046811787 368760579 -1704941051 -1510257162 -805427491 -64036579 -320988492 -1200122132 -467243925 -1143705560 -2076707200 -1871868160 1680771084 480606087 -1645383328 648238212 1795987138 926383573 -1435096335 -1819325324 -638803806
REM
CELL 1.54180   50.00000   50.00000   50.00000   90.00000   90.00000   90.00000
LATT -1
SFAC C  
C      1  0.5479320000000  0.4283690000000  0.4835440000000 1.0
C      1  0.5821850000000  0.5092090000000  0.4780440000000 1.0
C      1  0.5196690000000  0.4572820000000  0.5102790000000 1.0
C      1  0.4805940000000  0.4343470000000  0.5511630000000 1.0
C      1  0.5712540000000  0.4665220000000  0.4639790000000 1.0
C      1  0.4241030000000  0.4670480000000  0.5152930000000 1.0
C      1  0.4433010000000  0.5599500000000  0.4826540000000 1.0
C      1  0.4812980000000  0.5692440000000  0.5398680000000 1.0
C      1  0.4203440000000  0.5061760000000  0.4896570000000 1.0
C      1  0.5213200000000  0.5660840000000  0.5016210000000 1.0
C      1  0.5681740000000  0.4842680000000  0.4420610000000 1.0
C      1  0.4563200000000  0.4316510000000  0.5340900000000 1.0
C      1  0.5357990000000  0.4666090000000  0.5589830000000 1.0
C      1  0.4997920000000  0.4967310000000  0.5251270000000 1.0
C      1  0.5067990000000  0.4272950000000  0.5411810000000 1.0
C      1  0.4899540000000  0.4681430000000  0.4210210000000 1.0
C      1  0.4487590000000  0.5397500000000  0.4383960000000 1.0
C      1  0.4228720000000  0.5385810000000  0.5235920000000 1.0
C      1  0.5280010000000  0.4973160000000  0.4181020000000 1.0
C      1  0.5173250000000  0.5282380000000  0.5814540000000 1.0
C      1  0.5076220000000  0.4472700000000  0.4321390000000 1.0
C      1  0.5031850000000  0.5714510000000  0.5594030000000 1.0
C      1  0.4154380000000  0.5142650000000  0.5358220000000 1.0
C      1  0.4314840000000  0.4609840000000  0.4884150000000 1.0
C      1  0.4950990000000  0.4245730000000  0.4762640000000 1.0
C      1  0.4474750000000  0.4665330000000  0.5614620000000 1.0
C      1  0.5058710000000  0.5390200000000  0.4318010000000 1.0
C      1  0.5311650000000  0.4473010000000  0.5381220000000 1.0
C      1  0.4821550000000  0.5138930000000  0.5409970000000 1.0
C      1  0.4599860000000  0.5535930000000  0.4586760000000 1.0
C      1  0.4458670000000  0.4933170000000  0.5694470000000 1.0
C      1  0.5709650000000  0.4989680000000  0.5346260000000 1.0
C      1  0.5283340000000  0.5697910000000  0.5455230000000 1.0
C      1  0.5660770000000  0.4285830000000  0.5049850000000 1.0
C      1  0.4854990000000  0.5149280000000  0.4259370000000 1.0
C      1  0.4145230000000  0.4944040000000  0.5146270000000 1.0
C      1  0.4731260000000  0.5035170000000  0.5727450000000 1.0
C      1  0.5011640000000  0.5122920000000  0.4997730000000 1.0
C      1  0.5738800000000  0.5535780000000  0.5351730000000 1.0
C      1  0.4563420000000  0.5149980000000  0.4299690000000 1.0
C      1  0.4573670000000  0.4212380000000  0.5081540000000 1.0
C      1  0.4384160000000  0.5547980000000  0.5413280000000 1.0
C      1  0.5176110000000  0.4790600000000  0.5780710000000 1.0
C      1  0.4453340000000  0.5384120000000  0.5638830000000 1.0
C      1  0.5638970000000  0.5567530000000  0.4825220000000 1.0
C      1  0.4829190000000  0.4753360000000  0.4848700000000 1.0
C      1  0.5548050000000  0.5725720000000  0.5312390000000 1.0
C      1  0.5486300000000  0.5711540000000  0.5017380000000 1.0
C      1  0.4662620000000  0.4439070000000  0.4466720000000 1.0
C      1  0.5304810000000  0.5053810000000  0.5761810000000 1.0
C      1  0.4611730000000  0.5189460000000  0.4987290000000 1.0
C      1  0.5314260000000  0.4963720000000  0.4802710000000 1.0
C      1  0.5458140000000  0.4767790000000  0.4265860000000 1.0
C      1  0.5076130000000  0.5475950000000  0.4833790000000 1.0
C      1  0.4483140000000  0.4384540000000  0.4871450000000 1.0
C      1  0.5038170000000  0.4930740000000  0.4735260000000 1.0
C      1  0.5694400000000  0.5275770000000  0.5224130000000 1.0
C      1  0.4738240000000  0.4567640000000  0.5685800000000 1.0
C      1  0.4629480000000  0.4982320000000  0.4776480000000 1.0
C      1  0.4604890000000  0.5072210000000  0.5247190000000 1.0
C      1  0.5357420000000  0.4520760000000  0.4372110000000 1.0
C      1  0.4731220000000  0.4476740000000  0.4748500000000 1.0
C      1  0.4321990000000  0.5336540000000  0.4961920000000 1.0
C      1  0.5173960000000  0.5659270000000  0.4237850000000 1.0
C      1  0.4977760000000  0.5470540000000  0.5773760000000 1.0
C      1  0.5298050000000  0.4998460000000  0.5282250000000 1.0
C      1  0.4551150000000  0.5755570000000  0.5293350000000 1.0
C      1  0.5195340000000  0.5487800000000  0.5274450000000 1.0
C      1  0.4905430000000  0.5422710000000  0.5294620000000 1.0
C      1  0.5558280000000  0.5303610000000  0.4419380000000 1.0
C      1  0.5316820000000  0.5228700000000  0.4286650000000 1.0
C      1  0.5376620000000  0.4808260000000  0.5052700000000 1.0
C      1  0.4461600000000  0.4886330000000  0.4415370000000 1.0
C      1  0.4376820000000  0.4532870000000  0.5378680000000 1.0
C      1  0.4904900000000  0.5421530000000  0.4600030000000 1.0
C      1  0.5474690000000  0.4935190000000  0.5529540000000 1.0
C      1  0.4831940000000  0.4103380000000  0.4997170000000 1.0
C      1  0.5372410000000  0.5265290000000  0.5180520000000 1.0
C      1  0.5776890000000  0.5324210000000  0.4935800000000 1.0
C      1  0.4710210000000  0.5329970000000  0.5772360000000 1.0
C      1  0.4854910000000  0.5362590000000  0.5012790000000 1.0
C      1  0.5063000000000  0.4145950000000  0.5157660000000 1.0
C      1  0.4929260000000  0.4714380000000  0.5120020000000 1.0
C      1  0.4628960000000  0.4673780000000  0.4318410000000 1.0
C      1  0.5674940000000  0.4768030000000  0.5139950000000 1.0
C      1  0.5526410000000  0.4449430000000  0.4604110000000 1.0
C      1  0.5200520000000  0.4299090000000  0.4936310000000 1.0
C      1  0.5000210000000  0.4933060000000  0.4141760000000 1.0
C      1  0.5734220000000  0.5103980000000  0.4504970000000 1.0
C      1  0.4912670000000  0.4293600000000  0.4466040000000 1.0
C      1  0.4474130000000  0.5788900000000  0.5023710000000 1.0
C      1  0.4293890000000  0.5142910000000  0.5608730000000 1.0
C      1  0.4855560000000  0.5118890000000  0.4582630000000 1.0
C      1  0.5796160000000  0.4817690000000  0.4870090000000 1.0
C      1  0.5275130000000  0.5239940000000  0.4902310000000 1.0
C      1  0.5608320000000  0.4479260000000  0.5232370000000 1.0
C      1  0.4357090000000  0.4868550000000  0.4715260000000 1.0
C      1  0.4891700000000  0.4787370000000  0.5790820000000 1.0
C      1  0.5379630000000  0.5726030000000  0.4381770000000 1.0
C      1  0.5553500000000  0.5561920000000  0.4546640000000 1.0
END
