TITL C-205061-6053-10 195.307386853558 125000 -632.425511903822 0 0 90 (Cs) n - 1
REM
REM in /rds/project/t2_vol4/rds-t2-cs072/BORA/CARBON/from-Arr/AIRSS/Generating-Clusters/GAP-ML-2020/Higher-Symm/SD-CG/HFTN-CG
REM
REM
REM
REM
REM
REM ./C.cell (b20cbc046b6831c77cfcea5457e17084)
REM AIRSS Version 0.9.1 bugfix July 2018 build 013d7b7c2542+ Fri, 06 Jul 2018 19:26:36 +0100
REM compiler GCC version 9.3.0
REM options -cpp -mtune=generic -march=x86-64 -g -O0
REM seed -1559560310 661860619 979890724 -603807541 1758806834 -2118322108 636720412 -985256114 -729513738 244139733 -917912243 930980513 -1393052280 -1017376672 -903149992 -559429704 -1431966851 -1759249197 -764510949 -1482982174 1224829891 -1296310842 -1408557471 -478616067 -1847653263 -818082232 1153670368 -591708029 472976587 1142196993 -1546788496 1471989957 640008121
REM
CELL 1.54180   50.00000   50.00000   50.00000   90.00000   90.00000   90.00000
LATT -1
SFAC C  
C      1  0.5390480000000  0.5107290000000  0.5243720000000 1.0
C      1  0.5361420000000  0.4817240000000  0.5243640000000 1.0
C      1  0.5132110000000  0.4711320000000  0.5346920000000 1.0
C      1  0.4909640000000  0.4692300000000  0.5196800000000 1.0
C      1  0.4696850000000  0.4794920000000  0.5337990000000 1.0
C      1  0.4599970000000  0.5040020000000  0.5244730000000 1.0
C      1  0.4743550000000  0.5260960000000  0.5338120000000 1.0
C      1  0.4972470000000  0.5319410000000  0.5196970000000 1.0
C      1  0.5186740000000  0.5256550000000  0.5347060000000 1.0
C      1  0.5164490000000  0.5124590000000  0.4812010000000 1.0
C      1  0.5427950000000  0.5114840000000  0.4954830000000 1.0
C      1  0.5396660000000  0.4802560000000  0.4954750000000 1.0
C      1  0.5136510000000  0.4845350000000  0.4811930000000 1.0
C      1  0.4915630000000  0.4736960000000  0.4923950000000 1.0
C      1  0.4655590000000  0.4796020000000  0.4844890000000 1.0
C      1  0.4568920000000  0.5043210000000  0.4947110000000 1.0
C      1  0.4702920000000  0.5268340000000  0.4845020000000 1.0
C      1  0.4969500000000  0.5274590000000  0.4924100000000 1.0
C      1  0.4357780000000  0.4837900000000  0.4485660000000 1.0
C      1  0.4402730000000  0.5286570000000  0.4485780000000 1.0
C      1  0.4732370000000  0.5603940000000  0.4489380000000 1.0
C      1  0.5177420000000  0.5629300000000  0.4499890000000 1.0
C      1  0.5545380000000  0.5371130000000  0.4489860000000 1.0
C      1  0.5655540000000  0.4934450000000  0.4485850000000 1.0
C      1  0.5460930000000  0.4528310000000  0.4489630000000 1.0
C      1  0.5049060000000  0.4348280000000  0.4499540000000 1.0
C      1  0.4617900000000  0.4461440000000  0.4489070000000 1.0
C      1  0.5391360000000  0.5546310000000  0.5460790000000 1.0
C      1  0.5632530000000  0.5161650000000  0.5436080000000 1.0
C      1  0.5587860000000  0.4715830000000  0.5435960000000 1.0
C      1  0.5275170000000  0.4386650000000  0.5460470000000 1.0
C      1  0.4815520000000  0.4345860000000  0.5482320000000 1.0
C      1  0.4441700000000  0.4618360000000  0.5449580000000 1.0
C      1  0.4344630000000  0.5065550000000  0.5438370000000 1.0
C      1  0.4528500000000  0.5484580000000  0.5449820000000 1.0
C      1  0.4948950000000  0.5677480000000  0.5482680000000 1.0
C      1  0.4419020000000  0.4593180000000  0.4914260000000 1.0
C      1  0.4266150000000  0.5073560000000  0.4904920000000 1.0
C      1  0.4511290000000  0.5514050000000  0.4914520000000 1.0
C      1  0.4946060000000  0.5773960000000  0.4914700000000 1.0
C      1  0.5444150000000  0.5628700000000  0.4915110000000 1.0
C      1  0.5719240000000  0.5185880000000  0.4902470000000 1.0
C      1  0.5668070000000  0.4675160000000  0.4902330000000 1.0
C      1  0.5310590000000  0.4295720000000  0.4914750000000 1.0
C      1  0.4793580000000  0.4252180000000  0.4914280000000 1.0
C      1  0.4286440000000  0.5353360000000  0.5049360000000 1.0
C      1  0.4694250000000  0.5718140000000  0.5052830000000 1.0
C      1  0.5209090000000  0.5749300000000  0.5052720000000 1.0
C      1  0.5642070000000  0.5459400000000  0.5046040000000 1.0
C      1  0.5805780000000  0.4919250000000  0.5046500000000 1.0
C      1  0.5538160000000  0.4422310000000  0.5045760000000 1.0
C      1  0.5056270000000  0.4224080000000  0.5052310000000 1.0
C      1  0.4557840000000  0.4356770000000  0.5052450000000 1.0
C      1  0.4230520000000  0.4795210000000  0.5049210000000 1.0
C      1  0.5669740000000  0.4678150000000  0.4609080000000 1.0
C      1  0.5300580000000  0.4336840000000  0.4629750000000 1.0
C      1  0.4801610000000  0.4295640000000  0.4630340000000 1.0
C      1  0.4398740000000  0.4587910000000  0.4617710000000 1.0
C      1  0.4260930000000  0.5074160000000  0.4612080000000 1.0
C      1  0.4492480000000  0.5523400000000  0.4617960000000 1.0
C      1  0.4945330000000  0.5729920000000  0.4630730000000 1.0
C      1  0.5426200000000  0.5590540000000  0.4630090000000 1.0
C      1  0.5720300000000  0.5182780000000  0.4609220000000 1.0
C      1  0.5424040000000  0.4957700000000  0.4304460000000 1.0
C      1  0.5299070000000  0.4693390000000  0.4306260000000 1.0
C      1  0.5032740000000  0.4575500000000  0.4311380000000 1.0
C      1  0.4755160000000  0.4654980000000  0.4314250000000 1.0
C      1  0.4592460000000  0.4896430000000  0.4314760000000 1.0
C      1  0.4621150000000  0.5182740000000  0.4314840000000 1.0
C      1  0.4828520000000  0.5387110000000  0.4314450000000 1.0
C      1  0.5116350000000  0.5409940000000  0.4311600000000 1.0
C      1  0.5354000000000  0.5241550000000  0.4306410000000 1.0
C      1  0.4553150000000  0.5044590000000  0.5679810000000 1.0
C      1  0.4704790000000  0.5299010000000  0.5634720000000 1.0
C      1  0.4961110000000  0.5445530000000  0.5679390000000 1.0
C      1  0.5237890000000  0.5333040000000  0.5625820000000 1.0
C      1  0.5430570000000  0.5098410000000  0.5678060000000 1.0
C      1  0.5402450000000  0.4817760000000  0.5677990000000 1.0
C      1  0.5167050000000  0.4626040000000  0.5625630000000 1.0
C      1  0.4873450000000  0.4570680000000  0.5679160000000 1.0
C      1  0.4651300000000  0.4765160000000  0.5634580000000 1.0
C      1  0.4245900000000  0.4804720000000  0.5332850000000 1.0
C      1  0.4299620000000  0.5340830000000  0.5333000000000 1.0
C      1  0.4694150000000  0.5700470000000  0.5339840000000 1.0
C      1  0.5200880000000  0.5728220000000  0.5343480000000 1.0
C      1  0.5625650000000  0.5437940000000  0.5333680000000 1.0
C      1  0.5777400000000  0.4922020000000  0.5330840000000 1.0
C      1  0.5526310000000  0.4446460000000  0.5333410000000 1.0
C      1  0.5052380000000  0.4246220000000  0.5343070000000 1.0
C      1  0.4561230000000  0.4373950000000  0.5339480000000 1.0
END
