TITL C-20178-7572-8 -0.00420596648938134 125000 -264.658657349691 0 0 40 (S4) n - 1
REM
REM in /rds/project/t2_vol4/rds-t2-cs072/BORA/CARBON/from-Arr/AIRSS/Generating-Clusters/GAP-ML-2020/Higher-Symm/SD-CG/HFTN-CG
REM
REM
REM
REM
REM
REM ./C.cell (b20cbc046b6831c77cfcea5457e17084)
REM AIRSS Version 0.9.1 bugfix July 2018 build 013d7b7c2542+ Fri, 06 Jul 2018 19:26:36 +0100
REM compiler GCC version 9.3.0
REM options -cpp -mtune=generic -march=x86-64 -g -O0
REM seed -1118751339 -947875130 -357709979 1436522200 -2055704536 -59690500 -1008764452 1281535826 -976598209 993928739 1438336363 1028998949 1709805512 1503246665 1578358931 -1686738423 -1442579873 512378522 -742382632 -65493946 1217211792 310656051 -2059652247 -1949154482 2010270932 1925154968 60867087 185879222 -1335958244 -1931636805 1557088228 514809803 1685734136
REM
CELL 1.54180   50.00000   50.00000   50.00000   90.00000   90.00000   90.00000
LATT -1
SFAC C  
C      1  0.4995110000000  0.4442220000000  0.4618180000000 1.0
C      1  0.5004930000000  0.4618170000000  0.5557780000000 1.0
C      1  0.4995180000000  0.5557780000000  0.5381830000000 1.0
C      1  0.5004790000000  0.5381830000000  0.4442210000000 1.0
C      1  0.4966930000000  0.5144510000000  0.5147820000000 1.0
C      1  0.5033070000000  0.5147820000000  0.4855490000000 1.0
C      1  0.4966900000000  0.4855490000000  0.4852190000000 1.0
C      1  0.5033110000000  0.4852180000000  0.5144500000000 1.0
C      1  0.4644280000000  0.4596230000000  0.5211670000000 1.0
C      1  0.5355800000000  0.5211630000000  0.5403720000000 1.0
C      1  0.4644220000000  0.5403760000000  0.4788420000000 1.0
C      1  0.5355710000000  0.4788380000000  0.4596190000000 1.0
C      1  0.5091370000000  0.5130000000000  0.4399870000000 1.0
C      1  0.4908550000000  0.4399880000000  0.4870010000000 1.0
C      1  0.5091510000000  0.4870000000000  0.5600110000000 1.0
C      1  0.4908560000000  0.5600120000000  0.5130010000000 1.0
C      1  0.5326170000000  0.5195900000000  0.4789290000000 1.0
C      1  0.4673790000000  0.4789330000000  0.4804150000000 1.0
C      1  0.5326220000000  0.4804110000000  0.5210630000000 1.0
C      1  0.4673830000000  0.5210660000000  0.5195930000000 1.0
C      1  0.4909530000000  0.4921890000000  0.4436990000000 1.0
C      1  0.5090420000000  0.4436990000000  0.5078100000000 1.0
C      1  0.4909660000000  0.5078110000000  0.5563030000000 1.0
C      1  0.5090390000000  0.5563020000000  0.4921880000000 1.0
C      1  0.5455350000000  0.5360940000000  0.5199830000000 1.0
C      1  0.4544630000000  0.5199880000000  0.4639120000000 1.0
C      1  0.5455310000000  0.4639070000000  0.4800060000000 1.0
C      1  0.4544720000000  0.4800110000000  0.5360990000000 1.0
C      1  0.5068270000000  0.5287720000000  0.5426300000000 1.0
C      1  0.4931730000000  0.5426310000000  0.4712290000000 1.0
C      1  0.5068180000000  0.4712280000000  0.4573680000000 1.0
C      1  0.4931810000000  0.4573690000000  0.5287730000000 1.0
C      1  0.4647180000000  0.5456680000000  0.5072710000000 1.0
C      1  0.5352760000000  0.5072670000000  0.4543270000000 1.0
C      1  0.4647180000000  0.4543310000000  0.4927380000000 1.0
C      1  0.5352870000000  0.4927340000000  0.5456650000000 1.0
C      1  0.4643930000000  0.4956360000000  0.4573380000000 1.0
C      1  0.5356040000000  0.4573340000000  0.5043600000000 1.0
C      1  0.4644020000000  0.5043630000000  0.5426700000000 1.0
C      1  0.5356010000000  0.5426670000000  0.4956320000000 1.0
END
