TITL C-205038-2140-8 8.31924309773479 125000 -195.992016218074 0 0 30 (D3d) n - 1
REM
REM in /rds/project/t2_vol4/rds-t2-cs072/BORA/CARBON/from-Arr/AIRSS/Generating-Clusters/GAP-ML-2020/Higher-Symm/SD-CG/HFTN-CG
REM
REM
REM
REM
REM
REM ./C.cell (b20cbc046b6831c77cfcea5457e17084)
REM AIRSS Version 0.9.1 bugfix July 2018 build 013d7b7c2542+ Fri, 06 Jul 2018 19:26:36 +0100
REM compiler GCC version 9.3.0
REM options -cpp -mtune=generic -march=x86-64 -g -O0
REM seed 119883336 -1155760906 -1925154752 57345965 1347585057 -408376808 -95806273 -865756414 1889728732 1956118050 -2089608334 1377883727 1600235841 -378658264 -338798449 71120337 1080155714 1508508516 -255174696 1754505590 -1467183855 -965031693 641522613 -162820086 1331358590 -1704687429 -1018902478 1017034799 -1636824909 475108000 1092880719 -885053616 489915157
REM
CELL 1.54180   50.00000   50.00000   50.00000   90.00000   90.00000   90.00000
LATT -1
SFAC C  
C      1  0.5333550000000  0.4730020000000  0.5357160000000 1.0
C      1  0.5396680000000  0.5159500000000  0.4640950000000 1.0
C      1  0.5064130000000  0.5417620000000  0.5364950000000 1.0
C      1  0.4666450000000  0.5269980000000  0.4642840000000 1.0
C      1  0.4603320000000  0.4840500000000  0.5359050000000 1.0
C      1  0.4935870000000  0.4582380000000  0.4635050000000 1.0
C      1  0.5408320000000  0.5511390000000  0.5005230000000 1.0
C      1  0.4761260000000  0.5609280000000  0.5006910000000 1.0
C      1  0.4352940000000  0.5097890000000  0.5001670000000 1.0
C      1  0.4591680000000  0.4488610000000  0.4994770000000 1.0
C      1  0.5238740000000  0.4390720000000  0.4993090000000 1.0
C      1  0.5647060000000  0.4902100000000  0.4998330000000 1.0
C      1  0.5403680000000  0.5406200000000  0.4770800000000 1.0
C      1  0.4852580000000  0.5549020000000  0.5239450000000 1.0
C      1  0.4448250000000  0.5150500000000  0.4768870000000 1.0
C      1  0.4596320000000  0.4593800000000  0.5229200000000 1.0
C      1  0.5147420000000  0.4450980000000  0.4760550000000 1.0
C      1  0.5551750000000  0.4849500000000  0.5231120000000 1.0
C      1  0.4848620000000  0.4934860000000  0.5513770000000 1.0
C      1  0.4975120000000  0.4844400000000  0.4483970000000 1.0
C      1  0.5127930000000  0.4892600000000  0.5513050000000 1.0
C      1  0.5151380000000  0.5065140000000  0.4486230000000 1.0
C      1  0.5024880000000  0.5155600000000  0.5516030000000 1.0
C      1  0.4872070000000  0.5107400000000  0.4486950000000 1.0
C      1  0.4429600000000  0.5019270000000  0.5234020000000 1.0
C      1  0.4695560000000  0.4519340000000  0.4761720000000 1.0
C      1  0.5266610000000  0.4492390000000  0.5227470000000 1.0
C      1  0.5570400000000  0.4980730000000  0.4765970000000 1.0
C      1  0.5304440000000  0.5480660000000  0.5238280000000 1.0
C      1  0.4733390000000  0.5507610000000  0.4772530000000 1.0
END
