TITL C-20176-7563-5 -840.501321383825 125000 -411.531922335811 0 0 62 (C1) n - 1
REM
REM in /rds/project/t2_vol4/rds-t2-cs072/BORA/CARBON/from-Arr/AIRSS/Generating-Clusters/GAP-ML-2020/Higher-Symm/SD-CG/HFTN-CG
REM
REM
REM
REM
REM
REM ./C.cell (b20cbc046b6831c77cfcea5457e17084)
REM AIRSS Version 0.9.1 bugfix July 2018 build 013d7b7c2542+ Fri, 06 Jul 2018 19:26:36 +0100
REM compiler GCC version 9.3.0
REM options -cpp -mtune=generic -march=x86-64 -g -O0
REM seed 1302311565 1893219132 1513866523 -1552659339 673921663 494465491 1788605211 1526888480 -1285850267 -826890077 2055931764 -1295988953 1534611085 203956985 556275599 518729920 -250082813 -1324617583 1960494535 1339026952 -1889789224 -930211247 1646910758 -1600300736 -1094041320 -367999003 -903969484 402424002 1209510430 364102381 -1457027103 -374288773 -1421231181
REM
CELL 1.54180   50.00000   50.00000   50.00000   90.00000   90.00000   90.00000
LATT -1
SFAC C  
C      1  0.5722700000000  0.5141210000000  0.4986970000000 1.0
C      1  0.5665010000000  0.4743850000000  0.5316090000000 1.0
C      1  0.4418430000000  0.5141060000000  0.4476780000000 1.0
C      1  0.4907580000000  0.4729460000000  0.5024050000000 1.0
C      1  0.4588620000000  0.5061250000000  0.4255620000000 1.0
C      1  0.5557910000000  0.4967100000000  0.5435070000000 1.0
C      1  0.5310010000000  0.4722560000000  0.4305700000000 1.0
C      1  0.5213170000000  0.4504810000000  0.4404940000000 1.0
C      1  0.4515900000000  0.5243130000000  0.5401120000000 1.0
C      1  0.4638980000000  0.4323090000000  0.4868600000000 1.0
C      1  0.5131450000000  0.4596560000000  0.5634680000000 1.0
C      1  0.4745690000000  0.5247740000000  0.5598570000000 1.0
C      1  0.4405970000000  0.5003750000000  0.5281410000000 1.0
C      1  0.4483680000000  0.5296020000000  0.4932640000000 1.0
C      1  0.4531270000000  0.5344430000000  0.4641320000000 1.0
C      1  0.5073690000000  0.5169060000000  0.5230940000000 1.0
C      1  0.5579770000000  0.4611030000000  0.5091330000000 1.0
C      1  0.4379060000000  0.4800490000000  0.4870890000000 1.0
C      1  0.4897880000000  0.5660310000000  0.5176470000000 1.0
C      1  0.5221530000000  0.4324740000000  0.4911750000000 1.0
C      1  0.5199180000000  0.4748760000000  0.5045850000000 1.0
C      1  0.4841330000000  0.4956530000000  0.4834870000000 1.0
C      1  0.5229960000000  0.5297300000000  0.5497560000000 1.0
C      1  0.5340000000000  0.5046300000000  0.5605830000000 1.0
C      1  0.4765550000000  0.5217950000000  0.4928000000000 1.0
C      1  0.5079260000000  0.4968350000000  0.4670040000000 1.0
C      1  0.4532090000000  0.4867180000000  0.4443140000000 1.0
C      1  0.5273660000000  0.5147090000000  0.4796330000000 1.0
C      1  0.5254510000000  0.4717750000000  0.4756450000000 1.0
C      1  0.4824040000000  0.4529170000000  0.4790260000000 1.0
C      1  0.4345090000000  0.5048750000000  0.5010270000000 1.0
C      1  0.5122560000000  0.4884780000000  0.5691830000000 1.0
C      1  0.4785750000000  0.4713310000000  0.5297920000000 1.0
C      1  0.5177780000000  0.5422330000000  0.4806830000000 1.0
C      1  0.4902170000000  0.4964940000000  0.5379760000000 1.0
C      1  0.4968960000000  0.5379740000000  0.5045730000000 1.0
C      1  0.4406220000000  0.4327350000000  0.4979080000000 1.0
C      1  0.5279870000000  0.5036560000000  0.5077550000000 1.0
C      1  0.4627470000000  0.4786090000000  0.4699310000000 1.0
C      1  0.5319840000000  0.4463690000000  0.5136930000000 1.0
C      1  0.5438500000000  0.5414960000000  0.5329140000000 1.0
C      1  0.5342900000000  0.5004540000000  0.4347650000000 1.0
C      1  0.5548180000000  0.4728960000000  0.4823120000000 1.0
C      1  0.5550320000000  0.5164390000000  0.5209800000000 1.0
C      1  0.4487390000000  0.4726830000000  0.5289350000000 1.0
C      1  0.5401570000000  0.5562820000000  0.4908590000000 1.0
C      1  0.4933400000000  0.4505110000000  0.5468060000000 1.0
C      1  0.4374260000000  0.4590460000000  0.5064590000000 1.0
C      1  0.5489800000000  0.5105040000000  0.4581310000000 1.0
C      1  0.5195710000000  0.4430520000000  0.5414870000000 1.0
C      1  0.4773840000000  0.5423830000000  0.4483120000000 1.0
C      1  0.5107030000000  0.4463240000000  0.4686530000000 1.0
C      1  0.5081000000000  0.5143730000000  0.4400240000000 1.0
C      1  0.5132360000000  0.5787640000000  0.5223990000000 1.0
C      1  0.4628760000000  0.5687070000000  0.5228160000000 1.0
C      1  0.4495420000000  0.5450470000000  0.5198580000000 1.0
C      1  0.4978590000000  0.5396330000000  0.5590850000000 1.0
C      1  0.5662020000000  0.4989580000000  0.4765360000000 1.0
C      1  0.5055810000000  0.5419960000000  0.4536310000000 1.0
C      1  0.5366110000000  0.5637300000000  0.5173800000000 1.0
C      1  0.4823520000000  0.5205260000000  0.4277660000000 1.0
C      1  0.4869860000000  0.5006380000000  0.5660400000000 1.0
END
