TITL C-207197-9046-3 -0.047238024082795 125000 -810.688075573129 0 0 119 (T23) n - 1
REM
REM in /rds/project/t2_vol4/rds-t2-cs072/BORA/CARBON/from-Arr/AIRSS/Generating-Clusters/GAP-ML-2020/Higher-Symm/SD-CG/HFTN-CG
REM
REM
REM
REM
REM
REM ./C.cell (b20cbc046b6831c77cfcea5457e17084)
REM AIRSS Version 0.9.1 bugfix July 2018 build 013d7b7c2542+ Fri, 06 Jul 2018 19:26:36 +0100
REM compiler GCC version 9.3.0
REM options -cpp -mtune=generic -march=x86-64 -g -O0
REM seed -1603062088 2096343632 1420183759 201435615 691121108 -284731538 728316572 2055817255 -715181533 104322103 -477166566 -499538047 -696086739 -858753375 108953193 1716993774 945799581 1305348727 173755243 -530497104 48429414 1068308897 -695099773 -711246916 142281112 1321333045 1863534605 143957238 870555708 280353906 2116646749 -1207478899 -1320639074
REM
CELL 1.54180   50.00000   50.00000   50.00000   90.00000   90.00000   90.00000
LATT -1
SFAC C  
C      1  0.4536150000000  0.4776270000000  0.5262980000000 1.0
C      1  0.5266430000000  0.4542230000000  0.4766700000000 1.0
C      1  0.4770180000000  0.5272530000000  0.4532690000000 1.0
C      1  0.4536150000000  0.5226230000000  0.4720430000000 1.0
C      1  0.5454190000000  0.5226220000000  0.5262960000000 1.0
C      1  0.5454170000000  0.4776260000000  0.4720410000000 1.0
C      1  0.5266450000000  0.5460250000000  0.5216670000000 1.0
C      1  0.4723890000000  0.5460260000000  0.4766720000000 1.0
C      1  0.4723890000000  0.4542230000000  0.5216680000000 1.0
C      1  0.4770190000000  0.4729970000000  0.5450710000000 1.0
C      1  0.5220130000000  0.4729970000000  0.4532670000000 1.0
C      1  0.5220160000000  0.5272520000000  0.5450700000000 1.0
C      1  0.4838090000000  0.5240880000000  0.5712660000000 1.0
C      1  0.5716130000000  0.4844140000000  0.5231310000000 1.0
C      1  0.5234810000000  0.5722200000000  0.4834600000000 1.0
C      1  0.4838050000000  0.4761610000000  0.4270740000000 1.0
C      1  0.5152270000000  0.4761600000000  0.5712650000000 1.0
C      1  0.5152240000000  0.5240880000000  0.4270730000000 1.0
C      1  0.5716120000000  0.5158330000000  0.4752040000000 1.0
C      1  0.4274210000000  0.5158350000000  0.5231350000000 1.0
C      1  0.4274200000000  0.4844170000000  0.4752070000000 1.0
C      1  0.5234800000000  0.4280280000000  0.5148780000000 1.0
C      1  0.4755510000000  0.4280290000000  0.4834600000000 1.0
C      1  0.4755540000000  0.5722210000000  0.5148790000000 1.0
C      1  0.5763410000000  0.5404840000000  0.4930160000000 1.0
C      1  0.4933670000000  0.5769490000000  0.5395310000000 1.0
C      1  0.5398790000000  0.4939720000000  0.5759930000000 1.0
C      1  0.5763400000000  0.4597620000000  0.5053190000000 1.0
C      1  0.4226920000000  0.4597650000000  0.4930190000000 1.0
C      1  0.4226930000000  0.5404870000000  0.5053230000000 1.0
C      1  0.4933630000000  0.4233010000000  0.4588080000000 1.0
C      1  0.5056680000000  0.4233000000000  0.5395300000000 1.0
C      1  0.5056680000000  0.5769490000000  0.4588090000000 1.0
C      1  0.5398760000000  0.5062760000000  0.4223440000000 1.0
C      1  0.4591570000000  0.5062770000000  0.5759950000000 1.0
C      1  0.4591540000000  0.4939740000000  0.4223460000000 1.0
C      1  0.5562130000000  0.4708340000000  0.5695140000000 1.0
C      1  0.5698630000000  0.5568190000000  0.4698780000000 1.0
C      1  0.4702290000000  0.5704710000000  0.5558660000000 1.0
C      1  0.5562110000000  0.5294140000000  0.4288220000000 1.0
C      1  0.4428230000000  0.5294150000000  0.5695170000000 1.0
C      1  0.4428190000000  0.4708360000000  0.4288250000000 1.0
C      1  0.5698620000000  0.4434280000000  0.5284570000000 1.0
C      1  0.4291690000000  0.4434300000000  0.4698810000000 1.0
C      1  0.4291720000000  0.5568210000000  0.5284610000000 1.0
C      1  0.4702240000000  0.4297790000000  0.4424740000000 1.0
C      1  0.5288060000000  0.4297780000000  0.5558640000000 1.0
C      1  0.5288060000000  0.5704700000000  0.4424740000000 1.0
C      1  0.5142630000000  0.5447540000000  0.4959320000000 1.0
C      1  0.4962810000000  0.5148700000000  0.5437990000000 1.0
C      1  0.5441460000000  0.4968870000000  0.5139140000000 1.0
C      1  0.5142620000000  0.4554950000000  0.5024060000000 1.0
C      1  0.4847700000000  0.4554950000000  0.4959330000000 1.0
C      1  0.4847720000000  0.5447540000000  0.5024070000000 1.0
C      1  0.4962780000000  0.4853790000000  0.4545400000000 1.0
C      1  0.5027540000000  0.4853790000000  0.5437990000000 1.0
C      1  0.5027530000000  0.5148700000000  0.4545400000000 1.0
C      1  0.5441460000000  0.5033610000000  0.4844230000000 1.0
C      1  0.4548870000000  0.5033620000000  0.5139160000000 1.0
C      1  0.4548870000000  0.4968880000000  0.4844250000000 1.0
C      1  0.5470060000000  0.4284030000000  0.5331340000000 1.0
C      1  0.5334810000000  0.5476140000000  0.4274480000000 1.0
C      1  0.4277970000000  0.5340910000000  0.5466610000000 1.0
C      1  0.5470070000000  0.5718450000000  0.4652030000000 1.0
C      1  0.4520290000000  0.5718460000000  0.5331370000000 1.0
C      1  0.4520250000000  0.4284050000000  0.4652040000000 1.0
C      1  0.5334830000000  0.4526340000000  0.5708890000000 1.0
C      1  0.4655480000000  0.4526360000000  0.4274490000000 1.0
C      1  0.4655530000000  0.5476140000000  0.5708910000000 1.0
C      1  0.4277940000000  0.4661600000000  0.4516810000000 1.0
C      1  0.5712380000000  0.4661570000000  0.5466570000000 1.0
C      1  0.5712370000000  0.5340890000000  0.4516780000000 1.0
C      1  0.4529500000000  0.4317140000000  0.5503950000000 1.0
C      1  0.5507390000000  0.4535570000000  0.4307570000000 1.0
C      1  0.4311050000000  0.5513510000000  0.4526040000000 1.0
C      1  0.4529490000000  0.5685360000000  0.4479460000000 1.0
C      1  0.5460860000000  0.5685340000000  0.5503940000000 1.0
C      1  0.5460810000000  0.4317130000000  0.4479430000000 1.0
C      1  0.5507440000000  0.5466900000000  0.5675790000000 1.0
C      1  0.4482900000000  0.5466930000000  0.4307600000000 1.0
C      1  0.4482920000000  0.4535580000000  0.5675810000000 1.0
C      1  0.4311060000000  0.4489000000000  0.5457380000000 1.0
C      1  0.5679250000000  0.4488980000000  0.4526000000000 1.0
C      1  0.5679290000000  0.5513490000000  0.5457350000000 1.0
C      1  0.5905660000000  0.5074190000000  0.5206960000000 1.0
C      1  0.5210470000000  0.5911730000000  0.5064650000000 1.0
C      1  0.5068150000000  0.5216530000000  0.5902180000000 1.0
C      1  0.5905650000000  0.4928280000000  0.4776380000000 1.0
C      1  0.4084680000000  0.4928300000000  0.5207000000000 1.0
C      1  0.4084670000000  0.5074220000000  0.4776430000000 1.0
C      1  0.5210440000000  0.4090750000000  0.4918730000000 1.0
C      1  0.4779870000000  0.4090760000000  0.5064650000000 1.0
C      1  0.4779890000000  0.5911740000000  0.4918750000000 1.0
C      1  0.5068100000000  0.4785960000000  0.4081200000000 1.0
C      1  0.4922230000000  0.4785950000000  0.5902190000000 1.0
C      1  0.4922190000000  0.5216540000000  0.4081210000000 1.0
C      1  0.4249680000000  0.4669570000000  0.5217380000000 1.0
C      1  0.5220820000000  0.4255750000000  0.4660000000000 1.0
C      1  0.4663470000000  0.5226920000000  0.4246210000000 1.0
C      1  0.4249670000000  0.5332940000000  0.4766040000000 1.0
C      1  0.5740660000000  0.5332910000000  0.5217350000000 1.0
C      1  0.5740640000000  0.4669550000000  0.4766010000000 1.0
C      1  0.5220850000000  0.5746730000000  0.5323370000000 1.0
C      1  0.4769500000000  0.5746740000000  0.4660020000000 1.0
C      1  0.4769490000000  0.4255760000000  0.5323380000000 1.0
C      1  0.4663500000000  0.4775580000000  0.5737190000000 1.0
C      1  0.5326830000000  0.4775570000000  0.4246200000000 1.0
C      1  0.5326870000000  0.5226910000000  0.5737180000000 1.0
C      1  0.4995150000000  0.3929710000000  0.4991690000000 1.0
C      1  0.4995140000000  0.5001250000000  0.3920160000000 1.0
C      1  0.3923630000000  0.5001260000000  0.4991720000000 1.0
C      1  0.4995180000000  0.6072780000000  0.4991700000000 1.0
C      1  0.4995190000000  0.5001240000000  0.6063230000000 1.0
C      1  0.6066700000000  0.5001230000000  0.4991670000000 1.0
C      1  0.5175040000000  0.5181120000000  0.4811820000000 1.0
C      1  0.4815280000000  0.4821370000000  0.4811820000000 1.0
C      1  0.4815300000000  0.5181120000000  0.5171570000000 1.0
C      1  0.5175040000000  0.4821370000000  0.5171560000000 1.0
C      1  0.4995160000000  0.5001250000000  0.4991690000000 1.0
END
