TITL C-207205-9056-3 -18.3042305286086 125000 -118.148283274083 0 0 19 (C2h) n - 1
REM
REM in /rds/project/t2_vol4/rds-t2-cs072/BORA/CARBON/from-Arr/AIRSS/Generating-Clusters/GAP-ML-2020/Higher-Symm/SD-CG/HFTN-CG
REM
REM
REM
REM
REM
REM ./C.cell (b20cbc046b6831c77cfcea5457e17084)
REM AIRSS Version 0.9.1 bugfix July 2018 build 013d7b7c2542+ Fri, 06 Jul 2018 19:26:36 +0100
REM compiler GCC version 9.3.0
REM options -cpp -mtune=generic -march=x86-64 -g -O0
REM seed 1320282981 57130727 -293280938 -1149782212 1942166283 1332153234 -1002202557 720381461 -1650471682 -467109444 1012012135 -1767576043 1106013831 1677459012 -879528514 1756116744 -1867818525 -1317881184 888469254 -1351212667 -845411388 1249998827 1483175606 -1471901858 1316167437 -2080364251 497819539 952053231 1662483376 -567618746 -1419937528 -493342835 300330992
REM
CELL 1.54180   50.00000   50.00000   50.00000   90.00000   90.00000   90.00000
LATT -1
SFAC C  
C      1  0.4794630000000  0.4794060000000  0.4686230000000 1.0
C      1  0.5176840000000  0.5204050000000  0.4686190000000 1.0
C      1  0.4794760000000  0.4794010000000  0.5351530000000 1.0
C      1  0.5176970000000  0.5204000000000  0.5351490000000 1.0
C      1  0.5070040000000  0.4710880000000  0.5287180000000 1.0
C      1  0.4901660000000  0.5287140000000  0.5287260000000 1.0
C      1  0.5069940000000  0.4710920000000  0.4750460000000 1.0
C      1  0.4901560000000  0.5287180000000  0.4750540000000 1.0
C      1  0.5259250000000  0.5388820000000  0.5149230000000 1.0
C      1  0.4712390000000  0.4609220000000  0.5149280000000 1.0
C      1  0.5259200000000  0.5388840000000  0.4888440000000 1.0
C      1  0.4712340000000  0.4609240000000  0.4888490000000 1.0
C      1  0.5218420000000  0.4942490000000  0.5280030000000 1.0
C      1  0.4753280000000  0.5055530000000  0.5280130000000 1.0
C      1  0.5218320000000  0.4942530000000  0.4757590000000 1.0
C      1  0.4753180000000  0.5055570000000  0.4757690000000 1.0
C      1  0.4983830000000  0.4594470000000  0.5018830000000 1.0
C      1  0.4987770000000  0.5403590000000  0.5018890000000 1.0
C      1  0.4985800000000  0.4999030000000  0.5018860000000 1.0
END
