TITL C-207212-9279-1 -0.0702279800118745 125000 -240.26412152434 0 0 37 (C1) n - 1
REM
REM in /rds/project/t2_vol4/rds-t2-cs072/BORA/CARBON/from-Arr/AIRSS/Generating-Clusters/GAP-ML-2020/Higher-Symm/SD-CG/HFTN-CG
REM
REM
REM
REM
REM
REM ./C.cell (b20cbc046b6831c77cfcea5457e17084)
REM AIRSS Version 0.9.1 bugfix July 2018 build 013d7b7c2542+ Fri, 06 Jul 2018 19:26:36 +0100
REM compiler GCC version 9.3.0
REM options -cpp -mtune=generic -march=x86-64 -g -O0
REM seed 1630656790 -475288554 -254820804 241468971 228568004 -783328906 401034109 689273497 -545400974 -1207959367 -2124135151 837457231 1640775343 1127047394 -508755093 -214085452 80588143 669458964 265717140 863219910 -1433243547 -305316478 1567722713 -1480683829 -1331408062 141048062 17621164 -1368683403 68737213 1680906701 932229453 -904287822 279489850
REM
CELL 1.54180   50.00000   50.00000   50.00000   90.00000   90.00000   90.00000
LATT -1
SFAC C  
C      1  0.4751680000000  0.4827160000000  0.4963050000000 1.0
C      1  0.5315120000000  0.4935040000000  0.4931900000000 1.0
C      1  0.5256570000000  0.4974330000000  0.4392850000000 1.0
C      1  0.4790170000000  0.4944400000000  0.4318330000000 1.0
C      1  0.4704090000000  0.4561330000000  0.5068640000000 1.0
C      1  0.5226150000000  0.4671340000000  0.4991410000000 1.0
C      1  0.5487490000000  0.5023770000000  0.5404640000000 1.0
C      1  0.4520840000000  0.4987900000000  0.5397940000000 1.0
C      1  0.5529340000000  0.5129320000000  0.4904650000000 1.0
C      1  0.4598010000000  0.5060960000000  0.4912680000000 1.0
C      1  0.5111430000000  0.4506220000000  0.4807720000000 1.0
C      1  0.4827660000000  0.4406400000000  0.4874650000000 1.0
C      1  0.4517780000000  0.5155170000000  0.5164060000000 1.0
C      1  0.5538510000000  0.5201690000000  0.5176640000000 1.0
C      1  0.5009970000000  0.4559790000000  0.4535900000000 1.0
C      1  0.4767530000000  0.4425320000000  0.4591550000000 1.0
C      1  0.5315760000000  0.5200360000000  0.4486920000000 1.0
C      1  0.4719760000000  0.5135650000000  0.4467680000000 1.0
C      1  0.4943930000000  0.4940550000000  0.5159550000000 1.0
C      1  0.5120650000000  0.5115060000000  0.5033430000000 1.0
C      1  0.5284740000000  0.4819270000000  0.5464080000000 1.0
C      1  0.4688820000000  0.4777210000000  0.5503700000000 1.0
C      1  0.5383770000000  0.5331210000000  0.4723380000000 1.0
C      1  0.4703600000000  0.5248420000000  0.4718020000000 1.0
C      1  0.4702170000000  0.5203550000000  0.5517740000000 1.0
C      1  0.5268340000000  0.5215910000000  0.5498030000000 1.0
C      1  0.4704410000000  0.5360540000000  0.5275900000000 1.0
C      1  0.5265160000000  0.5323390000000  0.5227800000000 1.0
C      1  0.5106580000000  0.4704370000000  0.5262440000000 1.0
C      1  0.4826940000000  0.4585660000000  0.5339070000000 1.0
C      1  0.4865270000000  0.5519660000000  0.5111940000000 1.0
C      1  0.5161380000000  0.5560880000000  0.5112180000000 1.0
C      1  0.5180480000000  0.5510670000000  0.4818860000000 1.0
C      1  0.4878630000000  0.5470580000000  0.4820440000000 1.0
C      1  0.5117680000000  0.5005060000000  0.5619150000000 1.0
C      1  0.4849660000000  0.4986250000000  0.5637370000000 1.0
C      1  0.5035340000000  0.4800780000000  0.4382900000000 1.0
END
