TITL C-20177-7553-4 538.250373325915 125000 -737.390494099963 0 0 101 (C1) n - 1
REM
REM in /rds/project/t2_vol4/rds-t2-cs072/BORA/CARBON/from-Arr/AIRSS/Generating-Clusters/GAP-ML-2020/Higher-Symm/SD-CG/HFTN-CG
REM
REM
REM
REM
REM
REM ./C.cell (b20cbc046b6831c77cfcea5457e17084)
REM AIRSS Version 0.9.1 bugfix July 2018 build 013d7b7c2542+ Fri, 06 Jul 2018 19:26:36 +0100
REM compiler GCC version 9.3.0
REM options -cpp -mtune=generic -march=x86-64 -g -O0
REM seed 679004110 2012933208 1440946763 -2105164549 757071571 2070878838 192921642 1238254072 -1797448240 643982926 -637503441 -606831213 -880091491 -119299151 -1746621437 1802085003 -1205154552 -1825963522 330519959 -919369262 -407077224 -1634205720 -1809793107 1644642190 -806284532 -513224858 781214094 -645613043 1853436605 -1570272902 -1971041331 -553485684 1785570146
REM
CELL 1.54180   50.00000   50.00000   50.00000   90.00000   90.00000   90.00000
LATT -1
SFAC C  
C      1  0.5533190000000  0.4888250000000  0.4355120000000 1.0
C      1  0.5569740000000  0.5069290000000  0.5595610000000 1.0
C      1  0.4434900000000  0.5128110000000  0.4386830000000 1.0
C      1  0.4460370000000  0.4910270000000  0.5636180000000 1.0
C      1  0.5264160000000  0.4184920000000  0.4750290000000 1.0
C      1  0.5325550000000  0.5787800000000  0.5215280000000 1.0
C      1  0.4729050000000  0.5832340000000  0.4781140000000 1.0
C      1  0.4683870000000  0.4193750000000  0.5220120000000 1.0
C      1  0.5164140000000  0.4732870000000  0.5203440000000 1.0
C      1  0.4972190000000  0.5365050000000  0.4870610000000 1.0
C      1  0.4691710000000  0.5264540000000  0.5185710000000 1.0
C      1  0.5046990000000  0.4629380000000  0.4812150000000 1.0
C      1  0.5263720000000  0.4181930000000  0.5214190000000 1.0
C      1  0.5306200000000  0.5804450000000  0.4749850000000 1.0
C      1  0.4753820000000  0.5829310000000  0.5249700000000 1.0
C      1  0.4689770000000  0.4212540000000  0.4754810000000 1.0
C      1  0.4744630000000  0.4467350000000  0.4339840000000 1.0
C      1  0.4824700000000  0.5546950000000  0.5655140000000 1.0
C      1  0.5228530000000  0.5554440000000  0.4338590000000 1.0
C      1  0.5224650000000  0.4436120000000  0.5628960000000 1.0
C      1  0.5616420000000  0.4518490000000  0.5329480000000 1.0
C      1  0.5630460000000  0.5434460000000  0.4611980000000 1.0
C      1  0.4463560000000  0.5430000000000  0.5340740000000 1.0
C      1  0.4363900000000  0.4575330000000  0.4644320000000 1.0
C      1  0.4595950000000  0.4902180000000  0.4293820000000 1.0
C      1  0.4651020000000  0.5125530000000  0.5723410000000 1.0
C      1  0.5370110000000  0.5117380000000  0.4275230000000 1.0
C      1  0.5403640000000  0.4855450000000  0.5695950000000 1.0
C      1  0.5204530000000  0.5262790000000  0.4758720000000 1.0
C      1  0.5048200000000  0.4988510000000  0.5280540000000 1.0
C      1  0.4891810000000  0.4806650000000  0.4668660000000 1.0
C      1  0.4752060000000  0.4989980000000  0.5292730000000 1.0
C      1  0.4512310000000  0.4622240000000  0.5575060000000 1.0
C      1  0.4509500000000  0.5412180000000  0.4441290000000 1.0
C      1  0.5518550000000  0.5358420000000  0.5547150000000 1.0
C      1  0.5461910000000  0.4603210000000  0.4408840000000 1.0
C      1  0.5459370000000  0.4586410000000  0.5576140000000 1.0
C      1  0.5456110000000  0.5385840000000  0.4376200000000 1.0
C      1  0.4592900000000  0.5394790000000  0.5618690000000 1.0
C      1  0.4523910000000  0.4634060000000  0.4400540000000 1.0
C      1  0.5113600000000  0.4104470000000  0.4982140000000 1.0
C      1  0.5173840000000  0.5888310000000  0.4992590000000 1.0
C      1  0.4891090000000  0.5909710000000  0.5007790000000 1.0
C      1  0.4829960000000  0.4111140000000  0.4985040000000 1.0
C      1  0.4201190000000  0.4772240000000  0.5264100000000 1.0
C      1  0.4207910000000  0.5279140000000  0.4772420000000 1.0
C      1  0.5805050000000  0.5210880000000  0.5211010000000 1.0
C      1  0.5796720000000  0.4719180000000  0.4710410000000 1.0
C      1  0.4759800000000  0.5537980000000  0.4366880000000 1.0
C      1  0.4760340000000  0.4487510000000  0.5625010000000 1.0
C      1  0.5210770000000  0.4481360000000  0.4340960000000 1.0
C      1  0.5284020000000  0.5504410000000  0.5631230000000 1.0
C      1  0.4146510000000  0.4881810000000  0.5003070000000 1.0
C      1  0.4158440000000  0.5166380000000  0.5031140000000 1.0
C      1  0.5867200000000  0.5108160000000  0.4949660000000 1.0
C      1  0.5861720000000  0.4819920000000  0.4971740000000 1.0
C      1  0.4858040000000  0.5754870000000  0.4536100000000 1.0
C      1  0.4834540000000  0.4263940000000  0.5453060000000 1.0
C      1  0.5122920000000  0.4260020000000  0.4510300000000 1.0
C      1  0.5198180000000  0.5729260000000  0.5464420000000 1.0
C      1  0.4911400000000  0.5756950000000  0.5481250000000 1.0
C      1  0.4831670000000  0.4259780000000  0.4514090000000 1.0
C      1  0.5121820000000  0.4236070000000  0.5454750000000 1.0
C      1  0.5148620000000  0.5759910000000  0.4518890000000 1.0
C      1  0.4453390000000  0.4347800000000  0.5139140000000 1.0
C      1  0.4493730000000  0.5697130000000  0.4878810000000 1.0
C      1  0.5548940000000  0.5636930000000  0.5111080000000 1.0
C      1  0.5507090000000  0.4314520000000  0.4837160000000 1.0
C      1  0.4696290000000  0.4788030000000  0.5091430000000 1.0
C      1  0.4745870000000  0.4952530000000  0.4850320000000 1.0
C      1  0.5151320000000  0.5243910000000  0.5284370000000 1.0
C      1  0.5304950000000  0.5038340000000  0.4856430000000 1.0
C      1  0.4928210000000  0.4599710000000  0.5086620000000 1.0
C      1  0.4701710000000  0.5234840000000  0.4881020000000 1.0
C      1  0.4969560000000  0.5408130000000  0.5162390000000 1.0
C      1  0.5285180000000  0.4774160000000  0.4929520000000 1.0
C      1  0.4941500000000  0.5112620000000  0.5804170000000 1.0
C      1  0.4886930000000  0.4895300000000  0.4204970000000 1.0
C      1  0.5114540000000  0.4868550000000  0.5792960000000 1.0
C      1  0.5079700000000  0.5126980000000  0.4202190000000 1.0
C      1  0.5784810000000  0.5197970000000  0.4681420000000 1.0
C      1  0.5776590000000  0.4739820000000  0.5242350000000 1.0
C      1  0.4211850000000  0.4805820000000  0.4728340000000 1.0
C      1  0.4241790000000  0.5237820000000  0.5298660000000 1.0
C      1  0.4372520000000  0.5503330000000  0.4690890000000 1.0
C      1  0.4353770000000  0.4538820000000  0.5338760000000 1.0
C      1  0.5619250000000  0.4502720000000  0.4640740000000 1.0
C      1  0.5654370000000  0.5438400000000  0.5296300000000 1.0
C      1  0.4259770000000  0.4990560000000  0.5442120000000 1.0
C      1  0.4240610000000  0.5059250000000  0.4589040000000 1.0
C      1  0.5751310000000  0.4988850000000  0.5386420000000 1.0
C      1  0.5749040000000  0.4948620000000  0.4537060000000 1.0
C      1  0.5505060000000  0.4321610000000  0.5136890000000 1.0
C      1  0.5535970000000  0.5636870000000  0.4811780000000 1.0
C      1  0.4510960000000  0.5688790000000  0.5176580000000 1.0
C      1  0.4461980000000  0.4371540000000  0.4836240000000 1.0
C      1  0.5041290000000  0.5383050000000  0.5747960000000 1.0
C      1  0.4967800000000  0.4614240000000  0.4235430000000 1.0
C      1  0.5012070000000  0.4599840000000  0.5733400000000 1.0
C      1  0.4999240000000  0.5408210000000  0.4247060000000 1.0
C      1  0.5014970000000  0.5025370000000  0.4980260000000 1.0
END
