TITL C-20173-7598-8 2.54937750501298 125000 -46.6353369817076 0 0 8 (D3h) n - 1
REM
REM in /rds/project/t2_vol4/rds-t2-cs072/BORA/CARBON/from-Arr/AIRSS/Generating-Clusters/GAP-ML-2020/Higher-Symm/SD-CG/HFTN-CG
REM
REM
REM
REM
REM
REM ./C.cell (b20cbc046b6831c77cfcea5457e17084)
REM AIRSS Version 0.9.1 bugfix July 2018 build 013d7b7c2542+ Fri, 06 Jul 2018 19:26:36 +0100
REM compiler GCC version 9.3.0
REM options -cpp -mtune=generic -march=x86-64 -g -O0
REM seed 799292748 -114944531 380411503 908503142 -1897808317 -190472360 730026778 -1157600358 1069672942 -1759323923 -420402851 636489759 -1285589639 227007658 127074938 -55064497 -1616967218 798779425 -892065622 -1350107106 -2055604010 -685464068 -1846662591 991974087 -1019401813 -992751044 -76851997 -491108928 1567390529 1347209103 1476180425 -1643854784 2102706182
REM
CELL 1.54180   50.00000   50.00000   50.00000   90.00000   90.00000   90.00000
LATT -1
SFAC C  
C      1  0.4753640000000  0.4815550000000  0.5166950000000 1.0
C      1  0.4986370000000  0.4824310000000  0.4731790000000 1.0
C      1  0.5246470000000  0.4794710000000  0.5150200000000 1.0
C      1  0.5258200000000  0.5062660000000  0.5161870000000 1.0
C      1  0.4998090000000  0.5092260000000  0.4743460000000 1.0
C      1  0.4765370000000  0.5083500000000  0.5178610000000 1.0
C      1  0.4994540000000  0.4789800000000  0.5015370000000 1.0
C      1  0.5008170000000  0.5101200000000  0.5028920000000 1.0
END
