TITL C-205053-5871-6 0.126407539305752 125000 -390.76728984671 0 0 60 (C2v) n - 1
REM
REM in /rds/project/t2_vol4/rds-t2-cs072/BORA/CARBON/from-Arr/AIRSS/Generating-Clusters/GAP-ML-2020/Higher-Symm/SD-CG/HFTN-CG
REM
REM
REM
REM
REM
REM ./C.cell (b20cbc046b6831c77cfcea5457e17084)
REM AIRSS Version 0.9.1 bugfix July 2018 build 013d7b7c2542+ Fri, 06 Jul 2018 19:26:36 +0100
REM compiler GCC version 9.3.0
REM options -cpp -mtune=generic -march=x86-64 -g -O0
REM seed -1733091179 -548694085 -1351169753 -1296572897 -1652910333 1980208823 -17860397 675919773 144817339 -914253834 509592704 326606322 1093898598 -682674768 1350570473 -163931295 2078530648 -1556394238 123506808 -2145803474 1050468215 -446535429 -1004413858 -1966255425 -748983078 800685105 -1556695161 1808306006 344614723 615035663 538581237 1437205282 1522906661
REM
CELL 1.54180   50.00000   50.00000   50.00000   90.00000   90.00000   90.00000
LATT -1
SFAC C  
C      1  0.4370910000000  0.5149300000000  0.5305770000000 1.0
C      1  0.4370950000000  0.4850610000000  0.4694190000000 1.0
C      1  0.4370930000000  0.5149300000000  0.4694190000000 1.0
C      1  0.4370930000000  0.4850610000000  0.5305760000000 1.0
C      1  0.4686480000000  0.5335910000000  0.4403660000000 1.0
C      1  0.4686480000000  0.4664050000000  0.5596320000000 1.0
C      1  0.4686430000000  0.5335900000000  0.5596320000000 1.0
C      1  0.4686530000000  0.4664050000000  0.4403660000000 1.0
C      1  0.5791090000000  0.4854890000000  0.5151360000000 1.0
C      1  0.5791080000000  0.5145220000000  0.4848700000000 1.0
C      1  0.5791100000000  0.4854890000000  0.4848700000000 1.0
C      1  0.5791070000000  0.5145220000000  0.5151360000000 1.0
C      1  0.5088160000000  0.5569240000000  0.4860470000000 1.0
C      1  0.5088230000000  0.4430770000000  0.5139530000000 1.0
C      1  0.5088140000000  0.5569240000000  0.5139540000000 1.0
C      1  0.5088240000000  0.4430770000000  0.4860470000000 1.0
C      1  0.5337810000000  0.4853510000000  0.4845240000000 1.0
C      1  0.5337780000000  0.5146540000000  0.5154780000000 1.0
C      1  0.5337800000000  0.4853510000000  0.5154780000000 1.0
C      1  0.5337790000000  0.5146540000000  0.4845240000000 1.0
C      1  0.4666060000000  0.4485340000000  0.4638330000000 1.0
C      1  0.4665960000000  0.5514610000000  0.5361650000000 1.0
C      1  0.4666030000000  0.4485340000000  0.5361640000000 1.0
C      1  0.4665990000000  0.5514620000000  0.4638330000000 1.0
C      1  0.4955260000000  0.4434430000000  0.5377330000000 1.0
C      1  0.4955210000000  0.5565570000000  0.4622670000000 1.0
C      1  0.4955290000000  0.4434430000000  0.4622660000000 1.0
C      1  0.4955180000000  0.5565560000000  0.5377340000000 1.0
C      1  0.4802820000000  0.5145420000000  0.4838260000000 1.0
C      1  0.4802830000000  0.4854550000000  0.5161720000000 1.0
C      1  0.4802810000000  0.5145420000000  0.5161720000000 1.0
C      1  0.4802840000000  0.4854550000000  0.4838260000000 1.0
C      1  0.5443860000000  0.4753510000000  0.5533420000000 1.0
C      1  0.5443860000000  0.5246550000000  0.4466620000000 1.0
C      1  0.5443900000000  0.4753510000000  0.4466620000000 1.0
C      1  0.5443820000000  0.5246550000000  0.5533420000000 1.0
C      1  0.5192380000000  0.5157450000000  0.5621710000000 1.0
C      1  0.5192450000000  0.4842570000000  0.4378300000000 1.0
C      1  0.5192420000000  0.5157460000000  0.4378310000000 1.0
C      1  0.5192400000000  0.4842570000000  0.5621710000000 1.0
C      1  0.4486790000000  0.4856570000000  0.5575340000000 1.0
C      1  0.4486810000000  0.5143350000000  0.4424620000000 1.0
C      1  0.4486830000000  0.4856580000000  0.4424620000000 1.0
C      1  0.4486770000000  0.5143350000000  0.5575340000000 1.0
C      1  0.4974780000000  0.5354030000000  0.4397840000000 1.0
C      1  0.4974780000000  0.4645970000000  0.5602160000000 1.0
C      1  0.4974730000000  0.5354020000000  0.5602160000000 1.0
C      1  0.4974830000000  0.4645980000000  0.4397840000000 1.0
C      1  0.4554860000000  0.4676420000000  0.5156800000000 1.0
C      1  0.4554830000000  0.5323520000000  0.4843170000000 1.0
C      1  0.4554880000000  0.4676420000000  0.4843160000000 1.0
C      1  0.4554820000000  0.5323520000000  0.5156800000000 1.0
C      1  0.5073290000000  0.5271580000000  0.5153420000000 1.0
C      1  0.5073340000000  0.4728430000000  0.4846580000000 1.0
C      1  0.5073300000000  0.5271590000000  0.4846590000000 1.0
C      1  0.5073330000000  0.4728420000000  0.5153420000000 1.0
C      1  0.5575400000000  0.5256690000000  0.5302420000000 1.0
C      1  0.5575460000000  0.4743390000000  0.4697630000000 1.0
C      1  0.5575420000000  0.5256700000000  0.4697630000000 1.0
C      1  0.5575430000000  0.4743390000000  0.5302420000000 1.0
END
