TITL C-20187-7691-3 -0.0881735120089222 125000 -591.413163651827 0 0 86 (C1) n - 1
REM
REM in /rds/project/t2_vol4/rds-t2-cs072/BORA/CARBON/from-Arr/AIRSS/Generating-Clusters/GAP-ML-2020/Higher-Symm/SD-CG/HFTN-CG
REM
REM
REM
REM
REM
REM ./C.cell (b20cbc046b6831c77cfcea5457e17084)
REM AIRSS Version 0.9.1 bugfix July 2018 build 013d7b7c2542+ Fri, 06 Jul 2018 19:26:36 +0100
REM compiler GCC version 9.3.0
REM options -cpp -mtune=generic -march=x86-64 -g -O0
REM seed 1241731898 678596976 -902626842 -2013563575 -421461359 1997084539 -1005422075 -1279544460 -662152298 -1285531233 -1703358802 720720201 372287189 -589354465 925347650 -1899818191 1822148445 1836841682 -1675349801 -1377607446 1412563253 -20517505 -425657344 1823065629 1481452115 -1284373413 1904571220 1114597652 725592954 -318872663 -490739338 188560033 -2119297691
REM
CELL 1.54180   50.00000   50.00000   50.00000   90.00000   90.00000   90.00000
LATT -1
SFAC C  
C      1  0.4992620000000  0.4522160000000  0.5744160000000 1.0
C      1  0.4978350000000  0.4113240000000  0.5110180000000 1.0
C      1  0.5068200000000  0.4388650000000  0.4403370000000 1.0
C      1  0.5118450000000  0.5083800000000  0.4187520000000 1.0
C      1  0.5080560000000  0.5745960000000  0.4549990000000 1.0
C      1  0.5111730000000  0.5784870000000  0.5277520000000 1.0
C      1  0.5086060000000  0.5266600000000  0.5798040000000 1.0
C      1  0.5549870000000  0.5399680000000  0.5558330000000 1.0
C      1  0.5878670000000  0.4965190000000  0.5563100000000 1.0
C      1  0.5959820000000  0.4664110000000  0.5155320000000 1.0
C      1  0.5841500000000  0.4608280000000  0.4642080000000 1.0
C      1  0.5586850000000  0.4904650000000  0.4299810000000 1.0
C      1  0.5729930000000  0.5391630000000  0.4567530000000 1.0
C      1  0.5566170000000  0.5656680000000  0.5053220000000 1.0
C      1  0.5069380000000  0.4781580000000  0.4782890000000 1.0
C      1  0.4845060000000  0.4973660000000  0.4769780000000 1.0
C      1  0.4915260000000  0.5232010000000  0.4864900000000 1.0
C      1  0.4947420000000  0.5214900000000  0.5141500000000 1.0
C      1  0.4874630000000  0.4966360000000  0.5267730000000 1.0
C      1  0.5094430000000  0.4747950000000  0.5236980000000 1.0
C      1  0.4938990000000  0.4625460000000  0.5007790000000 1.0
C      1  0.4439240000000  0.5531920000000  0.4653470000000 1.0
C      1  0.4454760000000  0.5597760000000  0.5173890000000 1.0
C      1  0.4436440000000  0.5238220000000  0.5545630000000 1.0
C      1  0.4377680000000  0.4721220000000  0.5497420000000 1.0
C      1  0.4358500000000  0.4420800000000  0.5058860000000 1.0
C      1  0.4417840000000  0.4596540000000  0.4571360000000 1.0
C      1  0.4442340000000  0.5081640000000  0.4382240000000 1.0
C      1  0.5195720000000  0.5344520000000  0.4249280000000 1.0
C      1  0.5182710000000  0.5824300000000  0.4793530000000 1.0
C      1  0.5164570000000  0.5665550000000  0.5517930000000 1.0
C      1  0.5153110000000  0.4999500000000  0.5860230000000 1.0
C      1  0.5094410000000  0.4308130000000  0.5578780000000 1.0
C      1  0.5118210000000  0.4130600000000  0.4857550000000 1.0
C      1  0.5200140000000  0.4586360000000  0.4258530000000 1.0
C      1  0.4334530000000  0.5351240000000  0.5085960000000 1.0
C      1  0.4317770000000  0.5150990000000  0.5298010000000 1.0
C      1  0.4277880000000  0.4860480000000  0.5273070000000 1.0
C      1  0.4270340000000  0.4692870000000  0.5024770000000 1.0
C      1  0.4296180000000  0.4787220000000  0.4744880000000 1.0
C      1  0.4315720000000  0.5060450000000  0.4639870000000 1.0
C      1  0.4327470000000  0.5312190000000  0.4793610000000 1.0
C      1  0.4828130000000  0.5082500000000  0.4189880000000 1.0
C      1  0.4789910000000  0.5734670000000  0.4533820000000 1.0
C      1  0.4824420000000  0.5798020000000  0.5245190000000 1.0
C      1  0.4798890000000  0.5294210000000  0.5766550000000 1.0
C      1  0.4713280000000  0.4570670000000  0.5702080000000 1.0
C      1  0.4693280000000  0.4160830000000  0.5101010000000 1.0
C      1  0.4775420000000  0.4418760000000  0.4426850000000 1.0
C      1  0.4632120000000  0.5646800000000  0.5401180000000 1.0
C      1  0.4593750000000  0.5085110000000  0.5739350000000 1.0
C      1  0.4527500000000  0.4465230000000  0.5502280000000 1.0
C      1  0.4526350000000  0.4253850000000  0.4881980000000 1.0
C      1  0.4601300000000  0.4637070000000  0.4348690000000 1.0
C      1  0.4634080000000  0.5286240000000  0.4288590000000 1.0
C      1  0.4601970000000  0.5756380000000  0.4753400000000 1.0
C      1  0.4515170000000  0.4304550000000  0.5282640000000 1.0
C      1  0.4577690000000  0.4355130000000  0.4633800000000 1.0
C      1  0.4613410000000  0.4887620000000  0.4239250000000 1.0
C      1  0.4617980000000  0.5527070000000  0.4417110000000 1.0
C      1  0.4625950000000  0.5784670000000  0.5024420000000 1.0
C      1  0.4619950000000  0.5463940000000  0.5603850000000 1.0
C      1  0.4550390000000  0.4814120000000  0.5716670000000 1.0
C      1  0.5197160000000  0.5560120000000  0.4371090000000 1.0
C      1  0.5300050000000  0.5794150000000  0.5033600000000 1.0
C      1  0.5277240000000  0.5461930000000  0.5662680000000 1.0
C      1  0.5132560000000  0.4751190000000  0.5838620000000 1.0
C      1  0.5087080000000  0.4173380000000  0.5369460000000 1.0
C      1  0.5158940000000  0.4215090000000  0.4624170000000 1.0
C      1  0.5299560000000  0.4839170000000  0.4219540000000 1.0
C      1  0.5785920000000  0.4621050000000  0.4930050000000 1.0
C      1  0.5741120000000  0.4707180000000  0.4433040000000 1.0
C      1  0.5616840000000  0.5147610000000  0.4468220000000 1.0
C      1  0.5625750000000  0.5480390000000  0.4808580000000 1.0
C      1  0.5580980000000  0.5464040000000  0.5275280000000 1.0
C      1  0.5649020000000  0.5102260000000  0.5563420000000 1.0
C      1  0.5971090000000  0.4795280000000  0.5372690000000 1.0
C      1  0.5511600000000  0.4685170000000  0.4976730000000 1.0
C      1  0.5358960000000  0.4794530000000  0.4751640000000 1.0
C      1  0.5441060000000  0.5064060000000  0.4685010000000 1.0
C      1  0.5467420000000  0.5246180000000  0.4887790000000 1.0
C      1  0.5491650000000  0.5215250000000  0.5159280000000 1.0
C      1  0.5467640000000  0.5009100000000  0.5341170000000 1.0
C      1  0.5386800000000  0.4757070000000  0.5234570000000 1.0
C      1  0.5174390000000  0.4959420000000  0.5019770000000 1.0
C      1  0.4733890000000  0.4830850000000  0.5031300000000 1.0
END
