TITL C-215428-2640-3 -0.0421953154099398 125000 -1351.4818897441 0 0 192 (C1) n - 1
REM
REM in /rds/project/t2_vol4/rds-t2-cs072/BORA/CARBON/from-Arr/AIRSS/Generating-Clusters/GAP-ML-2020/Higher-Symm/SD-CG/HFTN-CG/C160-200
REM
REM
REM
REM
REM
REM ./C.cell (6b4489405718ea1b717e0baf1da4c2d9)
REM AIRSS Version 0.9.1 bugfix July 2018 build 013d7b7c2542+ Fri, 06 Jul 2018 19:26:36 +0100
REM compiler GCC version 9.3.0
REM options -cpp -mtune=generic -march=x86-64 -g -O0
REM seed -684384419 -390336622 -1169236408 1146616644 2093691600 -411697944 -139816763 -764855812 -1925674455 -350001982 67340303 1052346660 -1702199972 -1222617892 -2133880674 1740071644 2143991194 -199494666 726849887 513790106 902800778 -2105921562 1943967859 723311963 -455003478 1680136479 -376208600 -745146003 1999555070 270726150 418956948 -1270089222 1987761698
REM
CELL 1.54180   50.00000   50.00000   50.00000   90.00000   90.00000   90.00000
LATT -1
SFAC C  
C      1  0.5655180000000  0.5097750000000  0.5568730000000 1.0
C      1  0.5284720000000  0.5091420000000  0.5859840000000 1.0
C      1  0.4799090000000  0.5113420000000  0.5894450000000 1.0
C      1  0.4420820000000  0.4992730000000  0.5501390000000 1.0
C      1  0.4132920000000  0.5041610000000  0.5115110000000 1.0
C      1  0.4192050000000  0.5085700000000  0.4540580000000 1.0
C      1  0.4539230000000  0.5057270000000  0.4255650000000 1.0
C      1  0.5009740000000  0.5068480000000  0.4172120000000 1.0
C      1  0.5446140000000  0.5058880000000  0.4331850000000 1.0
C      1  0.5774670000000  0.5084740000000  0.4693010000000 1.0
C      1  0.5820340000000  0.5060830000000  0.5130460000000 1.0
C      1  0.5407990000000  0.5488540000000  0.4861810000000 1.0
C      1  0.5428690000000  0.5579470000000  0.5126450000000 1.0
C      1  0.5311680000000  0.5486750000000  0.5357710000000 1.0
C      1  0.5070540000000  0.5583560000000  0.5507910000000 1.0
C      1  0.4798210000000  0.5465360000000  0.5494580000000 1.0
C      1  0.4657000000000  0.5375800000000  0.5256760000000 1.0
C      1  0.4700320000000  0.5490350000000  0.5006910000000 1.0
C      1  0.4561700000000  0.5441890000000  0.4762490000000 1.0
C      1  0.4716430000000  0.5549280000000  0.4556970000000 1.0
C      1  0.4981200000000  0.5465240000000  0.4545600000000 1.0
C      1  0.5138120000000  0.5536900000000  0.4776410000000 1.0
C      1  0.4920910000000  0.6103350000000  0.4501620000000 1.0
C      1  0.5207730000000  0.6057920000000  0.4545180000000 1.0
C      1  0.5418000000000  0.6089480000000  0.4722030000000 1.0
C      1  0.5539480000000  0.6106430000000  0.4995610000000 1.0
C      1  0.5481690000000  0.6131820000000  0.5267590000000 1.0
C      1  0.5277970000000  0.6073930000000  0.5473860000000 1.0
C      1  0.4997250000000  0.6025580000000  0.5514260000000 1.0
C      1  0.4745220000000  0.6037010000000  0.5378450000000 1.0
C      1  0.4562840000000  0.6037060000000  0.5149260000000 1.0
C      1  0.4534360000000  0.6074930000000  0.4874070000000 1.0
C      1  0.4668810000000  0.6087100000000  0.4613430000000 1.0
C      1  0.4689450000000  0.3904140000000  0.5482150000000 1.0
C      1  0.4501350000000  0.3893120000000  0.5273280000000 1.0
C      1  0.4585250000000  0.3900840000000  0.4984360000000 1.0
C      1  0.4759140000000  0.3800890000000  0.4794390000000 1.0
C      1  0.4922530000000  0.3900450000000  0.4600640000000 1.0
C      1  0.5191530000000  0.3903100000000  0.4468170000000 1.0
C      1  0.5432450000000  0.3965650000000  0.4625500000000 1.0
C      1  0.5558800000000  0.3910040000000  0.4887310000000 1.0
C      1  0.5396140000000  0.3922550000000  0.5132950000000 1.0
C      1  0.5205130000000  0.3809110000000  0.5290410000000 1.0
C      1  0.4986900000000  0.3910780000000  0.5420260000000 1.0
C      1  0.5705880000000  0.5158460000000  0.4246280000000 1.0
C      1  0.5988800000000  0.5286480000000  0.4708300000000 1.0
C      1  0.6025860000000  0.5183140000000  0.5299180000000 1.0
C      1  0.5721560000000  0.5244150000000  0.5804010000000 1.0
C      1  0.5157190000000  0.5226010000000  0.6074400000000 1.0
C      1  0.4528440000000  0.5163660000000  0.5960070000000 1.0
C      1  0.4171110000000  0.5166840000000  0.5451910000000 1.0
C      1  0.3946530000000  0.5134140000000  0.4925060000000 1.0
C      1  0.4075390000000  0.5342520000000  0.4434930000000 1.0
C      1  0.4593600000000  0.5175140000000  0.3994580000000 1.0
C      1  0.5183300000000  0.5216620000000  0.3994740000000 1.0
C      1  0.5574410000000  0.4701020000000  0.5836860000000 1.0
C      1  0.5046260000000  0.4696500000000  0.5991180000000 1.0
C      1  0.4514120000000  0.4660560000000  0.5831780000000 1.0
C      1  0.4279360000000  0.4714690000000  0.5426910000000 1.0
C      1  0.4015960000000  0.4659500000000  0.4741450000000 1.0
C      1  0.4260980000000  0.4656720000000  0.4281570000000 1.0
C      1  0.4748110000000  0.4660760000000  0.4040140000000 1.0
C      1  0.5279050000000  0.4659350000000  0.4083630000000 1.0
C      1  0.5715830000000  0.4651260000000  0.4400940000000 1.0
C      1  0.5939160000000  0.4648220000000  0.4871870000000 1.0
C      1  0.5903400000000  0.4676860000000  0.5405590000000 1.0
C      1  0.4793930000000  0.4551750000000  0.5845470000000 1.0
C      1  0.4334090000000  0.4526420000000  0.5652370000000 1.0
C      1  0.4102660000000  0.4478520000000  0.4999680000000 1.0
C      1  0.4091990000000  0.4527090000000  0.4495060000000 1.0
C      1  0.4487220000000  0.4528720000000  0.4133410000000 1.0
C      1  0.5017120000000  0.4523580000000  0.4032020000000 1.0
C      1  0.5509120000000  0.4522020000000  0.4219870000000 1.0
C      1  0.5858010000000  0.4512740000000  0.4617650000000 1.0
C      1  0.5950000000000  0.4524190000000  0.5136490000000 1.0
C      1  0.5766960000000  0.4562520000000  0.5644150000000 1.0
C      1  0.5314330000000  0.4574760000000  0.5946140000000 1.0
C      1  0.4012910000000  0.5563760000000  0.4630200000000 1.0
C      1  0.4535770000000  0.5692630000000  0.4091540000000 1.0
C      1  0.4910430000000  0.5583200000000  0.3958000000000 1.0
C      1  0.5591690000000  0.5645940000000  0.4237370000000 1.0
C      1  0.5921430000000  0.5581650000000  0.4473190000000 1.0
C      1  0.6013060000000  0.5694190000000  0.5207760000000 1.0
C      1  0.5914940000000  0.5600410000000  0.5593090000000 1.0
C      1  0.5361550000000  0.5669200000000  0.6050560000000 1.0
C      1  0.4654080000000  0.5630240000000  0.5948130000000 1.0
C      1  0.4317250000000  0.5526060000000  0.5712980000000 1.0
C      1  0.4040910000000  0.5631480000000  0.5045070000000 1.0
C      1  0.4355750000000  0.4242230000000  0.5594880000000 1.0
C      1  0.4081350000000  0.4202370000000  0.5129320000000 1.0
C      1  0.4146770000000  0.4258390000000  0.4577500000000 1.0
C      1  0.4515030000000  0.4263090000000  0.4217610000000 1.0
C      1  0.5015480000000  0.4244670000000  0.4106780000000 1.0
C      1  0.5485630000000  0.4236080000000  0.4252660000000 1.0
C      1  0.5815800000000  0.4230050000000  0.4629020000000 1.0
C      1  0.5890480000000  0.4242690000000  0.5115340000000 1.0
C      1  0.5700980000000  0.4296160000000  0.5584720000000 1.0
C      1  0.5274060000000  0.4302900000000  0.5872680000000 1.0
C      1  0.4767410000000  0.4251870000000  0.5862040000000 1.0
C      1  0.4479740000000  0.4943900000000  0.5792660000000 1.0
C      1  0.4065600000000  0.4921090000000  0.5360140000000 1.0
C      1  0.4004130000000  0.4941540000000  0.4726280000000 1.0
C      1  0.4291140000000  0.4930200000000  0.4315500000000 1.0
C      1  0.4763320000000  0.4946460000000  0.4052940000000 1.0
C      1  0.5286600000000  0.4949590000000  0.4118070000000 1.0
C      1  0.5731960000000  0.4939920000000  0.4426370000000 1.0
C      1  0.5896190000000  0.4921410000000  0.4895630000000 1.0
C      1  0.5878900000000  0.4962380000000  0.5417680000000 1.0
C      1  0.5556550000000  0.4989830000000  0.5850700000000 1.0
C      1  0.5008250000000  0.4975650000000  0.6038910000000 1.0
C      1  0.5275500000000  0.4335400000000  0.5415090000000 1.0
C      1  0.5016670000000  0.4198260000000  0.5484230000000 1.0
C      1  0.4791950000000  0.4381850000000  0.5349140000000 1.0
C      1  0.4506130000000  0.4317510000000  0.5208420000000 1.0
C      1  0.4492060000000  0.4177070000000  0.4926390000000 1.0
C      1  0.4591530000000  0.4289770000000  0.4673150000000 1.0
C      1  0.4838050000000  0.4178730000000  0.4541490000000 1.0
C      1  0.5058550000000  0.4362120000000  0.4610330000000 1.0
C      1  0.5290940000000  0.4257500000000  0.4710600000000 1.0
C      1  0.5370360000000  0.4378010000000  0.4938230000000 1.0
C      1  0.5426580000000  0.4216850000000  0.5191470000000 1.0
C      1  0.5026640000000  0.4198230000000  0.5795410000000 1.0
C      1  0.4588670000000  0.4107120000000  0.5689020000000 1.0
C      1  0.4298980000000  0.4128150000000  0.5328080000000 1.0
C      1  0.4187370000000  0.4222190000000  0.4873400000000 1.0
C      1  0.4390370000000  0.4194110000000  0.4466580000000 1.0
C      1  0.4778660000000  0.4173470000000  0.4243650000000 1.0
C      1  0.5230920000000  0.4101570000000  0.4233690000000 1.0
C      1  0.5631300000000  0.4104890000000  0.4455420000000 1.0
C      1  0.5796180000000  0.4097570000000  0.4882640000000 1.0
C      1  0.5712070000000  0.4200230000000  0.5319850000000 1.0
C      1  0.5436040000000  0.4240600000000  0.5654020000000 1.0
C      1  0.5041130000000  0.4816760000000  0.5447370000000 1.0
C      1  0.4836760000000  0.4620770000000  0.5540220000000 1.0
C      1  0.4350230000000  0.4570490000000  0.5164420000000 1.0
C      1  0.4521490000000  0.4718410000000  0.4966580000000 1.0
C      1  0.4582490000000  0.4594670000000  0.4710340000000 1.0
C      1  0.4769370000000  0.4743860000000  0.4564400000000 1.0
C      1  0.5029590000000  0.4638100000000  0.4591680000000 1.0
C      1  0.5242530000000  0.4784310000000  0.4696620000000 1.0
C      1  0.5366310000000  0.4654200000000  0.4916780000000 1.0
C      1  0.5416370000000  0.4779800000000  0.5155660000000 1.0
C      1  0.5268070000000  0.4654410000000  0.5364050000000 1.0
C      1  0.5152540000000  0.5080630000000  0.5575660000000 1.0
C      1  0.4919260000000  0.5249150000000  0.5656540000000 1.0
C      1  0.4602670000000  0.5082980000000  0.5256630000000 1.0
C      1  0.4433470000000  0.5009160000000  0.5003460000000 1.0
C      1  0.4482660000000  0.5154030000000  0.4727290000000 1.0
C      1  0.4711960000000  0.5035080000000  0.4535550000000 1.0
C      1  0.4994940000000  0.5167140000000  0.4478000000000 1.0
C      1  0.5280640000000  0.5059640000000  0.4603680000000 1.0
C      1  0.5477660000000  0.5188900000000  0.4818870000000 1.0
C      1  0.5497640000000  0.5066930000000  0.5123000000000 1.0
C      1  0.5391070000000  0.5194370000000  0.5392320000000 1.0
C      1  0.4422920000000  0.5963100000000  0.4482200000000 1.0
C      1  0.4943250000000  0.5985090000000  0.4228870000000 1.0
C      1  0.5217770000000  0.5917120000000  0.4272100000000 1.0
C      1  0.5673240000000  0.5981950000000  0.4621480000000 1.0
C      1  0.5789730000000  0.5970450000000  0.4883050000000 1.0
C      1  0.5691430000000  0.6017170000000  0.5454720000000 1.0
C      1  0.5497080000000  0.5957600000000  0.5656420000000 1.0
C      1  0.5028990000000  0.5800050000000  0.5707350000000 1.0
C      1  0.4527050000000  0.5903060000000  0.5531590000000 1.0
C      1  0.4348650000000  0.5883070000000  0.5308950000000 1.0
C      1  0.4291930000000  0.5969390000000  0.4738650000000 1.0
C      1  0.5906130000000  0.5844740000000  0.5431470000000 1.0
C      1  0.5540960000000  0.5739070000000  0.5861360000000 1.0
C      1  0.4923450000000  0.5676900000000  0.5966390000000 1.0
C      1  0.4581790000000  0.5659060000000  0.5657640000000 1.0
C      1  0.4158560000000  0.5667450000000  0.5297090000000 1.0
C      1  0.4096490000000  0.5788630000000  0.4810470000000 1.0
C      1  0.4344010000000  0.5773040000000  0.4283480000000 1.0
C      1  0.4790900000000  0.5828810000000  0.4063090000000 1.0
C      1  0.5335750000000  0.5692250000000  0.4145680000000 1.0
C      1  0.5743570000000  0.5812590000000  0.4416290000000 1.0
C      1  0.5970730000000  0.5758500000000  0.4939990000000 1.0
C      1  0.5734770000000  0.5525590000000  0.5793670000000 1.0
C      1  0.5138610000000  0.5518450000000  0.6096750000000 1.0
C      1  0.4431950000000  0.5425990000000  0.5955560000000 1.0
C      1  0.4161140000000  0.5450700000000  0.5495880000000 1.0
C      1  0.3944360000000  0.5410120000000  0.4879370000000 1.0
C      1  0.4145580000000  0.5589080000000  0.4363740000000 1.0
C      1  0.4652680000000  0.5444900000000  0.3971640000000 1.0
C      1  0.5174360000000  0.5494680000000  0.4009520000000 1.0
C      1  0.5771120000000  0.5420210000000  0.4283390000000 1.0
C      1  0.5999610000000  0.5550470000000  0.4741170000000 1.0
C      1  0.6026680000000  0.5448310000000  0.5370380000000 1.0
C      1  0.4801390000000  0.4700730000000  0.5048620000000 1.0
C      1  0.4903550000000  0.4448370000000  0.5101190000000 1.0
C      1  0.5034770000000  0.5128560000000  0.5037370000000 1.0
C      1  0.4970390000000  0.5391230000000  0.4967190000000 1.0
C      1  0.4883770000000  0.4940490000000  0.5201250000000 1.0
END
