TITL C-21835-7551-1 -142.429151290992 125000 -500.713303855215 0 0 74 (C1) n - 1
REM
REM in /rds/project/t2_vol4/rds-t2-cs072/BORA/CARBON/from-Arr/AIRSS/Generating-Clusters/GAP-ML-2020/Higher-Symm/SD-CG/HFTN-CG
REM
REM
REM
REM
REM
REM ./C.cell (b20cbc046b6831c77cfcea5457e17084)
REM AIRSS Version 0.9.1 bugfix July 2018 build 013d7b7c2542+ Fri, 06 Jul 2018 19:26:36 +0100
REM compiler GCC version 9.3.0
REM options -cpp -mtune=generic -march=x86-64 -g -O0
REM seed 1605633977 -35546107 -904730762 1834081425 -666311202 1125580183 1572298313 598500707 1926859318 1855513573 77365592 1640602223 1399720707 -117578428 -228457110 -1185272884 -1188150449 1780855566 175956993 738639816 1926176072 736044892 921630217 1446956469 -863925578 79321038 -125458342 48473452 -1592629192 1593640634 720706245 457502290 -213047868
REM
CELL 1.54180   50.00000   50.00000   50.00000   90.00000   90.00000   90.00000
LATT -1
SFAC C  
C      1  0.4594530000000  0.5467350000000  0.4593900000000 1.0
C      1  0.4850720000000  0.5461570000000  0.5544580000000 1.0
C      1  0.5575430000000  0.5488930000000  0.4869840000000 1.0
C      1  0.5185190000000  0.4453060000000  0.4533380000000 1.0
C      1  0.4409260000000  0.4462710000000  0.5070130000000 1.0
C      1  0.5340230000000  0.4485880000000  0.5452980000000 1.0
C      1  0.4559020000000  0.5617650000000  0.4835810000000 1.0
C      1  0.5082240000000  0.5604760000000  0.5453870000000 1.0
C      1  0.5366660000000  0.5616470000000  0.4718200000000 1.0
C      1  0.5602130000000  0.4856840000000  0.4516890000000 1.0
C      1  0.4269280000000  0.4862810000000  0.4715990000000 1.0
C      1  0.5113460000000  0.4851660000000  0.5784370000000 1.0
C      1  0.5109950000000  0.5149450000000  0.4202880000000 1.0
C      1  0.4300950000000  0.5037040000000  0.5243030000000 1.0
C      1  0.5612340000000  0.5037620000000  0.5508520000000 1.0
C      1  0.5298190000000  0.4926570000000  0.5310050000000 1.0
C      1  0.5133390000000  0.4936790000000  0.4582860000000 1.0
C      1  0.4648290000000  0.4827030000000  0.5075560000000 1.0
C      1  0.4820230000000  0.4715780000000  0.4862240000000 1.0
C      1  0.5055140000000  0.4777780000000  0.5268150000000 1.0
C      1  0.5272290000000  0.4863510000000  0.4840170000000 1.0
C      1  0.4907510000000  0.5225080000000  0.5120160000000 1.0
C      1  0.5194030000000  0.5287970000000  0.5101520000000 1.0
C      1  0.4846300000000  0.5211240000000  0.4834500000000 1.0
C      1  0.5267970000000  0.5191290000000  0.4456730000000 1.0
C      1  0.4328570000000  0.5229960000000  0.5029890000000 1.0
C      1  0.5346470000000  0.5177080000000  0.5513440000000 1.0
C      1  0.5355730000000  0.5051850000000  0.5048330000000 1.0
C      1  0.4856760000000  0.4970220000000  0.4680960000000 1.0
C      1  0.4824050000000  0.4966460000000  0.5253500000000 1.0
C      1  0.5133280000000  0.5113640000000  0.5711080000000 1.0
C      1  0.5555410000000  0.5121410000000  0.4547600000000 1.0
C      1  0.4311670000000  0.5127750000000  0.4752110000000 1.0
C      1  0.4906080000000  0.5462480000000  0.4656780000000 1.0
C      1  0.4726870000000  0.5475350000000  0.5260050000000 1.0
C      1  0.5456170000000  0.5583410000000  0.5128310000000 1.0
C      1  0.5540850000000  0.4700920000000  0.4738220000000 1.0
C      1  0.4408500000000  0.4661430000000  0.4612810000000 1.0
C      1  0.4937330000000  0.4671950000000  0.5695070000000 1.0
C      1  0.5672940000000  0.5058880000000  0.5027480000000 1.0
C      1  0.4665200000000  0.5026470000000  0.4419330000000 1.0
C      1  0.4666540000000  0.5034160000000  0.5547810000000 1.0
C      1  0.5661320000000  0.5238980000000  0.4791110000000 1.0
C      1  0.4470550000000  0.5230170000000  0.4536600000000 1.0
C      1  0.4866550000000  0.5220490000000  0.5667870000000 1.0
C      1  0.4858090000000  0.4354790000000  0.5318820000000 1.0
C      1  0.5264780000000  0.4422470000000  0.4981520000000 1.0
C      1  0.4753270000000  0.4430330000000  0.4762820000000 1.0
C      1  0.5508270000000  0.4744980000000  0.5429340000000 1.0
C      1  0.5106600000000  0.4702160000000  0.4407390000000 1.0
C      1  0.4393390000000  0.4737440000000  0.5207320000000 1.0
C      1  0.5438090000000  0.4405840000000  0.5199900000000 1.0
C      1  0.4905610000000  0.4373300000000  0.4530420000000 1.0
C      1  0.4590150000000  0.4375700000000  0.5292350000000 1.0
C      1  0.4512180000000  0.4612590000000  0.5451400000000 1.0
C      1  0.5641000000000  0.4614330000000  0.5197480000000 1.0
C      1  0.4829780000000  0.4601060000000  0.4376070000000 1.0
C      1  0.5699970000000  0.4765610000000  0.4974070000000 1.0
C      1  0.4593660000000  0.4744610000000  0.4406240000000 1.0
C      1  0.4665370000000  0.4754930000000  0.5631320000000 1.0
C      1  0.5750310000000  0.5131220000000  0.5290430000000 1.0
C      1  0.4855100000000  0.5117300000000  0.4217810000000 1.0
C      1  0.4405410000000  0.5121190000000  0.5477890000000 1.0
C      1  0.5302000000000  0.5435590000000  0.5350040000000 1.0
C      1  0.5185240000000  0.5452960000000  0.4567540000000 1.0
C      1  0.4486040000000  0.5470660000000  0.5071390000000 1.0
C      1  0.4836030000000  0.5701440000000  0.4815990000000 1.0
C      1  0.4918110000000  0.5705460000000  0.5243940000000 1.0
C      1  0.5287420000000  0.5748310000000  0.4961110000000 1.0
C      1  0.4470670000000  0.4440120000000  0.4797010000000 1.0
C      1  0.5048630000000  0.4523860000000  0.5462370000000 1.0
C      1  0.5383630000000  0.4445470000000  0.4719050000000 1.0
C      1  0.5017410000000  0.5793350000000  0.5004940000000 1.0
C      1  0.5087270000000  0.4677730000000  0.4988910000000 1.0
END
