TITL C-21989-5674-9 3.40438985885877 125000 -137.064914940008 0 0 21 (C1) n - 1
REM
REM in /rds/project/t2_vol4/rds-t2-cs072/BORA/CARBON/from-Arr/AIRSS/Generating-Clusters/GAP-ML-2020/Higher-Symm/SD-CG/HFTN-CG
REM
REM
REM
REM
REM
REM ./C.cell (b20cbc046b6831c77cfcea5457e17084)
REM AIRSS Version 0.9.1 bugfix July 2018 build 013d7b7c2542+ Fri, 06 Jul 2018 19:26:36 +0100
REM compiler GCC version 9.3.0
REM options -cpp -mtune=generic -march=x86-64 -g -O0
REM seed 1649940857 1240747266 -1315798679 -1511076493 1319782048 703186361 -1097244944 1867006325 2079941696 170358588 -1362163028 1105205294 -1186505795 443854270 1002884521 -974047795 -1998020722 966296346 1002704377 1221621840 -2063374161 -1457348311 -443121387 -753797549 1385671172 -1895857058 -1085182833 489926944 1390007092 -216036890 859139595 611138074 -851229232
REM
CELL 1.54180   50.00000   50.00000   50.00000   90.00000   90.00000   90.00000
LATT -1
SFAC C  
C      1  0.5391400000000  0.5147680000000  0.5263010000000 1.0
C      1  0.5396740000000  0.4887770000000  0.5241710000000 1.0
C      1  0.5362970000000  0.4637540000000  0.5211150000000 1.0
C      1  0.5327180000000  0.5393990000000  0.5251410000000 1.0
C      1  0.4773160000000  0.5312620000000  0.4950680000000 1.0
C      1  0.4718490000000  0.4728870000000  0.4909660000000 1.0
C      1  0.5201690000000  0.5515420000000  0.5043360000000 1.0
C      1  0.5248050000000  0.4471290000000  0.5026000000000 1.0
C      1  0.4994950000000  0.4327690000000  0.5067490000000 1.0
C      1  0.4853590000000  0.5801050000000  0.4967290000000 1.0
C      1  0.4522970000000  0.4891050000000  0.5024110000000 1.0
C      1  0.4559580000000  0.5177430000000  0.5051540000000 1.0
C      1  0.5178870000000  0.5297290000000  0.4719820000000 1.0
C      1  0.5151270000000  0.4731180000000  0.4709480000000 1.0
C      1  0.5335600000000  0.5490000000000  0.4786210000000 1.0
C      1  0.5316930000000  0.4541290000000  0.4744450000000 1.0
C      1  0.4899210000000  0.5554850000000  0.5033690000000 1.0
C      1  0.4800320000000  0.4476030000000  0.4999260000000 1.0
C      1  0.4925620000000  0.4877450000000  0.4769290000000 1.0
C      1  0.4946480000000  0.5161140000000  0.4786180000000 1.0
C      1  0.4414850000000  0.5032070000000  0.5243150000000 1.0
END
