TITL C-21997-6783-5 -0.0162583427870703 125000 -505.634360908646 0 0 74 (C1) n - 1
REM
REM in /rds/project/t2_vol4/rds-t2-cs072/BORA/CARBON/from-Arr/AIRSS/Generating-Clusters/GAP-ML-2020/Higher-Symm/SD-CG/HFTN-CG
REM
REM
REM
REM
REM
REM ./C.cell (b20cbc046b6831c77cfcea5457e17084)
REM AIRSS Version 0.9.1 bugfix July 2018 build 013d7b7c2542+ Fri, 06 Jul 2018 19:26:36 +0100
REM compiler GCC version 9.3.0
REM options -cpp -mtune=generic -march=x86-64 -g -O0
REM seed -1835922254 706658226 -1813506516 -1052120980 -1482448518 352034751 -1327135996 -1544928541 1845608943 -912927391 -1251673766 1026997415 1223196856 403934647 -609303968 -1497686731 -361882030 1691200704 -2113974792 -181366659 -1189042962 1461582065 -1022626011 476779611 513535396 740693835 -1495833192 -1535254089 -395390872 -1016899618 -1870346498 -1166202891 -1526622544
REM
CELL 1.54180   50.00000   50.00000   50.00000   90.00000   90.00000   90.00000
LATT -1
SFAC C  
C      1  0.5179760000000  0.4810430000000  0.4897270000000 1.0
C      1  0.5100170000000  0.4790430000000  0.5182760000000 1.0
C      1  0.5111320000000  0.5050480000000  0.5318880000000 1.0
C      1  0.5147290000000  0.5223960000000  0.5059490000000 1.0
C      1  0.5179600000000  0.5138720000000  0.4612940000000 1.0
C      1  0.4822960000000  0.4812900000000  0.5072650000000 1.0
C      1  0.4905700000000  0.4808570000000  0.4789000000000 1.0
C      1  0.4902690000000  0.5073990000000  0.4665510000000 1.0
C      1  0.4878060000000  0.5234780000000  0.4926270000000 1.0
C      1  0.4829410000000  0.5103140000000  0.5377430000000 1.0
C      1  0.5214110000000  0.4496240000000  0.5260310000000 1.0
C      1  0.5238250000000  0.5048850000000  0.5605410000000 1.0
C      1  0.5257100000000  0.5511850000000  0.5102460000000 1.0
C      1  0.5206680000000  0.5360060000000  0.4375650000000 1.0
C      1  0.5263290000000  0.4592490000000  0.4475860000000 1.0
C      1  0.4777090000000  0.4527310000000  0.4712880000000 1.0
C      1  0.4760530000000  0.5089960000000  0.4386480000000 1.0
C      1  0.4775860000000  0.5530620000000  0.4887560000000 1.0
C      1  0.4779170000000  0.5310880000000  0.5588880000000 1.0
C      1  0.4738510000000  0.4537320000000  0.5528600000000 1.0
C      1  0.5618720000000  0.5183530000000  0.4446290000000 1.0
C      1  0.5662130000000  0.4976060000000  0.4635060000000 1.0
C      1  0.5612050000000  0.4741950000000  0.5113580000000 1.0
C      1  0.5627180000000  0.4912030000000  0.5341900000000 1.0
C      1  0.5639470000000  0.5156220000000  0.5183400000000 1.0
C      1  0.4364900000000  0.5146480000000  0.5350560000000 1.0
C      1  0.4372840000000  0.4952240000000  0.5548100000000 1.0
C      1  0.4377410000000  0.4802650000000  0.4878510000000 1.0
C      1  0.4371250000000  0.4967610000000  0.4645730000000 1.0
C      1  0.4380430000000  0.5212740000000  0.4799380000000 1.0
C      1  0.4724060000000  0.5388320000000  0.4384910000000 1.0
C      1  0.4770490000000  0.4568080000000  0.4418470000000 1.0
C      1  0.4736610000000  0.4369340000000  0.5276390000000 1.0
C      1  0.4783000000000  0.5074860000000  0.5761460000000 1.0
C      1  0.4777110000000  0.5641920000000  0.5168760000000 1.0
C      1  0.5265250000000  0.5342980000000  0.5622610000000 1.0
C      1  0.5232310000000  0.4534620000000  0.5552950000000 1.0
C      1  0.5247400000000  0.4384510000000  0.4701200000000 1.0
C      1  0.5218540000000  0.5108750000000  0.4226750000000 1.0
C      1  0.5255470000000  0.5639280000000  0.4827370000000 1.0
C      1  0.4516630000000  0.5456640000000  0.4725330000000 1.0
C      1  0.4521330000000  0.4913280000000  0.4407370000000 1.0
C      1  0.4508830000000  0.4537870000000  0.4876620000000 1.0
C      1  0.4515560000000  0.4693580000000  0.5622900000000 1.0
C      1  0.4519770000000  0.5394280000000  0.5461000000000 1.0
C      1  0.5518360000000  0.5411360000000  0.5249960000000 1.0
C      1  0.5474670000000  0.4868340000000  0.5579590000000 1.0
C      1  0.5473950000000  0.4484970000000  0.5103720000000 1.0
C      1  0.5484240000000  0.4777610000000  0.4456600000000 1.0
C      1  0.5478820000000  0.5441540000000  0.4455650000000 1.0
C      1  0.5025470000000  0.4677980000000  0.4331440000000 1.0
C      1  0.4988140000000  0.4348020000000  0.5130460000000 1.0
C      1  0.5011560000000  0.4913350000000  0.5743450000000 1.0
C      1  0.5034290000000  0.5607510000000  0.5289820000000 1.0
C      1  0.4973790000000  0.5514160000000  0.4444790000000 1.0
C      1  0.4980610000000  0.4639080000000  0.5647000000000 1.0
C      1  0.4988780000000  0.4359230000000  0.4838820000000 1.0
C      1  0.4988910000000  0.4950530000000  0.4236790000000 1.0
C      1  0.4990960000000  0.5634030000000  0.4710650000000 1.0
C      1  0.5023920000000  0.5472490000000  0.5544310000000 1.0
C      1  0.4558850000000  0.5637340000000  0.5345710000000 1.0
C      1  0.4494350000000  0.5522740000000  0.4460190000000 1.0
C      1  0.4535500000000  0.4659480000000  0.4305860000000 1.0
C      1  0.4535320000000  0.4371510000000  0.5088540000000 1.0
C      1  0.4546760000000  0.4929940000000  0.5756380000000 1.0
C      1  0.5460210000000  0.5643820000000  0.4639540000000 1.0
C      1  0.5494770000000  0.5449450000000  0.5518220000000 1.0
C      1  0.5464210000000  0.4613680000000  0.5677080000000 1.0
C      1  0.5451070000000  0.4331700000000  0.4878490000000 1.0
C      1  0.5469620000000  0.4994170000000  0.4272010000000 1.0
C      1  0.5308900000000  0.5062060000000  0.4864190000000 1.0
C      1  0.4708700000000  0.5071250000000  0.5117960000000 1.0
C      1  0.5604060000000  0.4989530000000  0.4927740000000 1.0
C      1  0.4410240000000  0.5062540000000  0.5058240000000 1.0
END
