TITL C-21847-7556-1 0.0860418351863289 125000 -763.248193990811 0 0 110 (C1) n - 1
REM
REM in /rds/project/t2_vol4/rds-t2-cs072/BORA/CARBON/from-Arr/AIRSS/Generating-Clusters/GAP-ML-2020/Higher-Symm/SD-CG/HFTN-CG
REM
REM
REM
REM
REM
REM ./C.cell (b20cbc046b6831c77cfcea5457e17084)
REM AIRSS Version 0.9.1 bugfix July 2018 build 013d7b7c2542+ Fri, 06 Jul 2018 19:26:36 +0100
REM compiler GCC version 9.3.0
REM options -cpp -mtune=generic -march=x86-64 -g -O0
REM seed -858873887 -1144661105 -1794935140 1815957445 -1037773408 30133459 1529826122 -811154615 1654638547 -1752327718 333539485 -1341797403 828665197 1993567854 -1867660831 -1425924352 -598224761 -427119720 -1079611652 289538038 2043301641 -842768853 2126182694 -919259369 186792841 -912070300 336562928 1563209865 -1060204989 14076277 -77040795 943783259 676562609
REM
CELL 1.54180   50.00000   50.00000   50.00000   90.00000   90.00000   90.00000
LATT -1
SFAC C  
C      1  0.4584060000000  0.4206380000000  0.4945150000000 1.0
C      1  0.4400730000000  0.4335120000000  0.5378750000000 1.0
C      1  0.4837090000000  0.4308020000000  0.5589300000000 1.0
C      1  0.5274800000000  0.4356730000000  0.5778320000000 1.0
C      1  0.5349050000000  0.4109200000000  0.5279840000000 1.0
C      1  0.5626680000000  0.4388990000000  0.4772720000000 1.0
C      1  0.5489400000000  0.4362480000000  0.4520390000000 1.0
C      1  0.5027530000000  0.4191750000000  0.4493940000000 1.0
C      1  0.4546320000000  0.4313980000000  0.4464870000000 1.0
C      1  0.5023390000000  0.4737240000000  0.5749960000000 1.0
C      1  0.5540560000000  0.4754610000000  0.5552690000000 1.0
C      1  0.5757780000000  0.4745100000000  0.5090370000000 1.0
C      1  0.5624780000000  0.4798910000000  0.4610940000000 1.0
C      1  0.5236650000000  0.4789350000000  0.4314770000000 1.0
C      1  0.4732230000000  0.4760890000000  0.4287390000000 1.0
C      1  0.4336650000000  0.4754270000000  0.4644630000000 1.0
C      1  0.4268910000000  0.4753410000000  0.5153150000000 1.0
C      1  0.4546350000000  0.4730630000000  0.5578750000000 1.0
C      1  0.5193370000000  0.4530890000000  0.4823840000000 1.0
C      1  0.5009190000000  0.4463030000000  0.4583070000000 1.0
C      1  0.4750720000000  0.4576940000000  0.4683220000000 1.0
C      1  0.4609710000000  0.4497960000000  0.4936080000000 1.0
C      1  0.4776470000000  0.4619940000000  0.5162470000000 1.0
C      1  0.4925130000000  0.4476620000000  0.5367550000000 1.0
C      1  0.5201030000000  0.4565070000000  0.5363510000000 1.0
C      1  0.5425420000000  0.4412010000000  0.5243740000000 1.0
C      1  0.5396810000000  0.4353680000000  0.4954510000000 1.0
C      1  0.5183840000000  0.4830450000000  0.5208210000000 1.0
C      1  0.5371270000000  0.4957890000000  0.5014080000000 1.0
C      1  0.5355080000000  0.4782670000000  0.4768260000000 1.0
C      1  0.5142770000000  0.4914260000000  0.4610770000000 1.0
C      1  0.4884490000000  0.4847660000000  0.4757340000000 1.0
C      1  0.4684340000000  0.5055780000000  0.4794620000000 1.0
C      1  0.4602700000000  0.5093280000000  0.5072690000000 1.0
C      1  0.4733690000000  0.4924910000000  0.5279570000000 1.0
C      1  0.5006390000000  0.5019620000000  0.5355310000000 1.0
C      1  0.5006990000000  0.5803030000000  0.5484550000000 1.0
C      1  0.5277680000000  0.5799570000000  0.5360230000000 1.0
C      1  0.5419600000000  0.5817760000000  0.5099750000000 1.0
C      1  0.5350440000000  0.5822490000000  0.4812410000000 1.0
C      1  0.5116580000000  0.5834150000000  0.4633380000000 1.0
C      1  0.4815160000000  0.5836160000000  0.4627560000000 1.0
C      1  0.4611330000000  0.5776120000000  0.4836110000000 1.0
C      1  0.4548320000000  0.5814120000000  0.5129000000000 1.0
C      1  0.4728540000000  0.5761970000000  0.5372750000000 1.0
C      1  0.5660780000000  0.5087720000000  0.4585080000000 1.0
C      1  0.5250250000000  0.5065280000000  0.4221740000000 1.0
C      1  0.4704060000000  0.5039750000000  0.4252670000000 1.0
C      1  0.4355320000000  0.5039590000000  0.4637820000000 1.0
C      1  0.4295510000000  0.5040000000000  0.5141350000000 1.0
C      1  0.4563980000000  0.5017570000000  0.5545460000000 1.0
C      1  0.5027070000000  0.5012340000000  0.5688990000000 1.0
C      1  0.5522690000000  0.5035940000000  0.5564350000000 1.0
C      1  0.5673560000000  0.5035590000000  0.5086280000000 1.0
C      1  0.4796450000000  0.4592260000000  0.5655540000000 1.0
C      1  0.5285710000000  0.4606290000000  0.5653240000000 1.0
C      1  0.5642710000000  0.4613090000000  0.5318060000000 1.0
C      1  0.5750350000000  0.4636370000000  0.4825720000000 1.0
C      1  0.5476060000000  0.4625820000000  0.4415910000000 1.0
C      1  0.4995050000000  0.4640960000000  0.4317900000000 1.0
C      1  0.4543150000000  0.4606370000000  0.4469280000000 1.0
C      1  0.4347020000000  0.4639870000000  0.4905500000000 1.0
C      1  0.4360820000000  0.4609440000000  0.5390230000000 1.0
C      1  0.4383570000000  0.5614500000000  0.4700210000000 1.0
C      1  0.4370270000000  0.5567260000000  0.5158230000000 1.0
C      1  0.4571950000000  0.5587660000000  0.5566110000000 1.0
C      1  0.5012910000000  0.5595100000000  0.5702080000000 1.0
C      1  0.5427790000000  0.5598320000000  0.5502000000000 1.0
C      1  0.5645040000000  0.5623770000000  0.5114200000000 1.0
C      1  0.5546260000000  0.5644400000000  0.4680110000000 1.0
C      1  0.5197990000000  0.5669900000000  0.4407410000000 1.0
C      1  0.4729710000000  0.5681530000000  0.4397900000000 1.0
C      1  0.4230680000000  0.5184190000000  0.4877900000000 1.0
C      1  0.4340580000000  0.5172790000000  0.5418730000000 1.0
C      1  0.4764340000000  0.5165990000000  0.5713730000000 1.0
C      1  0.5294840000000  0.5154250000000  0.5703780000000 1.0
C      1  0.5651340000000  0.5185630000000  0.5350650000000 1.0
C      1  0.5738150000000  0.5211770000000  0.4835270000000 1.0
C      1  0.5438780000000  0.5228280000000  0.4429680000000 1.0
C      1  0.4966990000000  0.5173300000000  0.4230950000000 1.0
C      1  0.4479890000000  0.5194160000000  0.4401490000000 1.0
C      1  0.5704650000000  0.5494520000000  0.4866930000000 1.0
C      1  0.5442680000000  0.5526260000000  0.4447340000000 1.0
C      1  0.4965500000000  0.5551190000000  0.4305620000000 1.0
C      1  0.4519710000000  0.5476740000000  0.4480730000000 1.0
C      1  0.4254320000000  0.5464650000000  0.4902660000000 1.0
C      1  0.4363390000000  0.5452560000000  0.5423660000000 1.0
C      1  0.4758330000000  0.5450590000000  0.5730390000000 1.0
C      1  0.5234500000000  0.5424000000000  0.5626300000000 1.0
C      1  0.5631580000000  0.5469100000000  0.5350320000000 1.0
C      1  0.4841710000000  0.5491850000000  0.5268210000000 1.0
C      1  0.5069490000000  0.5312040000000  0.5337910000000 1.0
C      1  0.5208750000000  0.5395950000000  0.5090540000000 1.0
C      1  0.5252700000000  0.5205310000000  0.4911390000000 1.0
C      1  0.5204160000000  0.5207180000000  0.4628540000000 1.0
C      1  0.4976970000000  0.5319850000000  0.4480660000000 1.0
C      1  0.4746870000000  0.5318040000000  0.4658550000000 1.0
C      1  0.4763650000000  0.5512600000000  0.4870470000000 1.0
C      1  0.4627930000000  0.5383430000000  0.5111340000000 1.0
C      1  0.4561930000000  0.4119410000000  0.4678560000000 1.0
C      1  0.4524350000000  0.4126100000000  0.5203460000000 1.0
C      1  0.4612660000000  0.4177570000000  0.5460960000000 1.0
C      1  0.5091800000000  0.4191790000000  0.5666350000000 1.0
C      1  0.5231270000000  0.4019080000000  0.5500740000000 1.0
C      1  0.5322450000000  0.4070600000000  0.4995910000000 1.0
C      1  0.5333630000000  0.3937410000000  0.4757230000000 1.0
C      1  0.5294980000000  0.4122180000000  0.4544130000000 1.0
C      1  0.4756860000000  0.4120120000000  0.4479280000000 1.0
C      1  0.5007200000000  0.4697930000000  0.5002370000000 1.0
C      1  0.5002710000000  0.5568430000000  0.5011800000000 1.0
END
