TITL C-215429-2571-3 1169.01080361082 125000 -1322.70100074576 0 0 189 (C1) n - 1
REM
REM in /rds/project/t2_vol4/rds-t2-cs072/BORA/CARBON/from-Arr/AIRSS/Generating-Clusters/GAP-ML-2020/Higher-Symm/SD-CG/HFTN-CG/C160-200
REM
REM
REM
REM
REM
REM ./C.cell (6b4489405718ea1b717e0baf1da4c2d9)
REM AIRSS Version 0.9.1 bugfix July 2018 build 013d7b7c2542+ Fri, 06 Jul 2018 19:26:36 +0100
REM compiler GCC version 9.3.0
REM options -cpp -mtune=generic -march=x86-64 -g -O0
REM seed -764433128 -731327401 -1255424049 1161640610 2108784699 2014202889 1350876998 599195661 -404714989 1054886199 694643791 187921110 -851307039 -1016994520 2059165761 1215655279 -183445007 950269137 -95293049 -433560147 1632767975 130494892 -197466578 624485184 -366732322 33304501 -503980211 1379801397 -555999511 -449931548 359552645 1925156718 -1145203212
REM
CELL 1.54180   50.00000   50.00000   50.00000   90.00000   90.00000   90.00000
LATT -1
SFAC C  
C      1  0.3901490000000  0.5149380000000  0.4567820000000 1.0
C      1  0.5956160000000  0.5109820000000  0.4235020000000 1.0
C      1  0.5155540000000  0.5166440000000  0.6194060000000 1.0
C      1  0.3910550000000  0.4857790000000  0.4544640000000 1.0
C      1  0.5941510000000  0.4807860000000  0.4229490000000 1.0
C      1  0.5174060000000  0.4878720000000  0.6219360000000 1.0
C      1  0.3887680000000  0.5162650000000  0.5471910000000 1.0
C      1  0.5966260000000  0.5171330000000  0.5703060000000 1.0
C      1  0.5200570000000  0.5107020000000  0.3769780000000 1.0
C      1  0.3878530000000  0.4865050000000  0.5453870000000 1.0
C      1  0.5969970000000  0.4883780000000  0.5737120000000 1.0
C      1  0.5172430000000  0.4808090000000  0.3793180000000 1.0
C      1  0.6110540000000  0.5150480000000  0.5457310000000 1.0
C      1  0.4033730000000  0.5143890000000  0.5716380000000 1.0
C      1  0.4909900000000  0.5131020000000  0.3773930000000 1.0
C      1  0.6120610000000  0.4851870000000  0.5492480000000 1.0
C      1  0.4012420000000  0.4844360000000  0.5711070000000 1.0
C      1  0.4886740000000  0.4834610000000  0.3802110000000 1.0
C      1  0.6080920000000  0.5104490000000  0.4493300000000 1.0
C      1  0.4018620000000  0.5169240000000  0.4305550000000 1.0
C      1  0.4870160000000  0.5154770000000  0.6205550000000 1.0
C      1  0.6079610000000  0.4806850000000  0.4484370000000 1.0
C      1  0.4041890000000  0.4868520000000  0.4292970000000 1.0
C      1  0.4886430000000  0.4855040000000  0.6235390000000 1.0
C      1  0.4750030000000  0.4129680000000  0.5172780000000 1.0
C      1  0.5002690000000  0.4147390000000  0.4724660000000 1.0
C      1  0.5265560000000  0.4113880000000  0.5170990000000 1.0
C      1  0.4759220000000  0.5842640000000  0.5129530000000 1.0
C      1  0.5014370000000  0.5872730000000  0.4673220000000 1.0
C      1  0.5270530000000  0.5858370000000  0.5119170000000 1.0
C      1  0.4749320000000  0.4148070000000  0.4872680000000 1.0
C      1  0.5006090000000  0.4113270000000  0.5322850000000 1.0
C      1  0.5261830000000  0.4130130000000  0.4874560000000 1.0
C      1  0.4761330000000  0.5859680000000  0.4828920000000 1.0
C      1  0.5013620000000  0.5842780000000  0.5273800000000 1.0
C      1  0.5274010000000  0.5872060000000  0.4822190000000 1.0
C      1  0.5426860000000  0.6116530000000  0.5219010000000 1.0
C      1  0.4666210000000  0.6088070000000  0.5305920000000 1.0
C      1  0.4780570000000  0.6289770000000  0.4655200000000 1.0
C      1  0.5399150000000  0.3698370000000  0.4978000000000 1.0
C      1  0.4583020000000  0.3873610000000  0.5253630000000 1.0
C      1  0.4895060000000  0.3906020000000  0.4552360000000 1.0
C      1  0.5413780000000  0.6287900000000  0.5011810000000 1.0
C      1  0.4595940000000  0.6117700000000  0.4749390000000 1.0
C      1  0.4915170000000  0.6086970000000  0.5446270000000 1.0
C      1  0.5413060000000  0.3872830000000  0.4772000000000 1.0
C      1  0.4648850000000  0.3906930000000  0.4697790000000 1.0
C      1  0.4768820000000  0.3699530000000  0.5342180000000 1.0
C      1  0.4581680000000  0.4379100000000  0.4769840000000 1.0
C      1  0.5432690000000  0.4350600000000  0.4770220000000 1.0
C      1  0.5005250000000  0.4325680000000  0.5531700000000 1.0
C      1  0.4585770000000  0.5640140000000  0.4736990000000 1.0
C      1  0.5451360000000  0.5653120000000  0.4720130000000 1.0
C      1  0.5009200000000  0.5615830000000  0.5474200000000 1.0
C      1  0.4576890000000  0.4349010000000  0.5271590000000 1.0
C      1  0.5447760000000  0.4327090000000  0.5271830000000 1.0
C      1  0.5000730000000  0.4379070000000  0.4528690000000 1.0
C      1  0.4588230000000  0.5613720000000  0.5237300000000 1.0
C      1  0.5440300000000  0.5640870000000  0.5223860000000 1.0
C      1  0.5013380000000  0.5653050000000  0.4468230000000 1.0
C      1  0.4554250000000  0.4860820000000  0.4768890000000 1.0
C      1  0.5437730000000  0.4844120000000  0.4792330000000 1.0
C      1  0.5008910000000  0.4838600000000  0.5514200000000 1.0
C      1  0.4551850000000  0.5151200000000  0.4754080000000 1.0
C      1  0.5441650000000  0.5140570000000  0.4779610000000 1.0
C      1  0.5008490000000  0.5130710000000  0.5501940000000 1.0
C      1  0.4573810000000  0.4834260000000  0.5274210000000 1.0
C      1  0.5441770000000  0.4844980000000  0.5268100000000 1.0
C      1  0.4973740000000  0.4859150000000  0.4533240000000 1.0
C      1  0.4593960000000  0.5123840000000  0.5254970000000 1.0
C      1  0.5453420000000  0.5138940000000  0.5253430000000 1.0
C      1  0.4981460000000  0.5152310000000  0.4522040000000 1.0
C      1  0.4157800000000  0.5384300000000  0.4226210000000 1.0
C      1  0.6059020000000  0.5298770000000  0.4706460000000 1.0
C      1  0.4705850000000  0.5334280000000  0.6054330000000 1.0
C      1  0.4245720000000  0.4679720000000  0.4217660000000 1.0
C      1  0.6082700000000  0.4604730000000  0.4660560000000 1.0
C      1  0.4765240000000  0.4633970000000  0.6142640000000 1.0
C      1  0.4243790000000  0.5327420000000  0.5788160000000 1.0
C      1  0.6065660000000  0.5329710000000  0.5238900000000 1.0
C      1  0.4770600000000  0.5342150000000  0.3866100000000 1.0
C      1  0.4152460000000  0.4625970000000  0.5778930000000 1.0
C      1  0.6102280000000  0.4625830000000  0.5347620000000 1.0
C      1  0.4706840000000  0.4666540000000  0.3949380000000 1.0
C      1  0.4125190000000  0.4418990000000  0.5345600000000 1.0
C      1  0.5137050000000  0.4415600000000  0.4068060000000 1.0
C      1  0.5738920000000  0.4455460000000  0.5615060000000 1.0
C      1  0.4124300000000  0.5572490000000  0.5352200000000 1.0
C      1  0.5175540000000  0.5522010000000  0.4042510000000 1.0
C      1  0.5744540000000  0.5582060000000  0.5562110000000 1.0
C      1  0.4129270000000  0.4432140000000  0.4654100000000 1.0
C      1  0.5166510000000  0.4454850000000  0.5952260000000 1.0
C      1  0.5726510000000  0.4393960000000  0.4405080000000 1.0
C      1  0.4135810000000  0.5584610000000  0.4668840000000 1.0
C      1  0.5146350000000  0.5568060000000  0.5922450000000 1.0
C      1  0.5747640000000  0.5523540000000  0.4376170000000 1.0
C      1  0.5888820000000  0.4451350000000  0.5364770000000 1.0
C      1  0.4262140000000  0.4446350000000  0.5601800000000 1.0
C      1  0.4857030000000  0.4461810000000  0.4086290000000 1.0
C      1  0.5882500000000  0.5545490000000  0.5310230000000 1.0
C      1  0.4281470000000  0.5532020000000  0.5585930000000 1.0
C      1  0.4881860000000  0.5519150000000  0.4042290000000 1.0
C      1  0.5871770000000  0.4430120000000  0.4654960000000 1.0
C      1  0.4280840000000  0.4469850000000  0.4416000000000 1.0
C      1  0.4874650000000  0.4456790000000  0.5961770000000 1.0
C      1  0.5883700000000  0.5516510000000  0.4629160000000 1.0
C      1  0.4269670000000  0.5555790000000  0.4409910000000 1.0
C      1  0.4862110000000  0.5536270000000  0.5915510000000 1.0
C      1  0.5277080000000  0.4612240000000  0.4870670000000 1.0
C      1  0.5001030000000  0.4601460000000  0.5334190000000 1.0
C      1  0.4726690000000  0.4632170000000  0.4865530000000 1.0
C      1  0.5281780000000  0.5382250000000  0.4846930000000 1.0
C      1  0.5012350000000  0.5356080000000  0.5306870000000 1.0
C      1  0.4728420000000  0.5377520000000  0.4834830000000 1.0
C      1  0.5279490000000  0.4603590000000  0.5175450000000 1.0
C      1  0.4994550000000  0.4631480000000  0.4714430000000 1.0
C      1  0.4730040000000  0.4608520000000  0.5182040000000 1.0
C      1  0.5288700000000  0.5370740000000  0.5152970000000 1.0
C      1  0.4995370000000  0.5389240000000  0.4687360000000 1.0
C      1  0.4741110000000  0.5356380000000  0.5151680000000 1.0
C      1  0.5724260000000  0.5335320000000  0.5729110000000 1.0
C      1  0.3905000000000  0.5388160000000  0.5286740000000 1.0
C      1  0.5348960000000  0.5330900000000  0.3884780000000 1.0
C      1  0.5735000000000  0.4716500000000  0.5770240000000 1.0
C      1  0.3993350000000  0.4676890000000  0.5252200000000 1.0
C      1  0.5317690000000  0.4578180000000  0.3902990000000 1.0
C      1  0.5797120000000  0.5336590000000  0.4149050000000 1.0
C      1  0.4000970000000  0.5334880000000  0.4784230000000 1.0
C      1  0.5296710000000  0.5323050000000  0.5991030000000 1.0
C      1  0.5767920000000  0.4575400000000  0.4169710000000 1.0
C      1  0.3996110000000  0.4671990000000  0.4749760000000 1.0
C      1  0.5309270000000  0.4709960000000  0.6028660000000 1.0
C      1  0.5212400000000  0.5136320000000  0.4341210000000 1.0
C      1  0.5493200000000  0.5157850000000  0.5551600000000 1.0
C      1  0.4318490000000  0.5143360000000  0.5172560000000 1.0
C      1  0.5206580000000  0.4837530000000  0.4356930000000 1.0
C      1  0.5497460000000  0.4852820000000  0.5563700000000 1.0
C      1  0.4290460000000  0.4838540000000  0.5172400000000 1.0
C      1  0.5236110000000  0.5151910000000  0.5698160000000 1.0
C      1  0.5468930000000  0.5130500000000  0.4489110000000 1.0
C      1  0.4277390000000  0.5162210000000  0.4880880000000 1.0
C      1  0.5238420000000  0.4848110000000  0.5709460000000 1.0
C      1  0.5461420000000  0.4831170000000  0.4501500000000 1.0
C      1  0.4277080000000  0.4849470000000  0.4875830000000 1.0
C      1  0.5222330000000  0.5707990000000  0.5670900000000 1.0
C      1  0.4310390000000  0.5736430000000  0.4852090000000 1.0
C      1  0.5491000000000  0.5635360000000  0.4426620000000 1.0
C      1  0.5245150000000  0.4339810000000  0.5706470000000 1.0
C      1  0.4303190000000  0.4287300000000  0.4848560000000 1.0
C      1  0.5472930000000  0.4257090000000  0.4472110000000 1.0
C      1  0.5251120000000  0.5634820000000  0.4288360000000 1.0
C      1  0.4309450000000  0.5706170000000  0.5157590000000 1.0
C      1  0.5488690000000  0.5734570000000  0.5516790000000 1.0
C      1  0.5209030000000  0.4285480000000  0.4324240000000 1.0
C      1  0.4299780000000  0.4265180000000  0.5156720000000 1.0
C      1  0.5485220000000  0.4340540000000  0.5566000000000 1.0
C      1  0.4392220000000  0.3979490000000  0.4823340000000 1.0
C      1  0.5400930000000  0.3950610000000  0.4497910000000 1.0
C      1  0.5026300000000  0.3803990000000  0.5351540000000 1.0
C      1  0.4365450000000  0.6038840000000  0.4897910000000 1.0
C      1  0.5291150000000  0.6181280000000  0.4786110000000 1.0
C      1  0.5153730000000  0.6016660000000  0.5603620000000 1.0
C      1  0.4351500000000  0.3958910000000  0.5109750000000 1.0
C      1  0.5279430000000  0.3803990000000  0.5204890000000 1.0
C      1  0.5132130000000  0.3971080000000  0.4395410000000 1.0
C      1  0.4409300000000  0.6020810000000  0.5183400000000 1.0
C      1  0.5421250000000  0.6037110000000  0.5492740000000 1.0
C      1  0.5036810000000  0.6182600000000  0.4642710000000 1.0
C      1  0.5721280000000  0.5634750000000  0.4829920000000 1.0
C      1  0.4777670000000  0.5611420000000  0.5660870000000 1.0
C      1  0.4544920000000  0.5633150000000  0.4441950000000 1.0
C      1  0.5708010000000  0.4349440000000  0.4875270000000 1.0
C      1  0.4770530000000  0.4347870000000  0.5712140000000 1.0
C      1  0.4541580000000  0.4390210000000  0.4475520000000 1.0
C      1  0.5712870000000  0.5637740000000  0.5106590000000 1.0
C      1  0.4779990000000  0.5629730000000  0.4290520000000 1.0
C      1  0.4543820000000  0.5609540000000  0.5529660000000 1.0
C      1  0.5718580000000  0.4346170000000  0.5153250000000 1.0
C      1  0.4773100000000  0.4390570000000  0.4341850000000 1.0
C      1  0.4532810000000  0.4351480000000  0.5566580000000 1.0
C      1  0.3848840000000  0.5347240000000  0.5026410000000 1.0
C      1  0.3887960000000  0.4702660000000  0.4999160000000 1.0
C      1  0.5607940000000  0.5329130000000  0.3957250000000 1.0
C      1  0.5582840000000  0.4751570000000  0.6001670000000 1.0
C      1  0.5578280000000  0.4570040000000  0.3977880000000 1.0
C      1  0.5574770000000  0.5295680000000  0.5963440000000 1.0
C      1  0.4458920000000  0.4715670000000  0.4051830000000 1.0
C      1  0.4456840000000  0.5290230000000  0.5953200000000 1.0
C      1  0.6095180000000  0.5273110000000  0.4974290000000 1.0
END
