TITL C-21975-5596-2 2.6093320172664 125000 -685.880487053277 0 0 99 (C1) n - 1
REM
REM in /rds/project/t2_vol4/rds-t2-cs072/BORA/CARBON/from-Arr/AIRSS/Generating-Clusters/GAP-ML-2020/Higher-Symm/SD-CG/HFTN-CG
REM
REM
REM
REM
REM
REM ./C.cell (b20cbc046b6831c77cfcea5457e17084)
REM AIRSS Version 0.9.1 bugfix July 2018 build 013d7b7c2542+ Fri, 06 Jul 2018 19:26:36 +0100
REM compiler GCC version 9.3.0
REM options -cpp -mtune=generic -march=x86-64 -g -O0
REM seed 1745117362 -1711501883 416544613 156697527 1272094030 1676953140 736268497 1652709703 544158859 -1694789375 984223739 1242863244 703289854 -311521368 2099209924 -395608057 -1333941739 1999968397 570540391 1640369542 -326872216 -1882967177 -203979746 -1316489911 -1450090398 545910755 906105361 -212953950 -682232427 -1837092933 199234587 376869835 -1875236872
REM
CELL 1.54180   50.00000   50.00000   50.00000   90.00000   90.00000   90.00000
LATT -1
SFAC C  
C      1  0.5190160000000  0.5264950000000  0.4607570000000 1.0
C      1  0.5522300000000  0.4550450000000  0.4700060000000 1.0
C      1  0.5044200000000  0.4292860000000  0.5433680000000 1.0
C      1  0.4927250000000  0.5643790000000  0.4628130000000 1.0
C      1  0.5028840000000  0.4587310000000  0.4135130000000 1.0
C      1  0.4424530000000  0.4588350000000  0.4547640000000 1.0
C      1  0.5493870000000  0.4903910000000  0.5036500000000 1.0
C      1  0.4638830000000  0.5853300000000  0.5228510000000 1.0
C      1  0.5213770000000  0.4589500000000  0.4340870000000 1.0
C      1  0.5778290000000  0.5256380000000  0.5205710000000 1.0
C      1  0.4949450000000  0.4845200000000  0.4040200000000 1.0
C      1  0.4599630000000  0.4307890000000  0.5269970000000 1.0
C      1  0.5129910000000  0.5228170000000  0.4926310000000 1.0
C      1  0.4302180000000  0.5024940000000  0.4408340000000 1.0
C      1  0.4294620000000  0.4887070000000  0.5301940000000 1.0
C      1  0.4434740000000  0.5655950000000  0.5155290000000 1.0
C      1  0.4554280000000  0.4699090000000  0.4969200000000 1.0
C      1  0.5306460000000  0.5404040000000  0.5688230000000 1.0
C      1  0.5094600000000  0.5882850000000  0.5112290000000 1.0
C      1  0.5559860000000  0.5279690000000  0.5645060000000 1.0
C      1  0.5077340000000  0.5805130000000  0.5396610000000 1.0
C      1  0.4174780000000  0.4912010000000  0.4833530000000 1.0
C      1  0.5122070000000  0.5191000000000  0.5783730000000 1.0
C      1  0.5704960000000  0.5421050000000  0.4971220000000 1.0
C      1  0.4324520000000  0.5451050000000  0.5340400000000 1.0
C      1  0.4794460000000  0.5814170000000  0.5463020000000 1.0
C      1  0.5571020000000  0.4436010000000  0.4972500000000 1.0
C      1  0.4949340000000  0.4652970000000  0.5259200000000 1.0
C      1  0.5178700000000  0.4223190000000  0.4625610000000 1.0
C      1  0.4252890000000  0.4735180000000  0.5048910000000 1.0
C      1  0.5053550000000  0.4737260000000  0.4807550000000 1.0
C      1  0.4728040000000  0.5760220000000  0.4789330000000 1.0
C      1  0.4507640000000  0.4733440000000  0.5438060000000 1.0
C      1  0.5624790000000  0.4828550000000  0.5473280000000 1.0
C      1  0.4615450000000  0.5155810000000  0.5151600000000 1.0
C      1  0.4337740000000  0.4254760000000  0.5203710000000 1.0
C      1  0.5315750000000  0.5002330000000  0.4526220000000 1.0
C      1  0.5631150000000  0.5303660000000  0.4233110000000 1.0
C      1  0.5406480000000  0.4639610000000  0.5125010000000 1.0
C      1  0.4842550000000  0.4436280000000  0.4314120000000 1.0
C      1  0.4829030000000  0.5189840000000  0.5801950000000 1.0
C      1  0.5268320000000  0.4937360000000  0.5752650000000 1.0
C      1  0.5203070000000  0.5713320000000  0.4674260000000 1.0
C      1  0.5290970000000  0.5645970000000  0.5510050000000 1.0
C      1  0.4497590000000  0.4448030000000  0.4788710000000 1.0
C      1  0.5522720000000  0.5624260000000  0.5342350000000 1.0
C      1  0.4470620000000  0.5231870000000  0.4480640000000 1.0
C      1  0.4710690000000  0.4706900000000  0.5643390000000 1.0
C      1  0.4806280000000  0.5094550000000  0.5364790000000 1.0
C      1  0.5185430000000  0.4141040000000  0.4901140000000 1.0
C      1  0.4973920000000  0.4558300000000  0.5557530000000 1.0
C      1  0.4724430000000  0.5287590000000  0.4288350000000 1.0
C      1  0.5020270000000  0.4950800000000  0.5239850000000 1.0
C      1  0.4983830000000  0.5435720000000  0.5046620000000 1.0
C      1  0.5572140000000  0.5071030000000  0.4353470000000 1.0
C      1  0.4904620000000  0.4269710000000  0.4540460000000 1.0
C      1  0.5390500000000  0.4212810000000  0.5088950000000 1.0
C      1  0.4714810000000  0.5410310000000  0.5077960000000 1.0
C      1  0.4258320000000  0.4819250000000  0.4577600000000 1.0
C      1  0.4812160000000  0.4885020000000  0.4435540000000 1.0
C      1  0.4954680000000  0.4973540000000  0.4932110000000 1.0
C      1  0.4671530000000  0.4977840000000  0.4907160000000 1.0
C      1  0.5612280000000  0.5467600000000  0.4465620000000 1.0
C      1  0.5720120000000  0.5048980000000  0.4608250000000 1.0
C      1  0.5313490000000  0.4299190000000  0.5356010000000 1.0
C      1  0.4820080000000  0.5897490000000  0.5015080000000 1.0
C      1  0.4227770000000  0.5181220000000  0.4912580000000 1.0
C      1  0.5425130000000  0.4602250000000  0.5428270000000 1.0
C      1  0.4904450000000  0.4144260000000  0.4981070000000 1.0
C      1  0.5358380000000  0.4414060000000  0.4515250000000 1.0
C      1  0.5535200000000  0.4999780000000  0.5669070000000 1.0
C      1  0.4710630000000  0.5086560000000  0.4629920000000 1.0
C      1  0.4735950000000  0.4257650000000  0.4771360000000 1.0
C      1  0.4652270000000  0.4631850000000  0.4389580000000 1.0
C      1  0.5526660000000  0.4857200000000  0.4730960000000 1.0
C      1  0.5741780000000  0.4953670000000  0.5216030000000 1.0
C      1  0.5347890000000  0.5510650000000  0.4547660000000 1.0
C      1  0.4846710000000  0.4175550000000  0.5254780000000 1.0
C      1  0.4902070000000  0.5353930000000  0.4524020000000 1.0
C      1  0.4651100000000  0.5415360000000  0.5777080000000 1.0
C      1  0.5531770000000  0.5650130000000  0.5057990000000 1.0
C      1  0.4660550000000  0.4601830000000  0.5223620000000 1.0
C      1  0.4315700000000  0.5176810000000  0.5204820000000 1.0
C      1  0.4438110000000  0.5485140000000  0.5595460000000 1.0
C      1  0.4361080000000  0.5371760000000  0.4733790000000 1.0
C      1  0.5100530000000  0.4797830000000  0.4518100000000 1.0
C      1  0.4509500000000  0.5572720000000  0.4879590000000 1.0
C      1  0.5839420000000  0.4505250000000  0.5066640000000 1.0
C      1  0.5929770000000  0.4733350000000  0.5136330000000 1.0
C      1  0.5688270000000  0.5400670000000  0.5426630000000 1.0
C      1  0.5738510000000  0.5327760000000  0.4700960000000 1.0
C      1  0.4734220000000  0.4980170000000  0.5635490000000 1.0
C      1  0.5278120000000  0.5084940000000  0.5141170000000 1.0
C      1  0.4254600000000  0.4426460000000  0.5011570000000 1.0
C      1  0.4817970000000  0.5038010000000  0.4176530000000 1.0
C      1  0.5129890000000  0.4587800000000  0.5028660000000 1.0
C      1  0.5224760000000  0.4679710000000  0.5634400000000 1.0
C      1  0.4645710000000  0.5667820000000  0.5657680000000 1.0
C      1  0.5302660000000  0.5790170000000  0.4935110000000 1.0
END
