TITL C-21843-7476-4 -0.167148133783614 125000 -495.475509436423 0 0 75 (C3) n - 1
REM
REM in /rds/project/t2_vol4/rds-t2-cs072/BORA/CARBON/from-Arr/AIRSS/Generating-Clusters/GAP-ML-2020/Higher-Symm/SD-CG/HFTN-CG
REM
REM
REM
REM
REM
REM ./C.cell (b20cbc046b6831c77cfcea5457e17084)
REM AIRSS Version 0.9.1 bugfix July 2018 build 013d7b7c2542+ Fri, 06 Jul 2018 19:26:36 +0100
REM compiler GCC version 9.3.0
REM options -cpp -mtune=generic -march=x86-64 -g -O0
REM seed -1603058846 1602421277 -432041842 575771841 766062386 -1505282216 915586682 -1484578247 1983733648 -1347362191 1467808329 -704112898 7187579 407273590 1874412644 714188411 1863005517 328946144 1606912911 390420949 2031153291 12213322 -576974322 -1311998484 -539261342 1586487540 1366051099 -34766626 70995789 -8000799 1333610858 576999096 1693628224
REM
CELL 1.54180   50.00000   50.00000   50.00000   90.00000   90.00000   90.00000
LATT -1
SFAC C  
C      1  0.5242750000000  0.4640720000000  0.5045450000000 1.0
C      1  0.4567090000000  0.4969270000000  0.5038040000000 1.0
C      1  0.5189450000000  0.5390170000000  0.5043190000000 1.0
C      1  0.4631550000000  0.4685980000000  0.5088550000000 1.0
C      1  0.5455220000000  0.4838790000000  0.5096310000000 1.0
C      1  0.4911070000000  0.5475730000000  0.5089480000000 1.0
C      1  0.5304340000000  0.4980240000000  0.3903980000000 1.0
C      1  0.4849430000000  0.4751960000000  0.3900030000000 1.0
C      1  0.4879210000000  0.5260070000000  0.3899150000000 1.0
C      1  0.4718700000000  0.5019670000000  0.3898240000000 1.0
C      1  0.5137870000000  0.4733150000000  0.3903030000000 1.0
C      1  0.5176410000000  0.5239450000000  0.3902240000000 1.0
C      1  0.5308130000000  0.5007140000000  0.4699800000000 1.0
C      1  0.4857500000000  0.4731200000000  0.4696000000000 1.0
C      1  0.4843860000000  0.5259440000000  0.4694650000000 1.0
C      1  0.4720240000000  0.4987660000000  0.4762690000000 1.0
C      1  0.5153790000000  0.4760850000000  0.4767480000000 1.0
C      1  0.5133440000000  0.5249740000000  0.4766150000000 1.0
C      1  0.5694100000000  0.4732610000000  0.5588980000000 1.0
C      1  0.4411940000000  0.4529700000000  0.5576830000000 1.0
C      1  0.4877330000000  0.5741590000000  0.5578620000000 1.0
C      1  0.4385670000000  0.4784190000000  0.5551690000000 1.0
C      1  0.5487170000000  0.4582320000000  0.5563000000000 1.0
C      1  0.5111260000000  0.5637220000000  0.5556870000000 1.0
C      1  0.5308350000000  0.4965390000000  0.4201240000000 1.0
C      1  0.4829590000000  0.4754400000000  0.4197020000000 1.0
C      1  0.4886270000000  0.5274540000000  0.4196380000000 1.0
C      1  0.4700650000000  0.5013760000000  0.4193840000000 1.0
C      1  0.5148230000000  0.4724020000000  0.4198920000000 1.0
C      1  0.5175360000000  0.5256540000000  0.4197960000000 1.0
C      1  0.5298000000000  0.5281490000000  0.6071900000000 1.0
C      1  0.5077140000000  0.4595850000000  0.6071310000000 1.0
C      1  0.4593820000000  0.5129930000000  0.6065320000000 1.0
C      1  0.4746120000000  0.5325620000000  0.6080770000000 1.0
C      1  0.4831350000000  0.4630070000000  0.6083210000000 1.0
C      1  0.5391070000000  0.5051670000000  0.6087750000000 1.0
C      1  0.5541480000000  0.4995860000000  0.4885030000000 1.0
C      1  0.4727990000000  0.4533810000000  0.4878090000000 1.0
C      1  0.4734620000000  0.5469370000000  0.4876000000000 1.0
C      1  0.4334010000000  0.5107040000000  0.4870830000000 1.0
C      1  0.5242080000000  0.4368010000000  0.4881470000000 1.0
C      1  0.5428050000000  0.5523980000000  0.4880640000000 1.0
C      1  0.4689830000000  0.4619100000000  0.5571370000000 1.0
C      1  0.4815930000000  0.5456260000000  0.5570680000000 1.0
C      1  0.5477850000000  0.4928490000000  0.5578410000000 1.0
C      1  0.5209210000000  0.4561100000000  0.5561360000000 1.0
C      1  0.5268590000000  0.5407120000000  0.5559990000000 1.0
C      1  0.4506260000000  0.5035520000000  0.5553340000000 1.0
C      1  0.4874740000000  0.5289470000000  0.5326870000000 1.0
C      1  0.5308110000000  0.4962180000000  0.5331890000000 1.0
C      1  0.4807990000000  0.4750490000000  0.5327460000000 1.0
C      1  0.5196460000000  0.5248120000000  0.5317100000000 1.0
C      1  0.4683110000000  0.5049640000000  0.5312500000000 1.0
C      1  0.5111660000000  0.4704290000000  0.5317520000000 1.0
C      1  0.5433490000000  0.5076040000000  0.4436280000000 1.0
C      1  0.4858910000000  0.4589520000000  0.4431750000000 1.0
C      1  0.4724890000000  0.5330390000000  0.4428720000000 1.0
C      1  0.4447450000000  0.5015160000000  0.4628970000000 1.0
C      1  0.5268040000000  0.4509280000000  0.4638210000000 1.0
C      1  0.5295840000000  0.5472910000000  0.4636270000000 1.0
C      1  0.4857420000000  0.4300320000000  0.4888910000000 1.0
C      1  0.4467550000000  0.5473970000000  0.4882370000000 1.0
C      1  0.5678860000000  0.5224820000000  0.4894870000000 1.0
C      1  0.5067020000000  0.4141110000000  0.4919500000000 1.0
C      1  0.5711570000000  0.5486290000000  0.4922750000000 1.0
C      1  0.4224400000000  0.5371900000000  0.4908370000000 1.0
C      1  0.4814350000000  0.4768090000000  0.5791360000000 1.0
C      1  0.4879020000000  0.5272810000000  0.5790830000000 1.0
C      1  0.5283770000000  0.4964460000000  0.5795530000000 1.0
C      1  0.5110420000000  0.4729590000000  0.5785410000000 1.0
C      1  0.5169200000000  0.5240010000000  0.5784820000000 1.0
C      1  0.4697800000000  0.5035700000000  0.5780650000000 1.0
C      1  0.5129070000000  0.4497520000000  0.4392600000000 1.0
C      1  0.5378620000000  0.5355510000000  0.4393070000000 1.0
C      1  0.4510850000000  0.5142630000000  0.4385030000000 1.0
END
