TITL C-21847-7556-2 0.043909359423594 125000 -412.620000887325 0 0 62 (C1) n - 1
REM
REM in /rds/project/t2_vol4/rds-t2-cs072/BORA/CARBON/from-Arr/AIRSS/Generating-Clusters/GAP-ML-2020/Higher-Symm/SD-CG/HFTN-CG
REM
REM
REM
REM
REM
REM ./C.cell (b20cbc046b6831c77cfcea5457e17084)
REM AIRSS Version 0.9.1 bugfix July 2018 build 013d7b7c2542+ Fri, 06 Jul 2018 19:26:36 +0100
REM compiler GCC version 9.3.0
REM options -cpp -mtune=generic -march=x86-64 -g -O0
REM seed 2108909552 1121524435 373932328 -1836738788 -1510229677 -480900786 -484870531 -364036034 1922705281 -713933895 -510831729 136667989 -1542565190 200411261 1692378354 -1800744049 138139935 -104618526 -968422938 2031110340 -600162881 -342966748 -492431829 -702382996 -1845894214 313200889 173926815 -5042886 -480281336 720752430 -275364887 -415839429 913675153
REM
CELL 1.54180   50.00000   50.00000   50.00000   90.00000   90.00000   90.00000
LATT -1
SFAC C  
C      1  0.5392250000000  0.4501420000000  0.5408920000000 1.0
C      1  0.5298470000000  0.5638130000000  0.5405920000000 1.0
C      1  0.4357540000000  0.4960040000000  0.5431420000000 1.0
C      1  0.5109190000000  0.5588120000000  0.4595890000000 1.0
C      1  0.4481530000000  0.4818020000000  0.4594760000000 1.0
C      1  0.5369470000000  0.4620280000000  0.4577110000000 1.0
C      1  0.4627080000000  0.4740220000000  0.5046690000000 1.0
C      1  0.5368890000000  0.4814180000000  0.5005800000000 1.0
C      1  0.4969170000000  0.5421130000000  0.5028720000000 1.0
C      1  0.5154800000000  0.5188300000000  0.5112930000000 1.0
C      1  0.4718210000000  0.5027550000000  0.5103300000000 1.0
C      1  0.5088650000000  0.4732110000000  0.5111810000000 1.0
C      1  0.5480720000000  0.4919450000000  0.5267610000000 1.0
C      1  0.4846250000000  0.5511710000000  0.5287740000000 1.0
C      1  0.4659530000000  0.4625820000000  0.5327930000000 1.0
C      1  0.4340830000000  0.5134320000000  0.4982580000000 1.0
C      1  0.5199880000000  0.4354570000000  0.4986360000000 1.0
C      1  0.5439970000000  0.5508160000000  0.4966930000000 1.0
C      1  0.5451940000000  0.5469420000000  0.5262000000000 1.0
C      1  0.4469120000000  0.5150510000000  0.5258730000000 1.0
C      1  0.5155320000000  0.4466570000000  0.5267450000000 1.0
C      1  0.4605850000000  0.5256990000000  0.4303490000000 1.0
C      1  0.4919360000000  0.4483350000000  0.4323240000000 1.0
C      1  0.5544380000000  0.5415660000000  0.4386410000000 1.0
C      1  0.5377440000000  0.5184680000000  0.5334130000000 1.0
C      1  0.4647730000000  0.5345190000000  0.5403220000000 1.0
C      1  0.4916170000000  0.4542960000000  0.5424930000000 1.0
C      1  0.5374050000000  0.4558050000000  0.4857130000000 1.0
C      1  0.5167910000000  0.5582500000000  0.4878190000000 1.0
C      1  0.4411710000000  0.4864420000000  0.4878700000000 1.0
C      1  0.5281370000000  0.5395720000000  0.4455970000000 1.0
C      1  0.4662070000000  0.5042430000000  0.4455060000000 1.0
C      1  0.5086950000000  0.4638370000000  0.4467700000000 1.0
C      1  0.4937900000000  0.4788610000000  0.4666760000000 1.0
C      1  0.5185280000000  0.5157860000000  0.4611090000000 1.0
C      1  0.4893700000000  0.5087090000000  0.4644790000000 1.0
C      1  0.4708000000000  0.4388370000000  0.4493710000000 1.0
C      1  0.5731290000000  0.4989350000000  0.4492970000000 1.0
C      1  0.4629600000000  0.5497190000000  0.4462320000000 1.0
C      1  0.4861780000000  0.5631040000000  0.4494200000000 1.0
C      1  0.4499150000000  0.4564200000000  0.4506800000000 1.0
C      1  0.5569920000000  0.4797130000000  0.4516870000000 1.0
C      1  0.4784420000000  0.5214600000000  0.5632160000000 1.0
C      1  0.4985490000000  0.4734990000000  0.5645760000000 1.0
C      1  0.5231920000000  0.5136700000000  0.5602590000000 1.0
C      1  0.5442220000000  0.4752640000000  0.5490440000000 1.0
C      1  0.5053160000000  0.5552960000000  0.5480540000000 1.0
C      1  0.4547770000000  0.4796790000000  0.5523600000000 1.0
C      1  0.4768020000000  0.5234710000000  0.4884050000000 1.0
C      1  0.4880230000000  0.4639040000000  0.4910810000000 1.0
C      1  0.5323680000000  0.5094350000000  0.4871650000000 1.0
C      1  0.4938540000000  0.4343970000000  0.4869890000000 1.0
C      1  0.5553160000000  0.5276680000000  0.4847210000000 1.0
C      1  0.4473970000000  0.5338800000000  0.4838460000000 1.0
C      1  0.4748860000000  0.4914540000000  0.5687190000000 1.0
C      1  0.5260440000000  0.4857570000000  0.5686160000000 1.0
C      1  0.5043310000000  0.5346190000000  0.5679420000000 1.0
C      1  0.5660730000000  0.5245710000000  0.4577180000000 1.0
C      1  0.4422200000000  0.5531780000000  0.4657860000000 1.0
C      1  0.4783320000000  0.4203580000000  0.4697230000000 1.0
C      1  0.4979930000000  0.4982020000000  0.5216170000000 1.0
C      1  0.4976870000000  0.5002040000000  0.5500250000000 1.0
END
