TITL C-21981-5602-11 0.734398698673381 125000 -36.0056385460221 0 0 7 (S4) n - 1
REM
REM in /rds/project/t2_vol4/rds-t2-cs072/BORA/CARBON/from-Arr/AIRSS/Generating-Clusters/GAP-ML-2020/Higher-Symm/SD-CG/HFTN-CG
REM
REM
REM
REM
REM
REM ./C.cell (b20cbc046b6831c77cfcea5457e17084)
REM AIRSS Version 0.9.1 bugfix July 2018 build 013d7b7c2542+ Fri, 06 Jul 2018 19:26:36 +0100
REM compiler GCC version 9.3.0
REM options -cpp -mtune=generic -march=x86-64 -g -O0
REM seed -1942993469 1704633684 1899800945 -1960958648 624897129 -1326000233 1173933383 332872140 -410010069 1154422881 -223873695 1390889206 1034659502 -1545209756 -1705584292 -355134585 2032504689 -877464279 313782372 323823308 -488340555 -1382023397 -1179062557 247325921 -1513617038 311982503 -1515247375 638129482 924406026 -1879298037 -356692675 -1584397552 -174764327
REM
CELL 1.54180   50.00000   50.00000   50.00000   90.00000   90.00000   90.00000
LATT -1
SFAC C  
C      1  0.5375170000000  0.4796330000000  0.5176540000000 1.0
C      1  0.5375170000000  0.5157270000000  0.4815600000000 1.0
C      1  0.4573310000000  0.4796330000000  0.4815600000000 1.0
C      1  0.4573310000000  0.5157270000000  0.5176540000000 1.0
C      1  0.4701630000000  0.4976800000000  0.4996070000000 1.0
C      1  0.5246840000000  0.4976800000000  0.4996070000000 1.0
C      1  0.4974240000000  0.4976800000000  0.4996070000000 1.0
END
