TITL C-21834-7520-7 -0.136653876194922 125000 -470.171849486027 0 0 70 (C1) n - 1
REM
REM in /rds/project/t2_vol4/rds-t2-cs072/BORA/CARBON/from-Arr/AIRSS/Generating-Clusters/GAP-ML-2020/Higher-Symm/SD-CG/HFTN-CG
REM
REM
REM
REM
REM
REM ./C.cell (b20cbc046b6831c77cfcea5457e17084)
REM AIRSS Version 0.9.1 bugfix July 2018 build 013d7b7c2542+ Fri, 06 Jul 2018 19:26:36 +0100
REM compiler GCC version 9.3.0
REM options -cpp -mtune=generic -march=x86-64 -g -O0
REM seed -1405755076 -1271648232 1853457614 493410158 1996025188 451507384 460943041 -2057595705 -864951350 -1132660178 1406777249 -1813415567 1165881236 1574799630 -2075429391 1270090701 -778409715 -520848123 -1193793647 739481805 -570084072 -884921667 2121277480 -707258099 -993277173 -480494738 -1163653852 -1172193989 -1926748666 -337161321 1398446846 2087270558 -833981077
REM
CELL 1.54180   50.00000   50.00000   50.00000   90.00000   90.00000   90.00000
LATT -1
SFAC C  
C      1  0.5257980000000  0.5688370000000  0.5083260000000 1.0
C      1  0.4912620000000  0.4305890000000  0.5238560000000 1.0
C      1  0.4765070000000  0.5682630000000  0.4897310000000 1.0
C      1  0.5098040000000  0.4326590000000  0.4746310000000 1.0
C      1  0.4971570000000  0.5251550000000  0.5227650000000 1.0
C      1  0.4769420000000  0.4746680000000  0.4971330000000 1.0
C      1  0.5021980000000  0.5241020000000  0.4779140000000 1.0
C      1  0.5215700000000  0.4762770000000  0.5021660000000 1.0
C      1  0.5265700000000  0.5610970000000  0.5368520000000 1.0
C      1  0.4624070000000  0.4378650000000  0.5249630000000 1.0
C      1  0.4745420000000  0.5604960000000  0.4606940000000 1.0
C      1  0.5385610000000  0.4408750000000  0.4732030000000 1.0
C      1  0.4613500000000  0.4676400000000  0.5552810000000 1.0
C      1  0.4437090000000  0.5319550000000  0.4611820000000 1.0
C      1  0.5377430000000  0.4691690000000  0.4422960000000 1.0
C      1  0.5566620000000  0.5311970000000  0.5377350000000 1.0
C      1  0.4953670000000  0.4525050000000  0.4541370000000 1.0
C      1  0.5457780000000  0.5479840000000  0.4949730000000 1.0
C      1  0.5040300000000  0.4522420000000  0.5431820000000 1.0
C      1  0.4567050000000  0.5472560000000  0.5034260000000 1.0
C      1  0.4604010000000  0.4941720000000  0.5432980000000 1.0
C      1  0.4554100000000  0.5056720000000  0.4606470000000 1.0
C      1  0.5383730000000  0.4943820000000  0.4559620000000 1.0
C      1  0.5429840000000  0.5056480000000  0.5388020000000 1.0
C      1  0.4420520000000  0.5114170000000  0.5298780000000 1.0
C      1  0.4687090000000  0.4887940000000  0.4423800000000 1.0
C      1  0.5567280000000  0.5113540000000  0.4691090000000 1.0
C      1  0.5298940000000  0.4881810000000  0.5569570000000 1.0
C      1  0.4513170000000  0.4428320000000  0.5496540000000 1.0
C      1  0.4500390000000  0.5558460000000  0.4491410000000 1.0
C      1  0.5497730000000  0.4452870000000  0.4484920000000 1.0
C      1  0.5514440000000  0.5561440000000  0.5475700000000 1.0
C      1  0.4624460000000  0.5002730000000  0.4900820000000 1.0
C      1  0.5091540000000  0.4989240000000  0.4636990000000 1.0
C      1  0.5354340000000  0.5016350000000  0.5095260000000 1.0
C      1  0.4898690000000  0.4992960000000  0.5369620000000 1.0
C      1  0.4500180000000  0.5386250000000  0.5321030000000 1.0
C      1  0.4669520000000  0.4613500000000  0.4492020000000 1.0
C      1  0.5510250000000  0.5388840000000  0.4668270000000 1.0
C      1  0.5323160000000  0.4608490000000  0.5503040000000 1.0
C      1  0.4341750000000  0.5068040000000  0.5017480000000 1.0
C      1  0.4961140000000  0.4951240000000  0.4360650000000 1.0
C      1  0.5630590000000  0.5051760000000  0.4965200000000 1.0
C      1  0.5018740000000  0.4929000000000  0.5649970000000 1.0
C      1  0.4921470000000  0.5156220000000  0.5794510000000 1.0
C      1  0.4211380000000  0.4842260000000  0.4900690000000 1.0
C      1  0.5015350000000  0.5237340000000  0.4303330000000 1.0
C      1  0.5692920000000  0.4767090000000  0.5016940000000 1.0
C      1  0.5576810000000  0.4508960000000  0.5463410000000 1.0
C      1  0.4596440000000  0.5455480000000  0.5562480000000 1.0
C      1  0.4422750000000  0.4534110000000  0.4569400000000 1.0
C      1  0.5468950000000  0.5487610000000  0.4413660000000 1.0
C      1  0.5012350000000  0.5467250000000  0.5420620000000 1.0
C      1  0.4577060000000  0.4529450000000  0.5002290000000 1.0
C      1  0.4970960000000  0.5422230000000  0.4549220000000 1.0
C      1  0.5447360000000  0.4584930000000  0.4964170000000 1.0
C      1  0.4884550000000  0.4654140000000  0.5640950000000 1.0
C      1  0.4351280000000  0.5344850000000  0.4883800000000 1.0
C      1  0.5103560000000  0.4678540000000  0.4337210000000 1.0
C      1  0.5654820000000  0.5322700000000  0.5104280000000 1.0
C      1  0.5216060000000  0.5413050000000  0.4365210000000 1.0
C      1  0.5627340000000  0.4587980000000  0.5212120000000 1.0
C      1  0.4846640000000  0.5392060000000  0.5658920000000 1.0
C      1  0.4346290000000  0.4606580000000  0.4825300000000 1.0
C      1  0.4972470000000  0.4754470000000  0.5211400000000 1.0
C      1  0.4785130000000  0.5240480000000  0.4975990000000 1.0
C      1  0.5016570000000  0.4747510000000  0.4787890000000 1.0
C      1  0.5206820000000  0.5257920000000  0.5021300000000 1.0
C      1  0.5006630000000  0.4256980000000  0.4990520000000 1.0
C      1  0.5009340000000  0.5745850000000  0.4989670000000 1.0
END
