TITL C-21852-7602-7 -287.103520548104 125000 -1152.11163451815 0 0 168 (C6) n - 1
REM
REM in /rds/project/t2_vol4/rds-t2-cs072/BORA/CARBON/from-Arr/AIRSS/Generating-Clusters/GAP-ML-2020/Higher-Symm/SD-CG/HFTN-CG
REM
REM
REM
REM
REM
REM ./C.cell (b20cbc046b6831c77cfcea5457e17084)
REM AIRSS Version 0.9.1 bugfix July 2018 build 013d7b7c2542+ Fri, 06 Jul 2018 19:26:36 +0100
REM compiler GCC version 9.3.0
REM options -cpp -mtune=generic -march=x86-64 -g -O0
REM seed 1370779797 880947897 1345711841 856776247 563671788 201063645 1156019694 475110806 171106099 358396199 -301484051 270395529 1332911845 106226386 366457897 -1259165001 -659271238 304436952 -1490375477 1796960662 -1628959365 124104292 123120330 -336805809 -404211923 1130958243 -1237563183 -2018136958 -644617535 -922855628 -265522104 -429273186 -124972459
REM
CELL 1.54180   50.00000   50.00000   50.00000   90.00000   90.00000   90.00000
LATT -1
SFAC C  
C      1  0.4970360000000  0.5847920000000  0.4500250000000 1.0
C      1  0.4552390000000  0.5847920000000  0.4775770000000 1.0
C      1  0.4582010000000  0.5847930000000  0.5275500000000 1.0
C      1  0.5029600000000  0.5847950000000  0.5499710000000 1.0
C      1  0.5447570000000  0.5847950000000  0.5224190000000 1.0
C      1  0.5417950000000  0.5847940000000  0.4724460000000 1.0
C      1  0.4970440000000  0.4152080000000  0.5499750000000 1.0
C      1  0.4552450000000  0.4152060000000  0.5224270000000 1.0
C      1  0.4582030000000  0.4152050000000  0.4724540000000 1.0
C      1  0.5029600000000  0.4152050000000  0.4500290000000 1.0
C      1  0.5447590000000  0.4152070000000  0.4775770000000 1.0
C      1  0.5418010000000  0.4152080000000  0.5275510000000 1.0
C      1  0.4550690000000  0.4264850000000  0.5663970000000 1.0
C      1  0.5350350000000  0.4264870000000  0.5721130000000 1.0
C      1  0.5799680000000  0.4264860000000  0.5057170000000 1.0
C      1  0.5449350000000  0.4264840000000  0.4336070000000 1.0
C      1  0.4649680000000  0.4264810000000  0.4278910000000 1.0
C      1  0.4200350000000  0.4264820000000  0.4942860000000 1.0
C      1  0.4550600000000  0.5735130000000  0.4336070000000 1.0
C      1  0.5350260000000  0.5735150000000  0.4278850000000 1.0
C      1  0.5799640000000  0.5735180000000  0.4942760000000 1.0
C      1  0.5449370000000  0.5735190000000  0.5663900000000 1.0
C      1  0.4649710000000  0.5735170000000  0.5721120000000 1.0
C      1  0.4200320000000  0.5735140000000  0.5057200000000 1.0
C      1  0.4105400000000  0.5335330000000  0.5027550000000 1.0
C      1  0.4576570000000  0.5335370000000  0.5788510000000 1.0
C      1  0.5471150000000  0.5335390000000  0.5760950000000 1.0
C      1  0.5894580000000  0.5335380000000  0.4972430000000 1.0
C      1  0.5423420000000  0.5335350000000  0.4211480000000 1.0
C      1  0.4528830000000  0.5335330000000  0.4239040000000 1.0
C      1  0.4105420000000  0.4664620000000  0.4972520000000 1.0
C      1  0.4576520000000  0.4664610000000  0.4211530000000 1.0
C      1  0.5471110000000  0.4664640000000  0.4239010000000 1.0
C      1  0.5894600000000  0.4664670000000  0.5027500000000 1.0
C      1  0.5423500000000  0.4664670000000  0.5788490000000 1.0
C      1  0.4528910000000  0.4664650000000  0.5761000000000 1.0
C      1  0.5732580000000  0.5111180000000  0.5104890000000 1.0
C      1  0.5457130000000  0.5111150000000  0.4418000000000 1.0
C      1  0.4724540000000  0.5111130000000  0.4313110000000 1.0
C      1  0.4267410000000  0.5111140000000  0.4895110000000 1.0
C      1  0.4542870000000  0.5111160000000  0.5581990000000 1.0
C      1  0.5275460000000  0.5111180000000  0.5686880000000 1.0
C      1  0.5732580000000  0.4888860000000  0.4895050000000 1.0
C      1  0.5457180000000  0.4888870000000  0.5581960000000 1.0
C      1  0.4724600000000  0.4888850000000  0.5686910000000 1.0
C      1  0.4267420000000  0.4888830000000  0.5104950000000 1.0
C      1  0.4542830000000  0.4888820000000  0.4418050000000 1.0
C      1  0.5275400000000  0.4888830000000  0.4313100000000 1.0
C      1  0.5803820000000  0.5406100000000  0.4469070000000 1.0
C      1  0.4942110000000  0.5406070000000  0.4038400000000 1.0
C      1  0.4138290000000  0.5406060000000  0.4569320000000 1.0
C      1  0.4196170000000  0.5406090000000  0.5530910000000 1.0
C      1  0.5057870000000  0.5406120000000  0.5961580000000 1.0
C      1  0.5861690000000  0.5406130000000  0.5430660000000 1.0
C      1  0.5803880000000  0.4593940000000  0.5530870000000 1.0
C      1  0.4942210000000  0.4593930000000  0.5961610000000 1.0
C      1  0.4138340000000  0.4593890000000  0.5430750000000 1.0
C      1  0.4196140000000  0.4593870000000  0.4469150000000 1.0
C      1  0.5057810000000  0.4593880000000  0.4038410000000 1.0
C      1  0.5861680000000  0.4593920000000  0.4569270000000 1.0
C      1  0.4726510000000  0.5545720000000  0.4185090000000 1.0
C      1  0.4157530000000  0.5545730000000  0.4829370000000 1.0
C      1  0.4431010000000  0.5545750000000  0.5644270000000 1.0
C      1  0.5273460000000  0.5545780000000  0.5814880000000 1.0
C      1  0.5842440000000  0.5545780000000  0.5170600000000 1.0
C      1  0.5568970000000  0.5545750000000  0.4355710000000 1.0
C      1  0.4726610000000  0.4454260000000  0.5814930000000 1.0
C      1  0.4157570000000  0.4454230000000  0.5170690000000 1.0
C      1  0.4430980000000  0.4454220000000  0.4355780000000 1.0
C      1  0.5273420000000  0.4454240000000  0.4185100000000 1.0
C      1  0.5842450000000  0.4454270000000  0.4829330000000 1.0
C      1  0.5569050000000  0.4454280000000  0.5644250000000 1.0
C      1  0.4954650000000  0.5372200000000  0.4694580000000 1.0
C      1  0.4712820000000  0.5372200000000  0.4886550000000 1.0
C      1  0.4758170000000  0.5372210000000  0.5191970000000 1.0
C      1  0.5045330000000  0.5372220000000  0.5305410000000 1.0
C      1  0.5287160000000  0.5372220000000  0.5113430000000 1.0
C      1  0.5241820000000  0.5372210000000  0.4808020000000 1.0
C      1  0.4954690000000  0.4627800000000  0.5305430000000 1.0
C      1  0.4712850000000  0.4627790000000  0.5113470000000 1.0
C      1  0.4758170000000  0.4627780000000  0.4808050000000 1.0
C      1  0.5045330000000  0.4627780000000  0.4694590000000 1.0
C      1  0.5287170000000  0.4627790000000  0.4886550000000 1.0
C      1  0.5241850000000  0.4627800000000  0.5191960000000 1.0
C      1  0.5112520000000  0.5092160000000  0.5438250000000 1.0
C      1  0.5435790000000  0.5092160000000  0.5121680000000 1.0
C      1  0.5323270000000  0.5092140000000  0.4683430000000 1.0
C      1  0.4887480000000  0.5092130000000  0.4561750000000 1.0
C      1  0.4564200000000  0.5092130000000  0.4878320000000 1.0
C      1  0.4676720000000  0.5092140000000  0.5316570000000 1.0
C      1  0.5112480000000  0.4907850000000  0.4561740000000 1.0
C      1  0.5435790000000  0.4907860000000  0.4878290000000 1.0
C      1  0.5323300000000  0.4907870000000  0.5316540000000 1.0
C      1  0.4887520000000  0.4907860000000  0.5438260000000 1.0
C      1  0.4564220000000  0.4907850000000  0.5121720000000 1.0
C      1  0.4676700000000  0.4907840000000  0.4683460000000 1.0
C      1  0.3858130000000  0.5042400000000  0.4787280000000 1.0
C      1  0.4244850000000  0.5042440000000  0.5882530000000 1.0
C      1  0.5386720000000  0.5042470000000  0.6095240000000 1.0
C      1  0.6141870000000  0.5042470000000  0.5212720000000 1.0
C      1  0.5755150000000  0.5042430000000  0.4117470000000 1.0
C      1  0.4613280000000  0.5042400000000  0.3904750000000 1.0
C      1  0.3858150000000  0.4957540000000  0.5212810000000 1.0
C      1  0.4244780000000  0.4957520000000  0.4117530000000 1.0
C      1  0.5386630000000  0.4957550000000  0.3904720000000 1.0
C      1  0.6141850000000  0.4957590000000  0.4787190000000 1.0
C      1  0.5755230000000  0.4957600000000  0.5882470000000 1.0
C      1  0.4613370000000  0.4957580000000  0.6095280000000 1.0
C      1  0.5775730000000  0.4897020000000  0.5585540000000 1.0
C      1  0.5894950000000  0.4897000000000  0.4620970000000 1.0
C      1  0.5119230000000  0.4896960000000  0.4035440000000 1.0
C      1  0.4224280000000  0.4896950000000  0.4414470000000 1.0
C      1  0.4105050000000  0.4896970000000  0.5379030000000 1.0
C      1  0.4880780000000  0.4897010000000  0.5964570000000 1.0
C      1  0.5775680000000  0.5103020000000  0.4414400000000 1.0
C      1  0.5894980000000  0.5103050000000  0.5378960000000 1.0
C      1  0.5119300000000  0.5103040000000  0.5964550000000 1.0
C      1  0.4224320000000  0.5103010000000  0.5585590000000 1.0
C      1  0.4105020000000  0.5102980000000  0.4621040000000 1.0
C      1  0.4880700000000  0.5102990000000  0.4035440000000 1.0
C      1  0.4521860000000  0.5552900000000  0.5321960000000 1.0
C      1  0.5039760000000  0.5552920000000  0.5575040000000 1.0
C      1  0.5517890000000  0.5552920000000  0.5253070000000 1.0
C      1  0.5478110000000  0.5552910000000  0.4678020000000 1.0
C      1  0.4960220000000  0.5552890000000  0.4424930000000 1.0
C      1  0.4482090000000  0.5552890000000  0.4746900000000 1.0
C      1  0.4521860000000  0.4447070000000  0.4678080000000 1.0
C      1  0.5039740000000  0.4447080000000  0.4424950000000 1.0
C      1  0.5517890000000  0.4447100000000  0.4746890000000 1.0
C      1  0.5478170000000  0.4447110000000  0.5321940000000 1.0
C      1  0.4960290000000  0.4447110000000  0.5575070000000 1.0
C      1  0.4482140000000  0.4447090000000  0.5253140000000 1.0
C      1  0.5610790000000  0.4495900000000  0.4449130000000 1.0
C      1  0.4828320000000  0.4495880000000  0.4195620000000 1.0
C      1  0.4217540000000  0.4495870000000  0.4746500000000 1.0
C      1  0.4389230000000  0.4495900000000  0.5550900000000 1.0
C      1  0.5171700000000  0.4495920000000  0.5804410000000 1.0
C      1  0.5782480000000  0.4495920000000  0.5253520000000 1.0
C      1  0.5610810000000  0.5504130000000  0.5550820000000 1.0
C      1  0.4828370000000  0.5504120000000  0.5804390000000 1.0
C      1  0.4217540000000  0.5504090000000  0.5253560000000 1.0
C      1  0.4389160000000  0.5504070000000  0.4449150000000 1.0
C      1  0.5171610000000  0.5504090000000  0.4195580000000 1.0
C      1  0.5782440000000  0.5504110000000  0.4746410000000 1.0
C      1  0.5547850000000  0.4092960000000  0.5033920000000 1.0
C      1  0.5303290000000  0.4092950000000  0.4542540000000 1.0
C      1  0.4755460000000  0.4092930000000  0.4508640000000 1.0
C      1  0.4452190000000  0.4092930000000  0.4966120000000 1.0
C      1  0.4696750000000  0.4092950000000  0.5457510000000 1.0
C      1  0.5244580000000  0.4092970000000  0.5491400000000 1.0
C      1  0.5547800000000  0.5907060000000  0.4966040000000 1.0
C      1  0.5303290000000  0.5907070000000  0.5457440000000 1.0
C      1  0.4755460000000  0.5907060000000  0.5491380000000 1.0
C      1  0.4452150000000  0.5907040000000  0.5033920000000 1.0
C      1  0.4696670000000  0.5907030000000  0.4542520000000 1.0
C      1  0.5244500000000  0.5907040000000  0.4508580000000 1.0
C      1  0.6145110000000  0.4811940000000  0.5032180000000 1.0
C      1  0.5600430000000  0.4811910000000  0.4024400000000 1.0
C      1  0.4455320000000  0.4811880000000  0.3992220000000 1.0
C      1  0.3854900000000  0.4811890000000  0.4967830000000 1.0
C      1  0.4399580000000  0.4811920000000  0.5975610000000 1.0
C      1  0.5544690000000  0.4811950000000  0.6007780000000 1.0
C      1  0.6145100000000  0.5188110000000  0.4967720000000 1.0
C      1  0.5600500000000  0.5188120000000  0.5975550000000 1.0
C      1  0.4455390000000  0.5188100000000  0.6007820000000 1.0
C      1  0.3854890000000  0.5188060000000  0.5032270000000 1.0
C      1  0.4399490000000  0.5188050000000  0.4024440000000 1.0
C      1  0.5544600000000  0.5188070000000  0.3992170000000 1.0
END
