TITL C-21989-5674-11 0.0443464408173638 125000 -469.55519636413 0 0 68 (C1) n - 1
REM
REM in /rds/project/t2_vol4/rds-t2-cs072/BORA/CARBON/from-Arr/AIRSS/Generating-Clusters/GAP-ML-2020/Higher-Symm/SD-CG/HFTN-CG
REM
REM
REM
REM
REM
REM ./C.cell (b20cbc046b6831c77cfcea5457e17084)
REM AIRSS Version 0.9.1 bugfix July 2018 build 013d7b7c2542+ Fri, 06 Jul 2018 19:26:36 +0100
REM compiler GCC version 9.3.0
REM options -cpp -mtune=generic -march=x86-64 -g -O0
REM seed 2123330842 1081858067 -307084081 1750328474 541883273 -1444811252 276260854 -1415937318 1136239874 -1058771315 1434539999 -406862620 921515672 -322393891 -1726999434 -695289746 473901437 919298974 -246893425 78917404 -899737583 855568385 1342896159 1888652244 752738355 -1220218666 -1731240451 -1928765310 -169353048 423605673 592562126 -606485977 -1936443396
REM
CELL 1.54180   50.00000   50.00000   50.00000   90.00000   90.00000   90.00000
LATT -1
SFAC C  
C      1  0.4804160000000  0.4262070000000  0.5316380000000 1.0
C      1  0.5225440000000  0.4284260000000  0.5348190000000 1.0
C      1  0.5543700000000  0.4618030000000  0.4771910000000 1.0
C      1  0.4460440000000  0.4627020000000  0.4763860000000 1.0
C      1  0.5683290000000  0.4843190000000  0.4902270000000 1.0
C      1  0.4290160000000  0.4829020000000  0.4884790000000 1.0
C      1  0.4581590000000  0.5478750000000  0.4912000000000 1.0
C      1  0.5478290000000  0.5577700000000  0.4894540000000 1.0
C      1  0.5472350000000  0.4721040000000  0.5298860000000 1.0
C      1  0.4517850000000  0.4693070000000  0.5263440000000 1.0
C      1  0.5643950000000  0.4914250000000  0.5175060000000 1.0
C      1  0.4317000000000  0.4875550000000  0.5167910000000 1.0
C      1  0.4773010000000  0.4625960000000  0.4378660000000 1.0
C      1  0.5235900000000  0.4627740000000  0.4368500000000 1.0
C      1  0.5220140000000  0.4861780000000  0.5294470000000 1.0
C      1  0.4748960000000  0.4864350000000  0.5248790000000 1.0
C      1  0.5237940000000  0.5191110000000  0.4536960000000 1.0
C      1  0.4774520000000  0.5199490000000  0.4535170000000 1.0
C      1  0.5157490000000  0.5474890000000  0.4495240000000 1.0
C      1  0.4865300000000  0.5484580000000  0.4493320000000 1.0
C      1  0.5394790000000  0.5615840000000  0.5176210000000 1.0
C      1  0.4646680000000  0.5530030000000  0.5198610000000 1.0
C      1  0.5151660000000  0.4993680000000  0.5019020000000 1.0
C      1  0.4847240000000  0.5009150000000  0.5012380000000 1.0
C      1  0.4589860000000  0.4415950000000  0.5209270000000 1.0
C      1  0.5423010000000  0.4449380000000  0.5221940000000 1.0
C      1  0.5193390000000  0.5016420000000  0.5541020000000 1.0
C      1  0.4782150000000  0.5061420000000  0.5760020000000 1.0
C      1  0.5483010000000  0.5019010000000  0.4525280000000 1.0
C      1  0.4526440000000  0.5031130000000  0.4534540000000 1.0
C      1  0.4728190000000  0.5280090000000  0.5591650000000 1.0
C      1  0.5236180000000  0.5291820000000  0.5516220000000 1.0
C      1  0.5262740000000  0.5654860000000  0.4690780000000 1.0
C      1  0.4752170000000  0.5649000000000  0.4703180000000 1.0
C      1  0.5557020000000  0.5298890000000  0.4909140000000 1.0
C      1  0.4359160000000  0.5290080000000  0.4930580000000 1.0
C      1  0.5655660000000  0.5078250000000  0.4742350000000 1.0
C      1  0.4335710000000  0.5073080000000  0.4744770000000 1.0
C      1  0.4529220000000  0.5337270000000  0.5368700000000 1.0
C      1  0.5440280000000  0.5382090000000  0.5337490000000 1.0
C      1  0.5406140000000  0.4426100000000  0.4936920000000 1.0
C      1  0.4640240000000  0.4488360000000  0.4941570000000 1.0
C      1  0.5599990000000  0.5201140000000  0.5187130000000 1.0
C      1  0.4359050000000  0.5170270000000  0.5195980000000 1.0
C      1  0.4560990000000  0.4745620000000  0.4518150000000 1.0
C      1  0.5447480000000  0.4735510000000  0.4518200000000 1.0
C      1  0.4797140000000  0.5260520000000  0.4862540000000 1.0
C      1  0.5246300000000  0.5227470000000  0.4872440000000 1.0
C      1  0.4861350000000  0.4356880000000  0.4430380000000 1.0
C      1  0.5152650000000  0.4354710000000  0.4397380000000 1.0
C      1  0.5028870000000  0.5419880000000  0.4956490000000 1.0
C      1  0.4938050000000  0.5540770000000  0.5250190000000 1.0
C      1  0.5004050000000  0.4788690000000  0.4338390000000 1.0
C      1  0.4986550000000  0.4887080000000  0.5693810000000 1.0
C      1  0.5000980000000  0.4820050000000  0.4865880000000 1.0
C      1  0.5115010000000  0.4324450000000  0.4898920000000 1.0
C      1  0.5093390000000  0.6212950000000  0.5015550000000 1.0
C      1  0.5039250000000  0.4179630000000  0.5157160000000 1.0
C      1  0.5003860000000  0.5055990000000  0.4428180000000 1.0
C      1  0.5071050000000  0.5951430000000  0.5031350000000 1.0
C      1  0.4979220000000  0.4684660000000  0.5292500000000 1.0
C      1  0.4997620000000  0.4356840000000  0.5535480000000 1.0
C      1  0.5152740000000  0.5752660000000  0.5227240000000 1.0
C      1  0.5041530000000  0.4233890000000  0.4622560000000 1.0
C      1  0.4940100000000  0.4561990000000  0.4972550000000 1.0
C      1  0.4962560000000  0.4618160000000  0.5586360000000 1.0
C      1  0.4974930000000  0.5395890000000  0.5490760000000 1.0
C      1  0.5011500000000  0.5728430000000  0.4825490000000 1.0
END
