TITL C-214951-4107-3 -36.8549763600672 125000 -830.231659140941 0 0 120 (C1) n - 1
REM
REM in /rds/project/t2_vol4/rds-t2-cs072/BORA/CARBON/from-Arr/AIRSS/Generating-Clusters/GAP-ML-2020/Higher-Symm/SD-CG/HFTN-CG
REM
REM
REM
REM
REM
REM ./C.cell (b20cbc046b6831c77cfcea5457e17084)
REM AIRSS Version 0.9.1 bugfix July 2018 build 013d7b7c2542+ Fri, 06 Jul 2018 19:26:36 +0100
REM compiler GCC version 9.3.0
REM options -cpp -mtune=generic -march=x86-64 -g -O0
REM seed 617392191 -997942523 575480988 -1394687547 1015930009 941770914 477481582 -1854948198 41539006 -2007451249 1150163209 1003601551 741620276 691475881 1194847564 -2029677623 1985622020 1581011905 469043126 2069963082 -1863656001 -1110864985 21203967 -917884703 -1603389195 -2042034900 1337034368 -741140065 399995458 1968729227 1374285985 1131770080 -446443703
REM
CELL 1.54180   50.00000   50.00000   50.00000   90.00000   90.00000   90.00000
LATT -1
SFAC C  
C      1  0.4594930000000  0.4265380000000  0.4671400000000 1.0
C      1  0.4611040000000  0.5340630000000  0.4241200000000 1.0
C      1  0.4603990000000  0.5733950000000  0.5344640000000 1.0
C      1  0.4622300000000  0.4665540000000  0.5767070000000 1.0
C      1  0.5070440000000  0.5820340000000  0.5015810000000 1.0
C      1  0.5102230000000  0.4983960000000  0.5832320000000 1.0
C      1  0.5062800000000  0.4182420000000  0.4994420000000 1.0
C      1  0.5078290000000  0.5016620000000  0.4175180000000 1.0
C      1  0.4863490000000  0.5467610000000  0.4236170000000 1.0
C      1  0.4860650000000  0.5759510000000  0.5466890000000 1.0
C      1  0.4871970000000  0.4533940000000  0.5772820000000 1.0
C      1  0.4849380000000  0.4243840000000  0.4545420000000 1.0
C      1  0.5352330000000  0.4600600000000  0.5563950000000 1.0
C      1  0.5339200000000  0.4442980000000  0.4609850000000 1.0
C      1  0.5347750000000  0.5399010000000  0.4437450000000 1.0
C      1  0.5355510000000  0.5559740000000  0.5396640000000 1.0
C      1  0.4801150000000  0.5849410000000  0.4905190000000 1.0
C      1  0.4845080000000  0.5105370000000  0.5876140000000 1.0
C      1  0.4794470000000  0.4156300000000  0.5110620000000 1.0
C      1  0.4815910000000  0.4899420000000  0.4141070000000 1.0
C      1  0.5297920000000  0.5691300000000  0.4558680000000 1.0
C      1  0.5318580000000  0.5438900000000  0.5686020000000 1.0
C      1  0.5297190000000  0.4308810000000  0.5442920000000 1.0
C      1  0.5299990000000  0.4559040000000  0.4317530000000 1.0
C      1  0.4999960000000  0.4779590000000  0.5370160000000 1.0
C      1  0.4994180000000  0.4642570000000  0.4785560000000 1.0
C      1  0.5000540000000  0.5222780000000  0.4636260000000 1.0
C      1  0.5006080000000  0.5365830000000  0.5229430000000 1.0
C      1  0.5557360000000  0.5005010000000  0.4253200000000 1.0
C      1  0.5556000000000  0.5744120000000  0.4999700000000 1.0
C      1  0.5577290000000  0.4991110000000  0.5741450000000 1.0
C      1  0.5548060000000  0.4258370000000  0.5000090000000 1.0
C      1  0.4491990000000  0.5350220000000  0.5644710000000 1.0
C      1  0.4463180000000  0.4404420000000  0.5376540000000 1.0
C      1  0.4478360000000  0.4636650000000  0.4363220000000 1.0
C      1  0.4472020000000  0.5629640000000  0.4631920000000 1.0
C      1  0.5844420000000  0.4681400000000  0.5547920000000 1.0
C      1  0.5823360000000  0.4445040000000  0.4677780000000 1.0
C      1  0.5835880000000  0.5315380000000  0.4440870000000 1.0
C      1  0.5836770000000  0.5552500000000  0.5311880000000 1.0
C      1  0.5945780000000  0.5323290000000  0.5193620000000 1.0
C      1  0.5947730000000  0.4798010000000  0.5315530000000 1.0
C      1  0.5937300000000  0.4673370000000  0.4793650000000 1.0
C      1  0.5941720000000  0.5198460000000  0.4671690000000 1.0
C      1  0.4547860000000  0.4797160000000  0.4972530000000 1.0
C      1  0.4555560000000  0.5052190000000  0.4795830000000 1.0
C      1  0.4555500000000  0.5213090000000  0.5062730000000 1.0
C      1  0.4548150000000  0.4962630000000  0.5235440000000 1.0
C      1  0.4892760000000  0.4771260000000  0.4558940000000 1.0
C      1  0.4897900000000  0.5441610000000  0.4776510000000 1.0
C      1  0.4907600000000  0.5232010000000  0.5457400000000 1.0
C      1  0.4894360000000  0.4557550000000  0.5237950000000 1.0
C      1  0.4424600000000  0.4619480000000  0.5563750000000 1.0
C      1  0.4423100000000  0.4479000000000  0.4595260000000 1.0
C      1  0.4432110000000  0.5414600000000  0.4448700000000 1.0
C      1  0.4429990000000  0.5520780000000  0.5424000000000 1.0
C      1  0.4807990000000  0.4662690000000  0.4995390000000 1.0
C      1  0.4808770000000  0.5018700000000  0.4651820000000 1.0
C      1  0.4813570000000  0.5347610000000  0.5025350000000 1.0
C      1  0.4810210000000  0.4985590000000  0.5371370000000 1.0
C      1  0.4890540000000  0.4376360000000  0.4291150000000 1.0
C      1  0.4889540000000  0.5716260000000  0.4383430000000 1.0
C      1  0.4903940000000  0.5628170000000  0.5721500000000 1.0
C      1  0.4889930000000  0.4288040000000  0.5625540000000 1.0
C      1  0.4583620000000  0.5056640000000  0.4177820000000 1.0
C      1  0.4569010000000  0.5785570000000  0.5059790000000 1.0
C      1  0.4616360000000  0.4944300000000  0.5843190000000 1.0
C      1  0.4563330000000  0.4204540000000  0.4954470000000 1.0
C      1  0.4354330000000  0.5644550000000  0.4892450000000 1.0
C      1  0.4415680000000  0.5081130000000  0.5696500000000 1.0
C      1  0.4353900000000  0.4350420000000  0.5112400000000 1.0
C      1  0.4370750000000  0.4895240000000  0.4310890000000 1.0
C      1  0.5910020000000  0.5085210000000  0.5354200000000 1.0
C      1  0.5898830000000  0.4636260000000  0.5080490000000 1.0
C      1  0.5900080000000  0.4911440000000  0.4633180000000 1.0
C      1  0.5901840000000  0.5361760000000  0.4907750000000 1.0
C      1  0.5420080000000  0.4935860000000  0.4682660000000 1.0
C      1  0.5424170000000  0.5313690000000  0.4933120000000 1.0
C      1  0.5427030000000  0.5063130000000  0.5315250000000 1.0
C      1  0.5420630000000  0.4692440000000  0.5068290000000 1.0
C      1  0.4740960000000  0.4310360000000  0.5369420000000 1.0
C      1  0.4757410000000  0.4640750000000  0.4292310000000 1.0
C      1  0.4748610000000  0.5708260000000  0.4644150000000 1.0
C      1  0.4774260000000  0.5361780000000  0.5721060000000 1.0
C      1  0.5310430000000  0.5295880000000  0.5197160000000 1.0
C      1  0.5304450000000  0.4803100000000  0.5303760000000 1.0
C      1  0.5300550000000  0.4708040000000  0.4806900000000 1.0
C      1  0.5306630000000  0.5198890000000  0.4700140000000 1.0
C      1  0.5303550000000  0.4219710000000  0.5149610000000 1.0
C      1  0.5311080000000  0.4855560000000  0.4219750000000 1.0
C      1  0.5307900000000  0.5781280000000  0.4854230000000 1.0
C      1  0.5334370000000  0.5143230000000  0.5781980000000 1.0
C      1  0.5137290000000  0.4387160000000  0.4175000000000 1.0
C      1  0.5131760000000  0.5840970000000  0.4395640000000 1.0
C      1  0.5153170000000  0.5605060000000  0.5828930000000 1.0
C      1  0.5128840000000  0.4159430000000  0.5602350000000 1.0
C      1  0.5082980000000  0.5285780000000  0.4298740000000 1.0
C      1  0.5081970000000  0.5695540000000  0.5284480000000 1.0
C      1  0.5096280000000  0.4712870000000  0.5711220000000 1.0
C      1  0.5069580000000  0.4307750000000  0.4726900000000 1.0
C      1  0.4131050000000  0.4505530000000  0.4998280000000 1.0
C      1  0.4156800000000  0.5001700000000  0.4471510000000 1.0
C      1  0.4145430000000  0.5450600000000  0.4988520000000 1.0
C      1  0.4053940000000  0.4949860000000  0.5383640000000 1.0
C      1  0.4332400000000  0.5387470000000  0.5188780000000 1.0
C      1  0.4310080000000  0.4894840000000  0.5490410000000 1.0
C      1  0.4339800000000  0.4612100000000  0.4840800000000 1.0
C      1  0.4353570000000  0.5173940000000  0.4579570000000 1.0
C      1  0.5657010000000  0.5503530000000  0.4882000000000 1.0
C      1  0.5668060000000  0.5112000000000  0.5499060000000 1.0
C      1  0.5652180000000  0.4499380000000  0.5113440000000 1.0
C      1  0.5654880000000  0.4883990000000  0.4493260000000 1.0
C      1  0.4004590000000  0.4761120000000  0.4926420000000 1.0
C      1  0.4015580000000  0.4982690000000  0.4716500000000 1.0
C      1  0.4008290000000  0.5195450000000  0.4928670000000 1.0
C      1  0.3974810000000  0.4979000000000  0.5130830000000 1.0
C      1  0.5596780000000  0.5289080000000  0.4313910000000 1.0
C      1  0.5599940000000  0.5682840000000  0.5282040000000 1.0
C      1  0.5608050000000  0.4706060000000  0.5680000000000 1.0
C      1  0.5586420000000  0.4318030000000  0.4717060000000 1.0
END
