TITL C-21971-5654-8 8.2587631308613 125000 -46.526070362918 0 0 8 (C1) n - 1
REM
REM in /rds/project/t2_vol4/rds-t2-cs072/BORA/CARBON/from-Arr/AIRSS/Generating-Clusters/GAP-ML-2020/Higher-Symm/SD-CG/HFTN-CG
REM
REM
REM
REM
REM
REM ./C.cell (b20cbc046b6831c77cfcea5457e17084)
REM AIRSS Version 0.9.1 bugfix July 2018 build 013d7b7c2542+ Fri, 06 Jul 2018 19:26:36 +0100
REM compiler GCC version 9.3.0
REM options -cpp -mtune=generic -march=x86-64 -g -O0
REM seed -1347345535 2132608281 939036962 -1004105976 -2129448426 1340598470 1352897950 -1227706331 922793858 402566763 406976140 -1770801616 -656692516 1177070269 -913560216 75385772 -848846788 -424923889 -718328629 232494859 1045232426 -1560187682 -860339389 -1938971157 -633086008 -945181409 -1173692626 -785479943 -1655071378 -1163379589 -768964875 515518124 -1946818081
REM
CELL 1.54180   50.00000   50.00000   50.00000   90.00000   90.00000   90.00000
LATT -1
SFAC C  
C      1  0.5001500000000  0.5245970000000  0.5028240000000 1.0
C      1  0.4972490000000  0.5398010000000  0.4783900000000 1.0
C      1  0.5033890000000  0.5190930000000  0.4622320000000 1.0
C      1  0.5118350000000  0.5316940000000  0.5290860000000 1.0
C      1  0.4853230000000  0.5271290000000  0.5289390000000 1.0
C      1  0.5058690000000  0.4743260000000  0.4890230000000 1.0
C      1  0.5052130000000  0.5011810000000  0.4848820000000 1.0
C      1  0.4992470000000  0.4563600000000  0.5056790000000 1.0
END
