TITL C-21823-7513-6 -0.238786264907742 125000 -749.222232627931 0 0 109 (C1) n - 1
REM
REM in /rds/project/t2_vol4/rds-t2-cs072/BORA/CARBON/from-Arr/AIRSS/Generating-Clusters/GAP-ML-2020/Higher-Symm/SD-CG/HFTN-CG
REM
REM
REM
REM
REM
REM ./C.cell (b20cbc046b6831c77cfcea5457e17084)
REM AIRSS Version 0.9.1 bugfix July 2018 build 013d7b7c2542+ Fri, 06 Jul 2018 19:26:36 +0100
REM compiler GCC version 9.3.0
REM options -cpp -mtune=generic -march=x86-64 -g -O0
REM seed -1776679553 538556528 1200278708 1590662323 1125239775 -1781622992 -1476796913 1456886092 1899230307 1628581414 909783071 524052309 -603136316 1699986832 452974128 -1006698560 -1784839486 1620979741 -1476458311 454675655 -390952512 -208790914 -1019120730 1259189848 -345212772 323459201 -1798084571 -1412340296 1091526956 1342291979 -1835127030 -338981646 -1192842432
REM
CELL 1.54180   50.00000   50.00000   50.00000   90.00000   90.00000   90.00000
LATT -1
SFAC C  
C      1  0.5345490000000  0.4367780000000  0.4577720000000 1.0
C      1  0.5514520000000  0.4373910000000  0.5070800000000 1.0
C      1  0.5168090000000  0.4347130000000  0.5469180000000 1.0
C      1  0.4605740000000  0.4223910000000  0.5392320000000 1.0
C      1  0.4500230000000  0.4324270000000  0.4890560000000 1.0
C      1  0.4834480000000  0.4349110000000  0.4488020000000 1.0
C      1  0.5612170000000  0.5476900000000  0.5046920000000 1.0
C      1  0.5315380000000  0.5510820000000  0.5632050000000 1.0
C      1  0.4645730000000  0.5560260000000  0.5616110000000 1.0
C      1  0.4406430000000  0.5454750000000  0.4977600000000 1.0
C      1  0.4729530000000  0.5441970000000  0.4440720000000 1.0
C      1  0.5346720000000  0.5477490000000  0.4492900000000 1.0
C      1  0.4710570000000  0.4657270000000  0.5488420000000 1.0
C      1  0.4706010000000  0.4564110000000  0.4968570000000 1.0
C      1  0.4865930000000  0.4591260000000  0.4709690000000 1.0
C      1  0.5174460000000  0.4604240000000  0.4710180000000 1.0
C      1  0.5314090000000  0.4610580000000  0.4985830000000 1.0
C      1  0.5141100000000  0.4590890000000  0.5236110000000 1.0
C      1  0.5558060000000  0.4548250000000  0.4457490000000 1.0
C      1  0.5718980000000  0.4552020000000  0.5205770000000 1.0
C      1  0.5167820000000  0.4550000000000  0.5696450000000 1.0
C      1  0.4473290000000  0.4473710000000  0.5469880000000 1.0
C      1  0.4283220000000  0.4510200000000  0.4795170000000 1.0
C      1  0.4820480000000  0.4531180000000  0.4244220000000 1.0
C      1  0.5071420000000  0.4594020000000  0.4170700000000 1.0
C      1  0.5743840000000  0.4605080000000  0.4644180000000 1.0
C      1  0.5670040000000  0.4594030000000  0.5466050000000 1.0
C      1  0.4899030000000  0.4637230000000  0.5722920000000 1.0
C      1  0.4248800000000  0.4584130000000  0.5369170000000 1.0
C      1  0.4330030000000  0.4570000000000  0.4535990000000 1.0
C      1  0.4873640000000  0.5463250000000  0.4718190000000 1.0
C      1  0.5156230000000  0.5371060000000  0.4720650000000 1.0
C      1  0.5297700000000  0.5383690000000  0.4997070000000 1.0
C      1  0.5120310000000  0.5510430000000  0.5185590000000 1.0
C      1  0.4872180000000  0.5386020000000  0.5203670000000 1.0
C      1  0.4707350000000  0.5358800000000  0.4954760000000 1.0
C      1  0.5551220000000  0.5422860000000  0.5532760000000 1.0
C      1  0.4860580000000  0.5442540000000  0.5749140000000 1.0
C      1  0.4301500000000  0.5356020000000  0.5246430000000 1.0
C      1  0.4464490000000  0.5368310000000  0.4493120000000 1.0
C      1  0.5173930000000  0.5407210000000  0.4276430000000 1.0
C      1  0.5718700000000  0.5401050000000  0.4795990000000 1.0
C      1  0.5280450000000  0.5075400000000  0.4996060000000 1.0
C      1  0.5143490000000  0.5033410000000  0.5244010000000 1.0
C      1  0.4867530000000  0.5094810000000  0.5264760000000 1.0
C      1  0.4717340000000  0.5045020000000  0.4995030000000 1.0
C      1  0.4855340000000  0.4992500000000  0.4755480000000 1.0
C      1  0.5130240000000  0.5064950000000  0.4730790000000 1.0
C      1  0.5108960000000  0.4204900000000  0.4500080000000 1.0
C      1  0.5469120000000  0.4216480000000  0.4820190000000 1.0
C      1  0.5364710000000  0.4210790000000  0.5290800000000 1.0
C      1  0.4899210000000  0.4172740000000  0.5438960000000 1.0
C      1  0.4539380000000  0.4128530000000  0.5126130000000 1.0
C      1  0.4653240000000  0.4186450000000  0.4657920000000 1.0
C      1  0.5450840000000  0.5886700000000  0.4810140000000 1.0
C      1  0.5396200000000  0.5880390000000  0.5269300000000 1.0
C      1  0.4965560000000  0.5896970000000  0.5468270000000 1.0
C      1  0.4572410000000  0.5893920000000  0.5215140000000 1.0
C      1  0.4627520000000  0.5867230000000  0.4754200000000 1.0
C      1  0.5064780000000  0.5875740000000  0.4552730000000 1.0
C      1  0.5136440000000  0.5039910000000  0.5804450000000 1.0
C      1  0.4251950000000  0.5076760000000  0.5319680000000 1.0
C      1  0.4282550000000  0.4996660000000  0.4707130000000 1.0
C      1  0.4920000000000  0.5019470000000  0.4198930000000 1.0
C      1  0.5646450000000  0.5033520000000  0.4530590000000 1.0
C      1  0.5714520000000  0.5030060000000  0.5341890000000 1.0
C      1  0.4986750000000  0.6108670000000  0.5280160000000 1.0
C      1  0.4749640000000  0.6112300000000  0.5121520000000 1.0
C      1  0.4773400000000  0.6099520000000  0.4840810000000 1.0
C      1  0.5035430000000  0.6100890000000  0.4724230000000 1.0
C      1  0.5269470000000  0.6109190000000  0.4884970000000 1.0
C      1  0.5245200000000  0.6101730000000  0.5165410000000 1.0
C      1  0.4815560000000  0.5719810000000  0.4580800000000 1.0
C      1  0.5331900000000  0.5764360000000  0.4578510000000 1.0
C      1  0.5550980000000  0.5768990000000  0.5055890000000 1.0
C      1  0.5209370000000  0.5707450000000  0.5432660000000 1.0
C      1  0.4693550000000  0.5805470000000  0.5468390000000 1.0
C      1  0.4476290000000  0.5750650000000  0.4976030000000 1.0
C      1  0.5734640000000  0.4835280000000  0.5128630000000 1.0
C      1  0.5314610000000  0.4824900000000  0.5676000000000 1.0
C      1  0.4440290000000  0.5110060000000  0.5540410000000 1.0
C      1  0.4263870000000  0.4788390000000  0.4920060000000 1.0
C      1  0.4739290000000  0.4811180000000  0.4280540000000 1.0
C      1  0.5490110000000  0.4828620000000  0.4401170000000 1.0
C      1  0.5231850000000  0.4816900000000  0.5385060000000 1.0
C      1  0.4703580000000  0.4969250000000  0.5524120000000 1.0
C      1  0.4548110000000  0.4808230000000  0.5018710000000 1.0
C      1  0.4725790000000  0.4819370000000  0.4571540000000 1.0
C      1  0.5232760000000  0.4849260000000  0.4539390000000 1.0
C      1  0.5492700000000  0.4861240000000  0.4967980000000 1.0
C      1  0.4438480000000  0.4825870000000  0.4519580000000 1.0
C      1  0.5156220000000  0.4846870000000  0.4252940000000 1.0
C      1  0.5708790000000  0.4856690000000  0.4762320000000 1.0
C      1  0.5593670000000  0.4847370000000  0.5551710000000 1.0
C      1  0.4881090000000  0.4918660000000  0.5770790000000 1.0
C      1  0.4205080000000  0.4817500000000  0.5209510000000 1.0
C      1  0.5233410000000  0.4000830000000  0.5158650000000 1.0
C      1  0.4963640000000  0.3979090000000  0.5240500000000 1.0
C      1  0.4752550000000  0.3955960000000  0.5049070000000 1.0
C      1  0.4812040000000  0.3980220000000  0.4771770000000 1.0
C      1  0.5084360000000  0.3993170000000  0.4686810000000 1.0
C      1  0.5295620000000  0.4001040000000  0.4879630000000 1.0
C      1  0.5674090000000  0.5315950000000  0.5317320000000 1.0
C      1  0.5113630000000  0.5334780000000  0.5767230000000 1.0
C      1  0.4439890000000  0.5394720000000  0.5505480000000 1.0
C      1  0.4326860000000  0.5282150000000  0.4711680000000 1.0
C      1  0.4927290000000  0.5296890000000  0.4254400000000 1.0
C      1  0.5611990000000  0.5311710000000  0.4565150000000 1.0
C      1  0.4854700000000  0.4579000000000  0.5217630000000 1.0
END
