TITL C-214941-2922-2 0.15328032419805 125000 -370.581518128955 0 0 57 (C1) n - 1
REM
REM in /rds/project/t2_vol4/rds-t2-cs072/BORA/CARBON/from-Arr/AIRSS/Generating-Clusters/GAP-ML-2020/Higher-Symm/SD-CG/HFTN-CG
REM
REM
REM
REM
REM
REM ./C.cell (b20cbc046b6831c77cfcea5457e17084)
REM AIRSS Version 0.9.1 bugfix July 2018 build 013d7b7c2542+ Fri, 06 Jul 2018 19:26:36 +0100
REM compiler GCC version 9.3.0
REM options -cpp -mtune=generic -march=x86-64 -g -O0
REM seed -516662468 -1368933335 950204121 -625944316 1399136828 206056434 -509999058 1522449650 475152490 1415010948 1680427178 -1404033925 2021074034 32578028 1267264370 -695910060 464239457 -1410461067 1978753328 964988446 -50355090 825761832 2013634206 1662762012 936823092 144270278 1871049127 -1174143602 1548875065 682427605 -2056961308 1497354851 806154813
REM
CELL 1.54180   50.00000   50.00000   50.00000   90.00000   90.00000   90.00000
LATT -1
SFAC C  
C      1  0.4562130000000  0.5294190000000  0.4939810000000 1.0
C      1  0.4882190000000  0.5288750000000  0.4581750000000 1.0
C      1  0.5332830000000  0.5309470000000  0.4834220000000 1.0
C      1  0.5357610000000  0.5285960000000  0.5315290000000 1.0
C      1  0.4864270000000  0.5286810000000  0.5349100000000 1.0
C      1  0.4542810000000  0.4726900000000  0.4948540000000 1.0
C      1  0.4905880000000  0.4702320000000  0.4626730000000 1.0
C      1  0.5383030000000  0.4740770000000  0.4807450000000 1.0
C      1  0.5365140000000  0.4701620000000  0.5283500000000 1.0
C      1  0.4850940000000  0.4706650000000  0.5330260000000 1.0
C      1  0.4960660000000  0.5548920000000  0.5250040000000 1.0
C      1  0.4670050000000  0.5569210000000  0.4887470000000 1.0
C      1  0.4843400000000  0.5566260000000  0.4684490000000 1.0
C      1  0.5229670000000  0.5562490000000  0.4952030000000 1.0
C      1  0.5245080000000  0.5546080000000  0.5235220000000 1.0
C      1  0.4855820000000  0.4451340000000  0.5179770000000 1.0
C      1  0.4674370000000  0.4462250000000  0.4962330000000 1.0
C      1  0.4894210000000  0.4446960000000  0.4780860000000 1.0
C      1  0.5337830000000  0.4456200000000  0.4890680000000 1.0
C      1  0.5330070000000  0.4431660000000  0.5157550000000 1.0
C      1  0.4448080000000  0.4865420000000  0.5416120000000 1.0
C      1  0.4371950000000  0.4864200000000  0.4584050000000 1.0
C      1  0.5207150000000  0.4859530000000  0.4358820000000 1.0
C      1  0.5753010000000  0.4889960000000  0.4971060000000 1.0
C      1  0.5248750000000  0.4831670000000  0.5669690000000 1.0
C      1  0.4455270000000  0.5151580000000  0.5427400000000 1.0
C      1  0.4379210000000  0.5153210000000  0.4581960000000 1.0
C      1  0.5199770000000  0.5141510000000  0.4348050000000 1.0
C      1  0.5734270000000  0.5178810000000  0.4979250000000 1.0
C      1  0.5240760000000  0.5116910000000  0.5682480000000 1.0
C      1  0.5467950000000  0.4865860000000  0.5071150000000 1.0
C      1  0.5107610000000  0.4827320000000  0.5388500000000 1.0
C      1  0.4641570000000  0.4873760000000  0.5175460000000 1.0
C      1  0.4659350000000  0.4846320000000  0.4693610000000 1.0
C      1  0.5158820000000  0.4868500000000  0.4674840000000 1.0
C      1  0.5450170000000  0.5159430000000  0.5079510000000 1.0
C      1  0.5105810000000  0.5127240000000  0.5400180000000 1.0
C      1  0.4646950000000  0.5165690000000  0.5181530000000 1.0
C      1  0.4661060000000  0.5143890000000  0.4689970000000 1.0
C      1  0.5147560000000  0.5163310000000  0.4665070000000 1.0
C      1  0.4661030000000  0.4743010000000  0.5565520000000 1.0
C      1  0.4272490000000  0.4789650000000  0.4850120000000 1.0
C      1  0.4952350000000  0.4741970000000  0.4327250000000 1.0
C      1  0.5658000000000  0.4807000000000  0.4708430000000 1.0
C      1  0.5495640000000  0.4755870000000  0.5543810000000 1.0
C      1  0.4669740000000  0.5240270000000  0.5589160000000 1.0
C      1  0.4289040000000  0.5247900000000  0.4846770000000 1.0
C      1  0.4929560000000  0.5213230000000  0.4297150000000 1.0
C      1  0.5621430000000  0.5292060000000  0.4737890000000 1.0
C      1  0.5490400000000  0.5216390000000  0.5565000000000 1.0
C      1  0.4718790000000  0.4985130000000  0.5683200000000 1.0
C      1  0.4182300000000  0.5023330000000  0.4962960000000 1.0
C      1  0.4811250000000  0.4966980000000  0.4251880000000 1.0
C      1  0.5659410000000  0.5058690000000  0.4597880000000 1.0
C      1  0.5640200000000  0.4990830000000  0.5517860000000 1.0
C      1  0.5083680000000  0.4380920000000  0.5003210000000 1.0
C      1  0.4940410000000  0.5625800000000  0.4960390000000 1.0
END
