TITL C-21990-5561-5 0.126380719674352 125000 -423.040820402992 0 0 64 (S4) n - 1
REM
REM in /rds/project/t2_vol4/rds-t2-cs072/BORA/CARBON/from-Arr/AIRSS/Generating-Clusters/GAP-ML-2020/Higher-Symm/SD-CG/HFTN-CG
REM
REM
REM
REM
REM
REM ./C.cell (b20cbc046b6831c77cfcea5457e17084)
REM AIRSS Version 0.9.1 bugfix July 2018 build 013d7b7c2542+ Fri, 06 Jul 2018 19:26:36 +0100
REM compiler GCC version 9.3.0
REM options -cpp -mtune=generic -march=x86-64 -g -O0
REM seed 440021976 -1163746411 1937269526 1204468936 1537785532 -127895439 1746622107 -1739130524 -665874237 672897710 -794422842 359869919 -1846386014 238648233 1902266249 1525093240 -1460226082 745909782 -504143834 -522636322 995034116 -2070511893 -1393447897 1820645294 1831264294 -1348759564 328999943 729316774 534455642 -1848670516 1310267490 -628117150 1804480420
REM
CELL 1.54180   50.00000   50.00000   50.00000   90.00000   90.00000   90.00000
LATT -1
SFAC C  
C      1  0.4519000000000  0.5440130000000  0.5498590000000 1.0
C      1  0.5481500000000  0.5498110000000  0.4559870000000 1.0
C      1  0.4518050000000  0.4560350000000  0.4501890000000 1.0
C      1  0.5481450000000  0.4501410000000  0.5439640000000 1.0
C      1  0.4749260000000  0.5561910000000  0.4896260000000 1.0
C      1  0.5250630000000  0.4896010000000  0.4438090000000 1.0
C      1  0.4748810000000  0.4438340000000  0.5104000000000 1.0
C      1  0.5251300000000  0.5103740000000  0.5561660000000 1.0
C      1  0.4414110000000  0.4471530000000  0.4758170000000 1.0
C      1  0.5585650000000  0.4757580000000  0.5528460000000 1.0
C      1  0.4414880000000  0.5529050000000  0.5242420000000 1.0
C      1  0.5585360000000  0.5241830000000  0.4470940000000 1.0
C      1  0.5136330000000  0.4660590000000  0.4883960000000 1.0
C      1  0.4863560000000  0.4884100000000  0.5339410000000 1.0
C      1  0.5136790000000  0.5339270000000  0.5115900000000 1.0
C      1  0.4863330000000  0.5116040000000  0.4660730000000 1.0
C      1  0.4426610000000  0.4725670000000  0.5197280000000 1.0
C      1  0.5573590000000  0.5196700000000  0.5274320000000 1.0
C      1  0.4426680000000  0.5274900000000  0.4803300000000 1.0
C      1  0.5573120000000  0.4802720000000  0.4725100000000 1.0
C      1  0.5547970000000  0.5032950000000  0.5508770000000 1.0
C      1  0.4452540000000  0.5509320000000  0.4967050000000 1.0
C      1  0.5547420000000  0.4966500000000  0.4490670000000 1.0
C      1  0.4452060000000  0.4491220000000  0.5033510000000 1.0
C      1  0.5206540000000  0.5385400000000  0.5420710000000 1.0
C      1  0.4793880000000  0.5420920000000  0.4614600000000 1.0
C      1  0.5205730000000  0.4614390000000  0.4579080000000 1.0
C      1  0.4793850000000  0.4579290000000  0.5385610000000 1.0
C      1  0.4932070000000  0.5742090000000  0.5045170000000 1.0
C      1  0.5067970000000  0.5045100000000  0.4257910000000 1.0
C      1  0.4931280000000  0.4257980000000  0.4954900000000 1.0
C      1  0.5068680000000  0.4954830000000  0.5742020000000 1.0
C      1  0.4858150000000  0.5708050000000  0.5316420000000 1.0
C      1  0.5142160000000  0.5316280000000  0.4291950000000 1.0
C      1  0.4857120000000  0.4292090000000  0.4683720000000 1.0
C      1  0.5142560000000  0.4683580000000  0.5707910000000 1.0
C      1  0.5303130000000  0.4913140000000  0.4886060000000 1.0
C      1  0.4696760000000  0.4886370000000  0.5086860000000 1.0
C      1  0.5303330000000  0.5086560000000  0.5113630000000 1.0
C      1  0.4696780000000  0.5113940000000  0.4913440000000 1.0
C      1  0.5026910000000  0.4498260000000  0.5526170000000 1.0
C      1  0.4973620000000  0.5526200000000  0.5501740000000 1.0
C      1  0.5026880000000  0.5501720000000  0.4473800000000 1.0
C      1  0.4972590000000  0.4473830000000  0.4498280000000 1.0
C      1  0.5496030000000  0.4559750000000  0.4652600000000 1.0
C      1  0.4503630000000  0.4653100000000  0.5440260000000 1.0
C      1  0.5496820000000  0.5439760000000  0.5346900000000 1.0
C      1  0.4503530000000  0.5347400000000  0.4560250000000 1.0
C      1  0.4765730000000  0.5320460000000  0.5578910000000 1.0
C      1  0.5234860000000  0.5578670000000  0.4679540000000 1.0
C      1  0.4764820000000  0.4679780000000  0.4421330000000 1.0
C      1  0.5234600000000  0.4421090000000  0.5320220000000 1.0
C      1  0.4585270000000  0.5693810000000  0.5379220000000 1.0
C      1  0.5415110000000  0.5378800000000  0.4306190000000 1.0
C      1  0.4584190000000  0.4306610000000  0.4621200000000 1.0
C      1  0.5415430000000  0.4620780000000  0.5693390000000 1.0
C      1  0.4826440000000  0.4955860000000  0.4396730000000 1.0
C      1  0.5172950000000  0.4396560000000  0.5044130000000 1.0
C      1  0.4827100000000  0.5044310000000  0.5603440000000 1.0
C      1  0.5173510000000  0.5603270000000  0.4955690000000 1.0
C      1  0.5170930000000  0.4935450000000  0.5325170000000 1.0
C      1  0.4829400000000  0.5325340000000  0.5064550000000 1.0
C      1  0.5170660000000  0.5064380000000  0.4674660000000 1.0
C      1  0.4829010000000  0.4674830000000  0.4935620000000 1.0
END
