TITL C-21994-5626-1 46.9298073826619 125000 -252.039040975118 0 0 39 (C1) n - 1
REM
REM in /rds/project/t2_vol4/rds-t2-cs072/BORA/CARBON/from-Arr/AIRSS/Generating-Clusters/GAP-ML-2020/Higher-Symm/SD-CG/HFTN-CG
REM
REM
REM
REM
REM
REM ./C.cell (b20cbc046b6831c77cfcea5457e17084)
REM AIRSS Version 0.9.1 bugfix July 2018 build 013d7b7c2542+ Fri, 06 Jul 2018 19:26:36 +0100
REM compiler GCC version 9.3.0
REM options -cpp -mtune=generic -march=x86-64 -g -O0
REM seed 1758069804 1635782542 1020036680 1683879671 438282992 297459490 1734574503 1255800073 556993727 -2001199888 1124369813 1488439011 -988310033 -1708896186 -1834701013 -544939805 1236237224 -1901744979 648434800 1400161422 2040798613 -543405374 58029505 -1535860262 515818934 -805306242 -1240737597 269706399 -1368705162 925972827 -946599602 -878554909 2083547138
REM
CELL 1.54180   50.00000   50.00000   50.00000   90.00000   90.00000   90.00000
LATT -1
SFAC C  
C      1  0.5241130000000  0.5534150000000  0.4718760000000 1.0
C      1  0.4750880000000  0.4462550000000  0.4766450000000 1.0
C      1  0.5238390000000  0.4486650000000  0.4732940000000 1.0
C      1  0.4771860000000  0.5568790000000  0.4763130000000 1.0
C      1  0.4856410000000  0.4403990000000  0.5267680000000 1.0
C      1  0.5131330000000  0.5541010000000  0.5259530000000 1.0
C      1  0.4835010000000  0.5526310000000  0.5268330000000 1.0
C      1  0.5151760000000  0.4405100000000  0.5253600000000 1.0
C      1  0.4833520000000  0.5299250000000  0.4682090000000 1.0
C      1  0.5141240000000  0.4772780000000  0.4678310000000 1.0
C      1  0.4843250000000  0.4733350000000  0.4706240000000 1.0
C      1  0.5129970000000  0.5258590000000  0.4654910000000 1.0
C      1  0.4708020000000  0.5048500000000  0.5398150000000 1.0
C      1  0.5273990000000  0.4831100000000  0.5514930000000 1.0
C      1  0.4726550000000  0.4818240000000  0.5540790000000 1.0
C      1  0.5285270000000  0.5065540000000  0.5383430000000 1.0
C      1  0.5247630000000  0.5511460000000  0.5009890000000 1.0
C      1  0.4720170000000  0.4515650000000  0.5051050000000 1.0
C      1  0.5261800000000  0.4511800000000  0.5021820000000 1.0
C      1  0.4697060000000  0.5492200000000  0.5031570000000 1.0
C      1  0.5139950000000  0.5308180000000  0.5454740000000 1.0
C      1  0.4859740000000  0.4586950000000  0.5507390000000 1.0
C      1  0.5161480000000  0.4591600000000  0.5491320000000 1.0
C      1  0.4850760000000  0.5299710000000  0.5464960000000 1.0
C      1  0.5516710000000  0.5018500000000  0.4677750000000 1.0
C      1  0.4331120000000  0.4836920000000  0.4764620000000 1.0
C      1  0.5758460000000  0.5027410000000  0.4788320000000 1.0
C      1  0.4374850000000  0.5101130000000  0.4733650000000 1.0
C      1  0.4831390000000  0.5239150000000  0.4981920000000 1.0
C      1  0.5155640000000  0.4780280000000  0.4994290000000 1.0
C      1  0.4851790000000  0.4773380000000  0.5014480000000 1.0
C      1  0.5137840000000  0.5246880000000  0.4975450000000 1.0
C      1  0.4444110000000  0.4979800000000  0.4966870000000 1.0
C      1  0.5557360000000  0.5015140000000  0.4963190000000 1.0
C      1  0.4694920000000  0.5008420000000  0.5101530000000 1.0
C      1  0.5301550000000  0.5025800000000  0.5090360000000 1.0
C      1  0.5016300000000  0.5677300000000  0.4760750000000 1.0
C      1  0.5000930000000  0.4361310000000  0.4760740000000 1.0
C      1  0.5258650000000  0.5015150000000  0.4570180000000 1.0
END
