TITL C-214951-4107-5 -0.00197576801479304 125000 -29.7959809857791 0 0 5 (D(inf)h) n - 1
REM
REM in /rds/project/t2_vol4/rds-t2-cs072/BORA/CARBON/from-Arr/AIRSS/Generating-Clusters/GAP-ML-2020/Higher-Symm/SD-CG/HFTN-CG
REM
REM
REM
REM
REM
REM ./C.cell (b20cbc046b6831c77cfcea5457e17084)
REM AIRSS Version 0.9.1 bugfix July 2018 build 013d7b7c2542+ Fri, 06 Jul 2018 19:26:36 +0100
REM compiler GCC version 9.3.0
REM options -cpp -mtune=generic -march=x86-64 -g -O0
REM seed -192004335 1079666732 -1605872729 571332714 1257936274 -812031581 2075543480 1498283777 1467607372 374085718 -689751963 1982983188 -999723592 -1584861260 914594735 -1917943975 310203915 -157264893 -2100687757 938290438 1098850361 854595760 -677687187 -583166710 1205768685 2028514648 935483994 1762172944 1605880999 362691111 -111163966 140350038 -1955923082
REM
CELL 1.54180   50.00000   50.00000   50.00000   90.00000   90.00000   90.00000
LATT -1
SFAC C  
C      1  0.4986720000000  0.5517070000000  0.5008210000000 1.0
C      1  0.4986720000000  0.5000000000000  0.5008210000000 1.0
C      1  0.4986720000000  0.4482930000000  0.5008210000000 1.0
C      1  0.4986720000000  0.4741540000000  0.5008210000000 1.0
C      1  0.4986720000000  0.5258460000000  0.5008210000000 1.0
END
