TITL C-214945-2929-1 -71.6603216866737 125000 -963.279385395262 0 0 138 (C1) n - 1
REM
REM in /rds/project/t2_vol4/rds-t2-cs072/BORA/CARBON/from-Arr/AIRSS/Generating-Clusters/GAP-ML-2020/Higher-Symm/SD-CG/HFTN-CG
REM
REM
REM
REM
REM
REM ./C.cell (b20cbc046b6831c77cfcea5457e17084)
REM AIRSS Version 0.9.1 bugfix July 2018 build 013d7b7c2542+ Fri, 06 Jul 2018 19:26:36 +0100
REM compiler GCC version 9.3.0
REM options -cpp -mtune=generic -march=x86-64 -g -O0
REM seed 169429888 -957014275 21464683 -1986160061 -841281173 -1503078359 1001835679 779417891 -693410182 962050707 2142571363 1885927281 948309213 -646061880 -441483964 243890349 1414716281 1072623321 684661891 -1533596049 1310163833 1648308524 -1274176419 1446858222 162635002 1295506211 265982731 -808258490 510386630 -1364103411 1031409903 1392127883 23429985
REM
CELL 1.54180   50.00000   50.00000   50.00000   90.00000   90.00000   90.00000
LATT -1
SFAC C  
C      1  0.5099220000000  0.4147460000000  0.4253150000000 1.0
C      1  0.5926230000000  0.4444170000000  0.5036030000000 1.0
C      1  0.4334600000000  0.4487760000000  0.4526010000000 1.0
C      1  0.4407870000000  0.5889420000000  0.5564010000000 1.0
C      1  0.5621200000000  0.4184710000000  0.4821560000000 1.0
C      1  0.4503170000000  0.4769630000000  0.5187010000000 1.0
C      1  0.4070960000000  0.5287460000000  0.4660600000000 1.0
C      1  0.5671430000000  0.5644250000000  0.4571550000000 1.0
C      1  0.5641720000000  0.4782920000000  0.5737710000000 1.0
C      1  0.4652750000000  0.5804270000000  0.5414810000000 1.0
C      1  0.4544440000000  0.4964810000000  0.4926570000000 1.0
C      1  0.4542500000000  0.5758050000000  0.5098520000000 1.0
C      1  0.5489800000000  0.4433120000000  0.4464560000000 1.0
C      1  0.5411330000000  0.4201000000000  0.4638380000000 1.0
C      1  0.5069540000000  0.5071280000000  0.5186120000000 1.0
C      1  0.6033940000000  0.5310850000000  0.4639230000000 1.0
C      1  0.4677290000000  0.4417430000000  0.4845070000000 1.0
C      1  0.4480430000000  0.4206810000000  0.4844630000000 1.0
C      1  0.4416020000000  0.4930930000000  0.5443070000000 1.0
C      1  0.5012190000000  0.4986080000000  0.4669590000000 1.0
C      1  0.5272850000000  0.4221940000000  0.5478900000000 1.0
C      1  0.5054110000000  0.5639670000000  0.4324860000000 1.0
C      1  0.4800760000000  0.4151130000000  0.5457160000000 1.0
C      1  0.4242020000000  0.5187980000000  0.5384750000000 1.0
C      1  0.5486910000000  0.5406380000000  0.4484870000000 1.0
C      1  0.4742480000000  0.5256190000000  0.5348360000000 1.0
C      1  0.5137910000000  0.4117240000000  0.4735510000000 1.0
C      1  0.5487780000000  0.4354990000000  0.5615520000000 1.0
C      1  0.4972470000000  0.5504100000000  0.5022920000000 1.0
C      1  0.4885140000000  0.5010050000000  0.4083300000000 1.0
C      1  0.5833870000000  0.4657020000000  0.5560790000000 1.0
C      1  0.5448300000000  0.5695920000000  0.5318160000000 1.0
C      1  0.4263060000000  0.5709350000000  0.5180710000000 1.0
C      1  0.5744040000000  0.4876210000000  0.4470150000000 1.0
C      1  0.4299990000000  0.4522910000000  0.5174900000000 1.0
C      1  0.4683960000000  0.5073330000000  0.5817060000000 1.0
C      1  0.5471270000000  0.4934230000000  0.4610310000000 1.0
C      1  0.5086810000000  0.5113050000000  0.5883570000000 1.0
C      1  0.5166070000000  0.5022300000000  0.4032450000000 1.0
C      1  0.5197640000000  0.5527420000000  0.4834780000000 1.0
C      1  0.5507580000000  0.5256370000000  0.4231660000000 1.0
C      1  0.4697150000000  0.4565980000000  0.5861790000000 1.0
C      1  0.4383040000000  0.4742310000000  0.5684700000000 1.0
C      1  0.4397070000000  0.4266340000000  0.5270450000000 1.0
C      1  0.4966410000000  0.4162780000000  0.4505980000000 1.0
C      1  0.4807870000000  0.5916980000000  0.4671470000000 1.0
C      1  0.4173410000000  0.5536020000000  0.4752040000000 1.0
C      1  0.4532910000000  0.4261550000000  0.5514470000000 1.0
C      1  0.4788130000000  0.4678710000000  0.5222880000000 1.0
C      1  0.4911870000000  0.4776550000000  0.5470500000000 1.0
C      1  0.5293610000000  0.4591450000000  0.4299840000000 1.0
C      1  0.4556140000000  0.5642660000000  0.4414150000000 1.0
C      1  0.5077230000000  0.4066270000000  0.5032860000000 1.0
C      1  0.5701450000000  0.5264910000000  0.5351240000000 1.0
C      1  0.4831760000000  0.5522610000000  0.5760570000000 1.0
C      1  0.4756480000000  0.5199450000000  0.4293680000000 1.0
C      1  0.5936560000000  0.5546050000000  0.4596020000000 1.0
C      1  0.4543220000000  0.4096550000000  0.5091520000000 1.0
C      1  0.4812050000000  0.5765030000000  0.4432250000000 1.0
C      1  0.5120930000000  0.4873840000000  0.6008920000000 1.0
C      1  0.4044320000000  0.5095410000000  0.4893560000000 1.0
C      1  0.4576650000000  0.4823340000000  0.5899460000000 1.0
C      1  0.5535220000000  0.5836720000000  0.4701390000000 1.0
C      1  0.5267620000000  0.5107790000000  0.5630430000000 1.0
C      1  0.5821460000000  0.4921160000000  0.4942800000000 1.0
C      1  0.4243150000000  0.4352740000000  0.4758180000000 1.0
C      1  0.4130200000000  0.5522030000000  0.5033440000000 1.0
C      1  0.5444810000000  0.4577730000000  0.5793570000000 1.0
C      1  0.5200790000000  0.5050480000000  0.4943030000000 1.0
C      1  0.4157310000000  0.5194990000000  0.4400870000000 1.0
C      1  0.5324810000000  0.5883530000000  0.5166770000000 1.0
C      1  0.4691160000000  0.5482260000000  0.4964490000000 1.0
C      1  0.4131270000000  0.4539360000000  0.4950150000000 1.0
C      1  0.5488700000000  0.5405590000000  0.5222990000000 1.0
C      1  0.4819240000000  0.4058330000000  0.5182300000000 1.0
C      1  0.5779170000000  0.4292390000000  0.5232950000000 1.0
C      1  0.5017040000000  0.5336580000000  0.5263420000000 1.0
C      1  0.4960200000000  0.6105810000000  0.5049980000000 1.0
C      1  0.5186030000000  0.4642530000000  0.5881280000000 1.0
C      1  0.4897280000000  0.4542510000000  0.5004530000000 1.0
C      1  0.4713680000000  0.4873350000000  0.4679700000000 1.0
C      1  0.5127450000000  0.5525610000000  0.4083530000000 1.0
C      1  0.5088120000000  0.4415400000000  0.4180600000000 1.0
C      1  0.5274270000000  0.5293150000000  0.4069660000000 1.0
C      1  0.5428810000000  0.4800580000000  0.5274880000000 1.0
C      1  0.4533740000000  0.5412700000000  0.4250030000000 1.0
C      1  0.4818790000000  0.4516800000000  0.4211970000000 1.0
C      1  0.4701600000000  0.5021720000000  0.5527510000000 1.0
C      1  0.4930380000000  0.5878820000000  0.5477580000000 1.0
C      1  0.5709760000000  0.4580860000000  0.4591700000000 1.0
C      1  0.5016100000000  0.4276820000000  0.5584020000000 1.0
C      1  0.4991330000000  0.5225860000000  0.4507370000000 1.0
C      1  0.4603630000000  0.4948630000000  0.4402820000000 1.0
C      1  0.4236160000000  0.5691670000000  0.5466670000000 1.0
C      1  0.5179030000000  0.4907300000000  0.5411130000000 1.0
C      1  0.4332430000000  0.5426490000000  0.5527590000000 1.0
C      1  0.4751330000000  0.4380280000000  0.4450390000000 1.0
C      1  0.5303510000000  0.4116850000000  0.5208150000000 1.0
C      1  0.5041770000000  0.5701840000000  0.5666360000000 1.0
C      1  0.4386480000000  0.5706710000000  0.4641860000000 1.0
C      1  0.4611520000000  0.5229070000000  0.5062950000000 1.0
C      1  0.5739500000000  0.4396030000000  0.5490830000000 1.0
C      1  0.5388820000000  0.5305230000000  0.4934220000000 1.0
C      1  0.5576320000000  0.4979230000000  0.4259350000000 1.0
C      1  0.5553080000000  0.5211140000000  0.4699350000000 1.0
C      1  0.4631270000000  0.5492560000000  0.5532100000000 1.0
C      1  0.5684770000000  0.5295880000000  0.5644930000000 1.0
C      1  0.4740010000000  0.4785440000000  0.4183390000000 1.0
C      1  0.5568060000000  0.4147670000000  0.5099090000000 1.0
C      1  0.5037250000000  0.6001220000000  0.4812420000000 1.0
C      1  0.5988620000000  0.4714120000000  0.5087580000000 1.0
C      1  0.5554590000000  0.5051330000000  0.5726150000000 1.0
C      1  0.5354590000000  0.4752720000000  0.5006050000000 1.0
C      1  0.4958180000000  0.4537100000000  0.5718960000000 1.0
C      1  0.5726770000000  0.5005270000000  0.5236800000000 1.0
C      1  0.5853920000000  0.5091010000000  0.4687480000000 1.0
C      1  0.4296650000000  0.4941200000000  0.4459410000000 1.0
C      1  0.4477130000000  0.4469010000000  0.5693470000000 1.0
C      1  0.5363400000000  0.4833240000000  0.4139110000000 1.0
C      1  0.4263490000000  0.5350620000000  0.4204450000000 1.0
C      1  0.4283360000000  0.4943700000000  0.4768400000000 1.0
C      1  0.4200410000000  0.4677690000000  0.4397390000000 1.0
C      1  0.5195740000000  0.4766240000000  0.4591870000000 1.0
C      1  0.4056100000000  0.4799170000000  0.4873370000000 1.0
C      1  0.5825360000000  0.4378920000000  0.4775410000000 1.0
C      1  0.4856850000000  0.5283520000000  0.5904520000000 1.0
C      1  0.5257350000000  0.5348970000000  0.5442250000000 1.0
C      1  0.5590880000000  0.4764730000000  0.4832510000000 1.0
C      1  0.5179740000000  0.5458410000000  0.4540800000000 1.0
C      1  0.5300850000000  0.5832650000000  0.4865640000000 1.0
C      1  0.5565130000000  0.5523070000000  0.5732530000000 1.0
C      1  0.5921360000000  0.4809350000000  0.5345210000000 1.0
C      1  0.5333270000000  0.5615380000000  0.5589500000000 1.0
C      1  0.4617780000000  0.4571400000000  0.4623880000000 1.0
C      1  0.5154070000000  0.4604390000000  0.4866140000000 1.0
C      1  0.4089870000000  0.5251270000000  0.5138840000000 1.0
C      1  0.5087230000000  0.6006530000000  0.5273570000000 1.0
C      1  0.4552970000000  0.5866580000000  0.4816720000000 1.0
END
