TITL C-21828-7425-4 -78.8608335659193 125000 -1167.87072359816 0 0 168 (C2h) n - 1
REM
REM in /rds/project/t2_vol4/rds-t2-cs072/BORA/CARBON/from-Arr/AIRSS/Generating-Clusters/GAP-ML-2020/Higher-Symm/SD-CG/HFTN-CG
REM
REM
REM
REM
REM
REM ./C.cell (b20cbc046b6831c77cfcea5457e17084)
REM AIRSS Version 0.9.1 bugfix July 2018 build 013d7b7c2542+ Fri, 06 Jul 2018 19:26:36 +0100
REM compiler GCC version 9.3.0
REM options -cpp -mtune=generic -march=x86-64 -g -O0
REM seed 177548872 -989620665 -745050188 636939249 -915185915 -1888863744 -168892103 2000384702 1797568470 1325186 -1813342153 78588820 267348151 166356260 -342575488 491935546 -2000883328 771280138 705177250 1518103891 -341486042 710610314 1018090923 1797719233 819940793 -2075771802 1063619743 -461100470 -1741296991 1642715544 -75035167 -88484782 131965088
REM
CELL 1.54180   50.00000   50.00000   50.00000   90.00000   90.00000   90.00000
LATT -1
SFAC C  
C      1  0.4784260000000  0.4655940000000  0.5259580000000 1.0
C      1  0.5215730000000  0.5344060000000  0.5259600000000 1.0
C      1  0.4784270000000  0.4655940000000  0.4740400000000 1.0
C      1  0.5215740000000  0.5344060000000  0.4740420000000 1.0
C      1  0.5369610000000  0.4505920000000  0.4841730000000 1.0
C      1  0.4630400000000  0.5494090000000  0.4841720000000 1.0
C      1  0.5369600000000  0.4505910000000  0.5158280000000 1.0
C      1  0.4630390000000  0.5494080000000  0.5158270000000 1.0
C      1  0.5010400000000  0.4845030000000  0.4825990000000 1.0
C      1  0.4989600000000  0.5154970000000  0.4826000000000 1.0
C      1  0.5010400000000  0.4845030000000  0.5174000000000 1.0
C      1  0.4989600000000  0.5154970000000  0.5174010000000 1.0
C      1  0.4852600000000  0.6182330000000  0.5149190000000 1.0
C      1  0.5147390000000  0.3817670000000  0.5149180000000 1.0
C      1  0.4852610000000  0.6182330000000  0.4850820000000 1.0
C      1  0.5147400000000  0.3817670000000  0.4850810000000 1.0
C      1  0.4135500000000  0.5495890000000  0.4848310000000 1.0
C      1  0.5864500000000  0.4504110000000  0.4848330000000 1.0
C      1  0.4135500000000  0.5495890000000  0.5151670000000 1.0
C      1  0.5864500000000  0.4504110000000  0.5151690000000 1.0
C      1  0.4411040000000  0.4513890000000  0.5529030000000 1.0
C      1  0.5588940000000  0.5486100000000  0.5529060000000 1.0
C      1  0.4411060000000  0.4513900000000  0.4470940000000 1.0
C      1  0.5588960000000  0.5486110000000  0.4470970000000 1.0
C      1  0.5190700000000  0.5275630000000  0.6066720000000 1.0
C      1  0.4809260000000  0.4724360000000  0.6066710000000 1.0
C      1  0.5190740000000  0.5275640000000  0.3933290000000 1.0
C      1  0.4809300000000  0.4724370000000  0.3933280000000 1.0
C      1  0.5284340000000  0.4040810000000  0.4747910000000 1.0
C      1  0.4715670000000  0.5959200000000  0.4747910000000 1.0
C      1  0.5284330000000  0.4040800000000  0.5252090000000 1.0
C      1  0.4715660000000  0.5959190000000  0.5252090000000 1.0
C      1  0.4278810000000  0.4320790000000  0.4858900000000 1.0
C      1  0.5721190000000  0.5679210000000  0.4858930000000 1.0
C      1  0.4278810000000  0.4320790000000  0.5141070000000 1.0
C      1  0.5721190000000  0.5679210000000  0.5141100000000 1.0
C      1  0.5146530000000  0.5006200000000  0.4117200000000 1.0
C      1  0.4853500000000  0.4993810000000  0.4117200000000 1.0
C      1  0.5146500000000  0.5006190000000  0.5882800000000 1.0
C      1  0.4853470000000  0.4993800000000  0.5882800000000 1.0
C      1  0.4694300000000  0.4631720000000  0.5545230000000 1.0
C      1  0.5305680000000  0.5368270000000  0.5545240000000 1.0
C      1  0.4694320000000  0.4631730000000  0.4454760000000 1.0
C      1  0.5305700000000  0.5368280000000  0.4454770000000 1.0
C      1  0.4270100000000  0.4726470000000  0.3931840000000 1.0
C      1  0.5729930000000  0.5273540000000  0.3931860000000 1.0
C      1  0.4270070000000  0.4726460000000  0.6068140000000 1.0
C      1  0.5729900000000  0.5273530000000  0.6068160000000 1.0
C      1  0.5840930000000  0.5008710000000  0.4342680000000 1.0
C      1  0.4159090000000  0.4991300000000  0.4342650000000 1.0
C      1  0.5840910000000  0.5008700000000  0.5657350000000 1.0
C      1  0.4159070000000  0.4991290000000  0.5657320000000 1.0
C      1  0.5235070000000  0.4152870000000  0.5805000000000 1.0
C      1  0.4764910000000  0.5847120000000  0.5805010000000 1.0
C      1  0.5235090000000  0.4152880000000  0.4194990000000 1.0
C      1  0.4764930000000  0.5847130000000  0.4195000000000 1.0
C      1  0.4460960000000  0.4158590000000  0.5291210000000 1.0
C      1  0.5539030000000  0.5841410000000  0.5291230000000 1.0
C      1  0.4460970000000  0.4158590000000  0.4708770000000 1.0
C      1  0.5539040000000  0.5841410000000  0.4708790000000 1.0
C      1  0.5191080000000  0.5659830000000  0.4418470000000 1.0
C      1  0.4808940000000  0.4340180000000  0.4418460000000 1.0
C      1  0.5191060000000  0.5659820000000  0.5581540000000 1.0
C      1  0.4808920000000  0.4340170000000  0.5581530000000 1.0
C      1  0.4518700000000  0.4766360000000  0.5151360000000 1.0
C      1  0.5481300000000  0.5233630000000  0.5151380000000 1.0
C      1  0.4518700000000  0.4766370000000  0.4848620000000 1.0
C      1  0.5481300000000  0.5233640000000  0.4848640000000 1.0
C      1  0.5483230000000  0.5746540000000  0.4453750000000 1.0
C      1  0.4516780000000  0.4253470000000  0.4453730000000 1.0
C      1  0.5483220000000  0.5746530000000  0.5546270000000 1.0
C      1  0.4516770000000  0.4253460000000  0.5546250000000 1.0
C      1  0.4479740000000  0.5887220000000  0.5383850000000 1.0
C      1  0.5520250000000  0.4112770000000  0.5383860000000 1.0
C      1  0.4479750000000  0.5887230000000  0.4616140000000 1.0
C      1  0.5520260000000  0.4112780000000  0.4616150000000 1.0
C      1  0.4992360000000  0.5689910000000  0.4186690000000 1.0
C      1  0.5007670000000  0.4310100000000  0.4186680000000 1.0
C      1  0.4992330000000  0.5689900000000  0.5813320000000 1.0
C      1  0.5007640000000  0.4310090000000  0.5813310000000 1.0
C      1  0.5280820000000  0.5883150000000  0.4846750000000 1.0
C      1  0.4719180000000  0.4116850000000  0.4846730000000 1.0
C      1  0.5280820000000  0.5883150000000  0.5153270000000 1.0
C      1  0.4719180000000  0.4116850000000  0.5153250000000 1.0
C      1  0.5140430000000  0.6151040000000  0.5147690000000 1.0
C      1  0.4859560000000  0.3848960000000  0.5147670000000 1.0
C      1  0.5140440000000  0.6151040000000  0.4852330000000 1.0
C      1  0.4859570000000  0.3848960000000  0.4852310000000 1.0
C      1  0.4724360000000  0.5232530000000  0.5246470000000 1.0
C      1  0.5275630000000  0.4767470000000  0.5246470000000 1.0
C      1  0.4724370000000  0.5232530000000  0.4753530000000 1.0
C      1  0.5275640000000  0.4767470000000  0.4753530000000 1.0
C      1  0.4453810000000  0.5052060000000  0.5595740000000 1.0
C      1  0.5546170000000  0.4947930000000  0.5595760000000 1.0
C      1  0.4453830000000  0.5052070000000  0.4404240000000 1.0
C      1  0.5546190000000  0.4947940000000  0.4404260000000 1.0
C      1  0.5875190000000  0.5142250000000  0.5892910000000 1.0
C      1  0.4124780000000  0.4857740000000  0.5892880000000 1.0
C      1  0.5875220000000  0.5142260000000  0.4107120000000 1.0
C      1  0.4124810000000  0.4857750000000  0.4107090000000 1.0
C      1  0.5502960000000  0.4955870000000  0.4717840000000 1.0
C      1  0.4497050000000  0.5044130000000  0.4717820000000 1.0
C      1  0.5502950000000  0.4955870000000  0.5282180000000 1.0
C      1  0.4497040000000  0.5044130000000  0.5282160000000 1.0
C      1  0.5459520000000  0.4196530000000  0.5659750000000 1.0
C      1  0.4540460000000  0.5803460000000  0.5659740000000 1.0
C      1  0.5459540000000  0.4196540000000  0.4340260000000 1.0
C      1  0.4540480000000  0.5803470000000  0.4340250000000 1.0
C      1  0.3788520000000  0.4638520000000  0.5128700000000 1.0
C      1  0.6211480000000  0.5361470000000  0.5128750000000 1.0
C      1  0.3788520000000  0.4638530000000  0.4871250000000 1.0
C      1  0.6211480000000  0.5361480000000  0.4871290000000 1.0
C      1  0.4977600000000  0.5442770000000  0.5971690000000 1.0
C      1  0.5022370000000  0.4557210000000  0.5971680000000 1.0
C      1  0.4977630000000  0.5442790000000  0.4028320000000 1.0
C      1  0.5022400000000  0.4557230000000  0.4028310000000 1.0
C      1  0.5623150000000  0.4390560000000  0.5305890000000 1.0
C      1  0.4376840000000  0.5609440000000  0.5305880000000 1.0
C      1  0.5623160000000  0.4390560000000  0.4694120000000 1.0
C      1  0.4376850000000  0.5609440000000  0.4694110000000 1.0
C      1  0.4642750000000  0.4854390000000  0.5718780000000 1.0
C      1  0.5357230000000  0.5145600000000  0.5718790000000 1.0
C      1  0.4642770000000  0.4854400000000  0.4281210000000 1.0
C      1  0.5357250000000  0.5145610000000  0.4281220000000 1.0
C      1  0.4534190000000  0.4711460000000  0.5999910000000 1.0
C      1  0.5465780000000  0.5288530000000  0.5999930000000 1.0
C      1  0.4534220000000  0.4711470000000  0.4000070000000 1.0
C      1  0.5465810000000  0.5288540000000  0.4000090000000 1.0
C      1  0.4259190000000  0.5135770000000  0.4859440000000 1.0
C      1  0.5740810000000  0.4864230000000  0.4859460000000 1.0
C      1  0.4259190000000  0.5135770000000  0.5140540000000 1.0
C      1  0.5740810000000  0.4864230000000  0.5140560000000 1.0
C      1  0.4430930000000  0.5543100000000  0.4393510000000 1.0
C      1  0.5569090000000  0.4456910000000  0.4393530000000 1.0
C      1  0.4430910000000  0.5543090000000  0.5606470000000 1.0
C      1  0.5569070000000  0.4456900000000  0.5606490000000 1.0
C      1  0.4262370000000  0.4584300000000  0.4720110000000 1.0
C      1  0.5737640000000  0.5415710000000  0.4720140000000 1.0
C      1  0.4262360000000  0.4584290000000  0.5279860000000 1.0
C      1  0.5737630000000  0.5415700000000  0.5279890000000 1.0
C      1  0.5958800000000  0.4745590000000  0.5275370000000 1.0
C      1  0.4041190000000  0.5254410000000  0.5275340000000 1.0
C      1  0.5958810000000  0.4745590000000  0.4724660000000 1.0
C      1  0.4041200000000  0.5254410000000  0.4724630000000 1.0
C      1  0.6012110000000  0.5268700000000  0.5302520000000 1.0
C      1  0.3987880000000  0.4731290000000  0.5302480000000 1.0
C      1  0.6012120000000  0.5268710000000  0.4697520000000 1.0
C      1  0.3987890000000  0.4731300000000  0.4697480000000 1.0
C      1  0.4887480000000  0.4346980000000  0.5271760000000 1.0
C      1  0.5112510000000  0.5653020000000  0.5271770000000 1.0
C      1  0.4887490000000  0.4346980000000  0.4728230000000 1.0
C      1  0.5112520000000  0.5653020000000  0.4728240000000 1.0
C      1  0.4842310000000  0.5708080000000  0.4844900000000 1.0
C      1  0.5157700000000  0.4291920000000  0.4844900000000 1.0
C      1  0.4842300000000  0.5708080000000  0.5155110000000 1.0
C      1  0.5157690000000  0.4291920000000  0.5155100000000 1.0
C      1  0.4541180000000  0.5312670000000  0.5715960000000 1.0
C      1  0.5458800000000  0.4687320000000  0.5715970000000 1.0
C      1  0.4541200000000  0.5312680000000  0.4284030000000 1.0
C      1  0.5458820000000  0.4687330000000  0.4284040000000 1.0
C      1  0.5999640000000  0.4994590000000  0.5419840000000 1.0
C      1  0.4000350000000  0.5005410000000  0.5419810000000 1.0
C      1  0.5999650000000  0.4994590000000  0.4580190000000 1.0
C      1  0.4000360000000  0.5005410000000  0.4580160000000 1.0
C      1  0.5236070000000  0.4727330000000  0.5885980000000 1.0
C      1  0.4763900000000  0.5272660000000  0.5885980000000 1.0
C      1  0.5236100000000  0.4727340000000  0.4114020000000 1.0
C      1  0.4763930000000  0.5272670000000  0.4114020000000 1.0
END
