TITL C-215422-2608-3 -0.458334358964856 125000 -1227.91062216391 0 0 181 (C1) n - 1
REM
REM in /rds/project/t2_vol4/rds-t2-cs072/BORA/CARBON/from-Arr/AIRSS/Generating-Clusters/GAP-ML-2020/Higher-Symm/SD-CG/HFTN-CG/C160-200
REM
REM
REM
REM
REM
REM ./C.cell (6b4489405718ea1b717e0baf1da4c2d9)
REM AIRSS Version 0.9.1 bugfix July 2018 build 013d7b7c2542+ Fri, 06 Jul 2018 19:26:36 +0100
REM compiler GCC version 9.3.0
REM options -cpp -mtune=generic -march=x86-64 -g -O0
REM seed 1798158538 -492448151 1395503873 -1465286254 1818637586 1028591796 -1333644500 1498297029 -1791429762 -1628867077 160581521 -103293416 782457655 -608622855 1627690575 -1520603605 -1999675319 -2092973741 1340602561 -481680947 -530369687 1389690827 317943996 1835570458 -16602184 -1877879956 -1624118199 -689513695 1565270052 -1490763807 -1880761796 -1534094709 1195905544
REM
CELL 1.54180   50.00000   50.00000   50.00000   90.00000   90.00000   90.00000
LATT -1
SFAC C  
C      1  0.5380590000000  0.5619920000000  0.5350720000000 1.0
C      1  0.5306090000000  0.5261020000000  0.5652140000000 1.0
C      1  0.5750410000000  0.5301590000000  0.5382800000000 1.0
C      1  0.5354930000000  0.4391410000000  0.4741220000000 1.0
C      1  0.4692160000000  0.4400510000000  0.5253120000000 1.0
C      1  0.4718350000000  0.5623240000000  0.4731580000000 1.0
C      1  0.5312740000000  0.4658790000000  0.4362460000000 1.0
C      1  0.4687300000000  0.4724660000000  0.5585240000000 1.0
C      1  0.4681560000000  0.5298470000000  0.4351580000000 1.0
C      1  0.5709970000000  0.4739750000000  0.4717770000000 1.0
C      1  0.4300000000000  0.4719560000000  0.5310720000000 1.0
C      1  0.4310190000000  0.5310510000000  0.4654300000000 1.0
C      1  0.4667790000000  0.5609900000000  0.5271570000000 1.0
C      1  0.4729030000000  0.5280690000000  0.5599870000000 1.0
C      1  0.4311050000000  0.5279700000000  0.5299580000000 1.0
C      1  0.4626930000000  0.4380080000000  0.4727900000000 1.0
C      1  0.5286010000000  0.4398300000000  0.5255410000000 1.0
C      1  0.5360810000000  0.5630460000000  0.4714480000000 1.0
C      1  0.4648690000000  0.4662310000000  0.4357040000000 1.0
C      1  0.5289680000000  0.4709010000000  0.5602170000000 1.0
C      1  0.5308940000000  0.5279460000000  0.4323080000000 1.0
C      1  0.4246720000000  0.4690090000000  0.4714880000000 1.0
C      1  0.5689680000000  0.4706140000000  0.5347800000000 1.0
C      1  0.5673230000000  0.5274350000000  0.4662150000000 1.0
C      1  0.5462320000000  0.4281630000000  0.5682910000000 1.0
C      1  0.5745200000000  0.5510290000000  0.4287740000000 1.0
C      1  0.4305030000000  0.5702880000000  0.5536640000000 1.0
C      1  0.5554140000000  0.5706140000000  0.4313990000000 1.0
C      1  0.4527130000000  0.5691560000000  0.5701450000000 1.0
C      1  0.4464050000000  0.4255580000000  0.4300130000000 1.0
C      1  0.5676520000000  0.4455250000000  0.5735260000000 1.0
C      1  0.4260000000000  0.4456150000000  0.4282360000000 1.0
C      1  0.4329130000000  0.5501670000000  0.5719020000000 1.0
C      1  0.4249280000000  0.4257180000000  0.4474340000000 1.0
C      1  0.5686780000000  0.4284630000000  0.5521490000000 1.0
C      1  0.5761010000000  0.5693830000000  0.4503240000000 1.0
C      1  0.4500180000000  0.4303780000000  0.5689010000000 1.0
C      1  0.4301640000000  0.5561290000000  0.4279220000000 1.0
C      1  0.5751840000000  0.5716520000000  0.5608010000000 1.0
C      1  0.4526450000000  0.5718930000000  0.4317340000000 1.0
C      1  0.5519600000000  0.5690460000000  0.5771250000000 1.0
C      1  0.5516020000000  0.4258680000000  0.4326320000000 1.0
C      1  0.4287050000000  0.4485890000000  0.5714960000000 1.0
C      1  0.5713210000000  0.4458710000000  0.4294690000000 1.0
C      1  0.5718920000000  0.5503490000000  0.5795000000000 1.0
C      1  0.5731340000000  0.4281720000000  0.4502090000000 1.0
C      1  0.4292710000000  0.4293350000000  0.5507040000000 1.0
C      1  0.4319000000000  0.5730610000000  0.4496030000000 1.0
C      1  0.4029750000000  0.4796940000000  0.5207390000000 1.0
C      1  0.5295310000000  0.4130040000000  0.4876270000000 1.0
C      1  0.4821090000000  0.5220450000000  0.4066470000000 1.0
C      1  0.3979030000000  0.5090840000000  0.4912940000000 1.0
C      1  0.6018780000000  0.5199790000000  0.5265060000000 1.0
C      1  0.5979970000000  0.4898060000000  0.4811300000000 1.0
C      1  0.5062790000000  0.5922770000000  0.5136810000000 1.0
C      1  0.4766040000000  0.5910700000000  0.4831310000000 1.0
C      1  0.4827370000000  0.4150150000000  0.5134490000000 1.0
C      1  0.4823220000000  0.4842080000000  0.5831320000000 1.0
C      1  0.5114040000000  0.4912240000000  0.4010420000000 1.0
C      1  0.5151910000000  0.5125080000000  0.5870570000000 1.0
C      1  0.6032980000000  0.4948360000000  0.5128260000000 1.0
C      1  0.4722660000000  0.4129540000000  0.4861630000000 1.0
C      1  0.5152770000000  0.5212320000000  0.4054860000000 1.0
C      1  0.5952120000000  0.5160140000000  0.4690430000000 1.0
C      1  0.4019460000000  0.5116470000000  0.5213920000000 1.0
C      1  0.3986660000000  0.4803920000000  0.4863410000000 1.0
C      1  0.4760100000000  0.5889100000000  0.5156660000000 1.0
C      1  0.5064340000000  0.5976760000000  0.4873700000000 1.0
C      1  0.5173370000000  0.4144200000000  0.5136420000000 1.0
C      1  0.5129020000000  0.4810840000000  0.5851840000000 1.0
C      1  0.4843020000000  0.4919780000000  0.4010450000000 1.0
C      1  0.4847530000000  0.5161330000000  0.5856590000000 1.0
C      1  0.5541150000000  0.4991240000000  0.6059420000000 1.0
C      1  0.6090950000000  0.5609310000000  0.5014150000000 1.0
C      1  0.5069050000000  0.5961740000000  0.5565360000000 1.0
C      1  0.5557930000000  0.4904340000000  0.4002620000000 1.0
C      1  0.4423080000000  0.4972320000000  0.6013570000000 1.0
C      1  0.4443570000000  0.5104740000000  0.3800760000000 1.0
C      1  0.6258520000000  0.4525110000000  0.4930740000000 1.0
C      1  0.3937700000000  0.4366710000000  0.5095560000000 1.0
C      1  0.3986400000000  0.5548430000000  0.4942300000000 1.0
C      1  0.5172360000000  0.3769460000000  0.4547750000000 1.0
C      1  0.4951900000000  0.4007740000000  0.5550910000000 1.0
C      1  0.4899110000000  0.6178170000000  0.4458310000000 1.0
C      1  0.4494900000000  0.5147790000000  0.6223160000000 1.0
C      1  0.3777830000000  0.5503570000000  0.5119120000000 1.0
C      1  0.4880740000000  0.6167920000000  0.5533360000000 1.0
C      1  0.4399270000000  0.4925740000000  0.4011220000000 1.0
C      1  0.5443020000000  0.4799240000000  0.6242630000000 1.0
C      1  0.5516930000000  0.5069670000000  0.3782070000000 1.0
C      1  0.3702290000000  0.4429470000000  0.4956660000000 1.0
C      1  0.6034680000000  0.4482340000000  0.5089330000000 1.0
C      1  0.6269240000000  0.5527820000000  0.4794620000000 1.0
C      1  0.4969630000000  0.3965530000000  0.4486390000000 1.0
C      1  0.5127970000000  0.3792190000000  0.5499110000000 1.0
C      1  0.5078830000000  0.5962420000000  0.4441630000000 1.0
C      1  0.5248430000000  0.4673900000000  0.4832990000000 1.0
C      1  0.4737030000000  0.5103280000000  0.4589710000000 1.0
C      1  0.4496040000000  0.4885600000000  0.5158920000000 1.0
C      1  0.5314160000000  0.5366170000000  0.5190990000000 1.0
C      1  0.4924490000000  0.5417260000000  0.4885340000000 1.0
C      1  0.4840350000000  0.4643320000000  0.5120690000000 1.0
C      1  0.4748640000000  0.4861100000000  0.5314970000000 1.0
C      1  0.5135430000000  0.4807030000000  0.4563110000000 1.0
C      1  0.5168700000000  0.5157750000000  0.5375170000000 1.0
C      1  0.4501440000000  0.5114840000000  0.4781190000000 1.0
C      1  0.5558500000000  0.5196250000000  0.5202680000000 1.0
C      1  0.5482950000000  0.4865370000000  0.4888360000000 1.0
C      1  0.4722550000000  0.4660180000000  0.4818270000000 1.0
C      1  0.5209240000000  0.5104400000000  0.4567480000000 1.0
C      1  0.5518830000000  0.4907690000000  0.5187990000000 1.0
C      1  0.4767060000000  0.5346500000000  0.5139350000000 1.0
C      1  0.5233220000000  0.5422900000000  0.4910360000000 1.0
C      1  0.5139220000000  0.4642800000000  0.5127360000000 1.0
C      1  0.5253090000000  0.4861210000000  0.5326810000000 1.0
C      1  0.4828820000000  0.4806130000000  0.4563600000000 1.0
C      1  0.4866670000000  0.5155730000000  0.5354240000000 1.0
C      1  0.5418350000000  0.5151950000000  0.4775350000000 1.0
C      1  0.4512460000000  0.5184180000000  0.5087450000000 1.0
C      1  0.4472780000000  0.4820820000000  0.4860270000000 1.0
C      1  0.5631510000000  0.5238020000000  0.5666380000000 1.0
C      1  0.5692190000000  0.5614680000000  0.5327950000000 1.0
C      1  0.5279170000000  0.5558690000000  0.5639950000000 1.0
C      1  0.5635230000000  0.4733950000000  0.4416470000000 1.0
C      1  0.4363830000000  0.4748190000000  0.5605180000000 1.0
C      1  0.4365360000000  0.5279220000000  0.4356230000000 1.0
C      1  0.5674810000000  0.4426780000000  0.4758900000000 1.0
C      1  0.4377820000000  0.4419600000000  0.5244190000000 1.0
C      1  0.4406930000000  0.5593030000000  0.4747250000000 1.0
C      1  0.5262890000000  0.4364820000000  0.4435780000000 1.0
C      1  0.4736710000000  0.4427760000000  0.5561110000000 1.0
C      1  0.4761610000000  0.5588330000000  0.4424800000000 1.0
C      1  0.4411950000000  0.5243710000000  0.5594440000000 1.0
C      1  0.4354950000000  0.5593140000000  0.5268150000000 1.0
C      1  0.4760470000000  0.5582580000000  0.5570450000000 1.0
C      1  0.4321720000000  0.4730950000000  0.4415930000000 1.0
C      1  0.5604900000000  0.4730380000000  0.5647720000000 1.0
C      1  0.5625480000000  0.5247160000000  0.4348180000000 1.0
C      1  0.4302930000000  0.4385700000000  0.4744800000000 1.0
C      1  0.5604970000000  0.4416990000000  0.5263470000000 1.0
C      1  0.5665710000000  0.5584750000000  0.4761590000000 1.0
C      1  0.4715120000000  0.4368850000000  0.4420600000000 1.0
C      1  0.5235570000000  0.4410820000000  0.5557370000000 1.0
C      1  0.5290080000000  0.5569290000000  0.4400080000000 1.0
C      1  0.5362920000000  0.5204850000000  0.6044220000000 1.0
C      1  0.6161530000000  0.5418050000000  0.5191870000000 1.0
C      1  0.5239010000000  0.5889430000000  0.5341890000000 1.0
C      1  0.5325050000000  0.4745780000000  0.4074160000000 1.0
C      1  0.4603280000000  0.4754050000000  0.5992940000000 1.0
C      1  0.4646830000000  0.5264970000000  0.3806380000000 1.0
C      1  0.6242250000000  0.4729690000000  0.4777630000000 1.0
C      1  0.3924850000000  0.4557240000000  0.5301830000000 1.0
C      1  0.4034190000000  0.5320540000000  0.4767670000000 1.0
C      1  0.5304750000000  0.3901650000000  0.4723610000000 1.0
C      1  0.4743770000000  0.4011540000000  0.5368510000000 1.0
C      1  0.4710140000000  0.6126090000000  0.4634280000000 1.0
C      1  0.4687970000000  0.5262450000000  0.6093820000000 1.0
C      1  0.3772250000000  0.5293240000000  0.5269880000000 1.0
C      1  0.4701380000000  0.6116710000000  0.5347460000000 1.0
C      1  0.4627510000000  0.4759700000000  0.4073050000000 1.0
C      1  0.5262920000000  0.4685200000000  0.6096040000000 1.0
C      1  0.5320380000000  0.5238350000000  0.3791410000000 1.0
C      1  0.3729270000000  0.4644240000000  0.4817940000000 1.0
C      1  0.5974420000000  0.4706870000000  0.5258600000000 1.0
C      1  0.6161980000000  0.5334680000000  0.4665110000000 1.0
C      1  0.4765130000000  0.3956190000000  0.4663090000000 1.0
C      1  0.5257880000000  0.3929770000000  0.5324390000000 1.0
C      1  0.5244100000000  0.5914440000000  0.4677820000000 1.0
C      1  0.4284070000000  0.4990900000000  0.4259080000000 1.0
C      1  0.4325560000000  0.5001880000000  0.5746980000000 1.0
C      1  0.5687380000000  0.4970260000000  0.4243550000000 1.0
C      1  0.5668300000000  0.4974610000000  0.5803880000000 1.0
C      1  0.4242160000000  0.5658280000000  0.4994790000000 1.0
C      1  0.5805770000000  0.5661530000000  0.5025670000000 1.0
C      1  0.5784970000000  0.4362560000000  0.5029570000000 1.0
C      1  0.5030970000000  0.5703180000000  0.4348000000000 1.0
C      1  0.4982170000000  0.4284980000000  0.5627480000000 1.0
C      1  0.4208710000000  0.4321210000000  0.5019440000000 1.0
C      1  0.5020350000000  0.5703350000000  0.5657930000000 1.0
C      1  0.4991240000000  0.4238380000000  0.4382190000000 1.0
C      1  0.4969320000000  0.5201430000000  0.4708220000000 1.0
END
