TITL C-215407-2524-4 0.138164962751121 125000 -1168.10510488531 0 0 168 (C1) n - 1
REM
REM in /rds/project/t2_vol4/rds-t2-cs072/BORA/CARBON/from-Arr/AIRSS/Generating-Clusters/GAP-ML-2020/Higher-Symm/SD-CG/HFTN-CG/C160-200
REM
REM
REM
REM
REM
REM ./C.cell (6b4489405718ea1b717e0baf1da4c2d9)
REM AIRSS Version 0.9.1 bugfix July 2018 build 013d7b7c2542+ Fri, 06 Jul 2018 19:26:36 +0100
REM compiler GCC version 9.3.0
REM options -cpp -mtune=generic -march=x86-64 -g -O0
REM seed 139083509 23427423 -772621505 373443619 291085620 -815190138 102561306 761717997 -756502223 -376554308 -111064398 407156600 -2122011820 311717699 511261846 -1966401798 1276858977 1135460649 948158728 -1340878601 1962329169 -1899127550 793691141 -1238436299 -1351691130 -1443821434 1065491376 1629187578 -785095268 1823308825 -1199625242 -704733916 346494512
REM
CELL 1.54180   50.00000   50.00000   50.00000   90.00000   90.00000   90.00000
LATT -1
SFAC C  
C      1  0.5701530000000  0.4475370000000  0.5120220000000 1.0
C      1  0.5703420000000  0.5361740000000  0.5420460000000 1.0
C      1  0.5719440000000  0.5181800000000  0.4457010000000 1.0
C      1  0.4304930000000  0.4470430000000  0.4891710000000 1.0
C      1  0.4268590000000  0.5383300000000  0.4557220000000 1.0
C      1  0.4312000000000  0.5154610000000  0.5510130000000 1.0
C      1  0.5796510000000  0.4902230000000  0.4473050000000 1.0
C      1  0.5795070000000  0.4603830000000  0.5362650000000 1.0
C      1  0.5781310000000  0.5494000000000  0.5172090000000 1.0
C      1  0.4212180000000  0.4885430000000  0.5521010000000 1.0
C      1  0.4219910000000  0.4609540000000  0.4648730000000 1.0
C      1  0.4195420000000  0.5505300000000  0.4813820000000 1.0
C      1  0.5485230000000  0.5976050000000  0.4660240000000 1.0
C      1  0.5475490000000  0.4232380000000  0.4332150000000 1.0
C      1  0.5490650000000  0.4796300000000  0.6034780000000 1.0
C      1  0.4521260000000  0.5958190000000  0.5329480000000 1.0
C      1  0.4519290000000  0.4213410000000  0.5686520000000 1.0
C      1  0.4513650000000  0.4805550000000  0.3973270000000 1.0
C      1  0.4764230000000  0.5369120000000  0.4734250000000 1.0
C      1  0.4771650000000  0.4669180000000  0.4863050000000 1.0
C      1  0.4763440000000  0.4982460000000  0.5541620000000 1.0
C      1  0.5230050000000  0.5297410000000  0.5225060000000 1.0
C      1  0.5221600000000  0.4630240000000  0.5165120000000 1.0
C      1  0.5230470000000  0.5043410000000  0.4553030000000 1.0
C      1  0.5686950000000  0.5785680000000  0.4763580000000 1.0
C      1  0.5675310000000  0.4421820000000  0.4439180000000 1.0
C      1  0.5694490000000  0.4801280000000  0.5819030000000 1.0
C      1  0.4320620000000  0.5772380000000  0.5218160000000 1.0
C      1  0.4318940000000  0.4401820000000  0.5575970000000 1.0
C      1  0.4307180000000  0.4813020000000  0.4184210000000 1.0
C      1  0.4916350000000  0.4038840000000  0.5448560000000 1.0
C      1  0.4914780000000  0.5840140000000  0.5601970000000 1.0
C      1  0.4907630000000  0.5102240000000  0.3933220000000 1.0
C      1  0.5080920000000  0.4057420000000  0.4570820000000 1.0
C      1  0.5092820000000  0.5867710000000  0.4379630000000 1.0
C      1  0.5093410000000  0.5091940000000  0.6081190000000 1.0
C      1  0.6060380000000  0.4898710000000  0.4879260000000 1.0
C      1  0.6056360000000  0.4947280000000  0.5154870000000 1.0
C      1  0.6056260000000  0.5160630000000  0.4977300000000 1.0
C      1  0.3945620000000  0.4886840000000  0.5117360000000 1.0
C      1  0.3940510000000  0.4934020000000  0.4844300000000 1.0
C      1  0.3932950000000  0.5151280000000  0.5022600000000 1.0
C      1  0.5120700000000  0.5208370000000  0.4097310000000 1.0
C      1  0.5125630000000  0.4137030000000  0.5272700000000 1.0
C      1  0.5128150000000  0.5644510000000  0.5604070000000 1.0
C      1  0.4890120000000  0.5217740000000  0.5920140000000 1.0
C      1  0.4865790000000  0.4157320000000  0.4737690000000 1.0
C      1  0.4879340000000  0.5673860000000  0.4364370000000 1.0
C      1  0.5626880000000  0.5282720000000  0.4732290000000 1.0
C      1  0.5613270000000  0.4671860000000  0.4888580000000 1.0
C      1  0.5626470000000  0.5066700000000  0.5386490000000 1.0
C      1  0.4386230000000  0.5257060000000  0.5220170000000 1.0
C      1  0.4384580000000  0.4647950000000  0.5132410000000 1.0
C      1  0.4358580000000  0.5094180000000  0.4599060000000 1.0
C      1  0.5749470000000  0.4682560000000  0.4305870000000 1.0
C      1  0.5755540000000  0.4559720000000  0.5638690000000 1.0
C      1  0.5747790000000  0.5750800000000  0.5063650000000 1.0
C      1  0.4252950000000  0.4672870000000  0.5699430000000 1.0
C      1  0.4249690000000  0.4571630000000  0.4371570000000 1.0
C      1  0.4246470000000  0.5757970000000  0.4924610000000 1.0
C      1  0.4922380000000  0.4447290000000  0.5696550000000 1.0
C      1  0.4920900000000  0.5836930000000  0.5124620000000 1.0
C      1  0.4911440000000  0.4692610000000  0.4186190000000 1.0
C      1  0.5076720000000  0.4468570000000  0.4327810000000 1.0
C      1  0.5085360000000  0.5847340000000  0.4860860000000 1.0
C      1  0.5089290000000  0.4675590000000  0.5834960000000 1.0
C      1  0.4449010000000  0.5587190000000  0.5593230000000 1.0
C      1  0.4429550000000  0.5233780000000  0.4138830000000 1.0
C      1  0.4438030000000  0.4166410000000  0.5228970000000 1.0
C      1  0.5567180000000  0.5617420000000  0.4376110000000 1.0
C      1  0.5567670000000  0.5218490000000  0.5851160000000 1.0
C      1  0.5552920000000  0.4187540000000  0.4785570000000 1.0
C      1  0.4637820000000  0.5824710000000  0.5561440000000 1.0
C      1  0.4629520000000  0.5076990000000  0.3965320000000 1.0
C      1  0.4637600000000  0.4079280000000  0.5453830000000 1.0
C      1  0.5370030000000  0.5848300000000  0.4421440000000 1.0
C      1  0.5373310000000  0.5065990000000  0.6040850000000 1.0
C      1  0.5357920000000  0.4100500000000  0.4565100000000 1.0
C      1  0.5501490000000  0.4991360000000  0.5644690000000 1.0
C      1  0.5493270000000  0.5541020000000  0.4677140000000 1.0
C      1  0.5480740000000  0.4484640000000  0.4697270000000 1.0
C      1  0.4500830000000  0.5009860000000  0.4352180000000 1.0
C      1  0.4517080000000  0.5514490000000  0.5291660000000 1.0
C      1  0.4510080000000  0.4457180000000  0.5320960000000 1.0
C      1  0.4802090000000  0.4922880000000  0.4384120000000 1.0
C      1  0.4814070000000  0.4511090000000  0.5389880000000 1.0
C      1  0.4817500000000  0.5535430000000  0.5221230000000 1.0
C      1  0.5202680000000  0.4902840000000  0.5633910000000 1.0
C      1  0.5177620000000  0.4538510000000  0.4634410000000 1.0
C      1  0.5192360000000  0.5560410000000  0.4760420000000 1.0
C      1  0.5651300000000  0.5946150000000  0.5239840000000 1.0
C      1  0.5646860000000  0.4732990000000  0.4051940000000 1.0
C      1  0.5656850000000  0.4311180000000  0.5716940000000 1.0
C      1  0.4352840000000  0.5951370000000  0.4754710000000 1.0
C      1  0.4350140000000  0.4731070000000  0.5954130000000 1.0
C      1  0.4344930000000  0.4320500000000  0.4292000000000 1.0
C      1  0.5589440000000  0.5344060000000  0.4252740000000 1.0
C      1  0.5583590000000  0.4215370000000  0.5080760000000 1.0
C      1  0.5588310000000  0.5456670000000  0.5666130000000 1.0
C      1  0.4429750000000  0.5321170000000  0.5719230000000 1.0
C      1  0.4410510000000  0.4206910000000  0.4931740000000 1.0
C      1  0.4407620000000  0.5477150000000  0.4317720000000 1.0
C      1  0.4966300000000  0.5440240000000  0.4535820000000 1.0
C      1  0.4951540000000  0.4423720000000  0.4859600000000 1.0
C      1  0.4974090000000  0.5160550000000  0.5629840000000 1.0
C      1  0.5039700000000  0.5401830000000  0.5437230000000 1.0
C      1  0.5031460000000  0.4404970000000  0.5156900000000 1.0
C      1  0.5031270000000  0.5177870000000  0.4384160000000 1.0
C      1  0.5041040000000  0.4855080000000  0.3964180000000 1.0
C      1  0.5048070000000  0.4175180000000  0.5658820000000 1.0
C      1  0.5047900000000  0.5944460000000  0.5377210000000 1.0
C      1  0.4961490000000  0.4841160000000  0.6057970000000 1.0
C      1  0.4949270000000  0.4195770000000  0.4363460000000 1.0
C      1  0.4958590000000  0.5962630000000  0.4609320000000 1.0
C      1  0.4566910000000  0.4339650000000  0.4100700000000 1.0
C      1  0.4570220000000  0.4555240000000  0.6031650000000 1.0
C      1  0.4574710000000  0.6101330000000  0.4871050000000 1.0
C      1  0.5437570000000  0.4327130000000  0.5912200000000 1.0
C      1  0.5425200000000  0.4557360000000  0.3976650000000 1.0
C      1  0.5430500000000  0.6101670000000  0.5124930000000 1.0
C      1  0.4196850000000  0.4225690000000  0.5382470000000 1.0
C      1  0.4205600000000  0.5689570000000  0.5466290000000 1.0
C      1  0.4186580000000  0.5069560000000  0.4125520000000 1.0
C      1  0.5793620000000  0.4246420000000  0.4631940000000 1.0
C      1  0.5808290000000  0.5709930000000  0.4513270000000 1.0
C      1  0.5812110000000  0.5059570000000  0.5871750000000 1.0
C      1  0.4151580000000  0.4776700000000  0.5264450000000 1.0
C      1  0.4144280000000  0.5330320000000  0.5038770000000 1.0
C      1  0.4153090000000  0.4884040000000  0.4673410000000 1.0
C      1  0.5845800000000  0.4796190000000  0.4736480000000 1.0
C      1  0.5839120000000  0.5330360000000  0.4946110000000 1.0
C      1  0.5854140000000  0.4880650000000  0.5329520000000 1.0
C      1  0.5417210000000  0.5689230000000  0.5644690000000 1.0
C      1  0.5417680000000  0.5216340000000  0.4055390000000 1.0
C      1  0.5419940000000  0.4097950000000  0.5290830000000 1.0
C      1  0.4582550000000  0.5708900000000  0.4334550000000 1.0
C      1  0.4586880000000  0.5209680000000  0.5940860000000 1.0
C      1  0.4576400000000  0.4103250000000  0.4718300000000 1.0
C      1  0.5354470000000  0.4849270000000  0.4958470000000 1.0
C      1  0.5354110000000  0.5032190000000  0.5228150000000 1.0
C      1  0.5354890000000  0.5146480000000  0.4797080000000 1.0
C      1  0.4663300000000  0.4818660000000  0.5099960000000 1.0
C      1  0.4625380000000  0.5107870000000  0.4750120000000 1.0
C      1  0.4620960000000  0.5111720000000  0.5053620000000 1.0
C      1  0.4491110000000  0.4970260000000  0.6056290000000 1.0
C      1  0.4490790000000  0.5923480000000  0.4494920000000 1.0
C      1  0.4484770000000  0.4114950000000  0.4450520000000 1.0
C      1  0.5509270000000  0.4971930000000  0.3946980000000 1.0
C      1  0.5510070000000  0.5912470000000  0.5496450000000 1.0
C      1  0.5514010000000  0.4107390000000  0.5558000000000 1.0
C      1  0.4707060000000  0.4783200000000  0.6137990000000 1.0
C      1  0.4710330000000  0.6075980000000  0.4620770000000 1.0
C      1  0.4704470000000  0.4138540000000  0.4253700000000 1.0
C      1  0.5290150000000  0.4787600000000  0.3873940000000 1.0
C      1  0.5292020000000  0.6069380000000  0.5374340000000 1.0
C      1  0.5298510000000  0.4126980000000  0.5758760000000 1.0
C      1  0.5162370000000  0.5339120000000  0.4953810000000 1.0
C      1  0.5134630000000  0.4818320000000  0.4697710000000 1.0
C      1  0.5158350000000  0.4829920000000  0.5356820000000 1.0
C      1  0.4855070000000  0.5338720000000  0.5007340000000 1.0
C      1  0.4839870000000  0.4800020000000  0.5346570000000 1.0
C      1  0.4825520000000  0.4869500000000  0.4671900000000 1.0
C      1  0.4686420000000  0.6035320000000  0.5116900000000 1.0
C      1  0.4676720000000  0.4583010000000  0.4025640000000 1.0
C      1  0.4680530000000  0.4368130000000  0.5857360000000 1.0
C      1  0.5320420000000  0.6044100000000  0.4876850000000 1.0
C      1  0.5329330000000  0.4569870000000  0.5991160000000 1.0
C      1  0.5312480000000  0.4377020000000  0.4156000000000 1.0
END
