TITL C-21824-7451-3 -0.129551988658466 125000 -693.242005112741 0 0 101 (C2) n - 1
REM
REM in /rds/project/t2_vol4/rds-t2-cs072/BORA/CARBON/from-Arr/AIRSS/Generating-Clusters/GAP-ML-2020/Higher-Symm/SD-CG/HFTN-CG
REM
REM
REM
REM
REM
REM ./C.cell (b20cbc046b6831c77cfcea5457e17084)
REM AIRSS Version 0.9.1 bugfix July 2018 build 013d7b7c2542+ Fri, 06 Jul 2018 19:26:36 +0100
REM compiler GCC version 9.3.0
REM options -cpp -mtune=generic -march=x86-64 -g -O0
REM seed 358831450 34822857 -19888735 398727987 -1824467608 2132614842 -471002021 -2109312158 1805807071 10976033 -1109756182 903608737 1579496551 725104503 -2071620546 825937011 679764377 921038440 -1746991787 -630655967 -960057771 320844973 -136059547 -2070189812 1475213839 1078420243 2104737890 -373204338 -744849719 -103838868 2032184598 1934679026 -252209801
REM
CELL 1.54180   50.00000   50.00000   50.00000   90.00000   90.00000   90.00000
LATT -1
SFAC C  
C      1  0.4854150000000  0.4464010000000  0.5130990000000 1.0
C      1  0.5154890000000  0.5571180000000  0.5156730000000 1.0
C      1  0.4862170000000  0.4466830000000  0.4838920000000 1.0
C      1  0.5150650000000  0.5564050000000  0.4861410000000 1.0
C      1  0.5150910000000  0.4433930000000  0.5140870000000 1.0
C      1  0.4861860000000  0.5531000000000  0.5163310000000 1.0
C      1  0.5155220000000  0.4426800000000  0.4845550000000 1.0
C      1  0.4853900000000  0.5533810000000  0.4871230000000 1.0
C      1  0.5708030000000  0.4790150000000  0.5605080000000 1.0
C      1  0.4336680000000  0.5249050000000  0.5606900000000 1.0
C      1  0.5717270000000  0.4751590000000  0.4405300000000 1.0
C      1  0.4338790000000  0.5201870000000  0.4397540000000 1.0
C      1  0.4338770000000  0.4795690000000  0.5604580000000 1.0
C      1  0.5717020000000  0.5246690000000  0.5597100000000 1.0
C      1  0.4336940000000  0.4748510000000  0.4395220000000 1.0
C      1  0.5708040000000  0.5208120000000  0.4397320000000 1.0
C      1  0.5173210000000  0.4860010000000  0.5371490000000 1.0
C      1  0.4875020000000  0.5130920000000  0.5470370000000 1.0
C      1  0.5163870000000  0.4860380000000  0.4608400000000 1.0
C      1  0.4890970000000  0.5177660000000  0.4565400000000 1.0
C      1  0.4890970000000  0.4820180000000  0.5436830000000 1.0
C      1  0.5163710000000  0.5137610000000  0.5393880000000 1.0
C      1  0.4875190000000  0.4866920000000  0.4531860000000 1.0
C      1  0.5173210000000  0.5137990000000  0.4630790000000 1.0
C      1  0.5155770000000  0.4272840000000  0.4396260000000 1.0
C      1  0.4848630000000  0.5699750000000  0.4417990000000 1.0
C      1  0.5134330000000  0.4320860000000  0.5599760000000 1.0
C      1  0.4856500000000  0.5723980000000  0.5603020000000 1.0
C      1  0.4857000000000  0.4273850000000  0.4399200000000 1.0
C      1  0.5134110000000  0.5677110000000  0.4402520000000 1.0
C      1  0.4848870000000  0.4298080000000  0.5584230000000 1.0
C      1  0.5155270000000  0.5725150000000  0.5606020000000 1.0
C      1  0.4466930000000  0.4418890000000  0.4672400000000 1.0
C      1  0.5539300000000  0.5557730000000  0.4633040000000 1.0
C      1  0.4457030000000  0.4438940000000  0.5341960000000 1.0
C      1  0.5557510000000  0.5592500000000  0.5336570000000 1.0
C      1  0.5557890000000  0.4405700000000  0.4665800000000 1.0
C      1  0.4456810000000  0.5558680000000  0.4660180000000 1.0
C      1  0.5539510000000  0.4440450000000  0.5369320000000 1.0
C      1  0.4466560000000  0.5578740000000  0.5329740000000 1.0
C      1  0.4434250000000  0.5464540000000  0.4398240000000 1.0
C      1  0.5580750000000  0.4492880000000  0.4397220000000 1.0
C      1  0.4439240000000  0.5511230000000  0.5600590000000 1.0
C      1  0.5544730000000  0.4554530000000  0.5627580000000 1.0
C      1  0.5544630000000  0.5443650000000  0.4374790000000 1.0
C      1  0.4439630000000  0.4486390000000  0.4401540000000 1.0
C      1  0.5580360000000  0.5505320000000  0.5605150000000 1.0
C      1  0.4434360000000  0.4533070000000  0.5603890000000 1.0
C      1  0.5365880000000  0.4378270000000  0.4246290000000 1.0
C      1  0.4686130000000  0.5510590000000  0.4259010000000 1.0
C      1  0.5281260000000  0.4519610000000  0.5770420000000 1.0
C      1  0.4642150000000  0.5638700000000  0.5756940000000 1.0
C      1  0.4642640000000  0.4359020000000  0.4245240000000 1.0
C      1  0.5281170000000  0.5478440000000  0.4231890000000 1.0
C      1  0.4686240000000  0.4487150000000  0.5743180000000 1.0
C      1  0.5365400000000  0.5619820000000  0.5756030000000 1.0
C      1  0.5275430000000  0.4724630000000  0.5139950000000 1.0
C      1  0.4744520000000  0.5235630000000  0.5226750000000 1.0
C      1  0.5277420000000  0.4711510000000  0.4831300000000 1.0
C      1  0.4742330000000  0.5241400000000  0.4802690000000 1.0
C      1  0.4742410000000  0.4756370000000  0.5199510000000 1.0
C      1  0.5277240000000  0.5286540000000  0.5171010000000 1.0
C      1  0.4744690000000  0.4762140000000  0.4775440000000 1.0
C      1  0.5275320000000  0.5273420000000  0.4862360000000 1.0
C      1  0.5588620000000  0.5346110000000  0.5155810000000 1.0
C      1  0.4433510000000  0.4680700000000  0.5156810000000 1.0
C      1  0.5581520000000  0.5331450000000  0.4842080000000 1.0
C      1  0.4432120000000  0.4668590000000  0.4842140000000 1.0
C      1  0.4431910000000  0.5329010000000  0.5159990000000 1.0
C      1  0.5581660000000  0.4666760000000  0.5160290000000 1.0
C      1  0.4433380000000  0.5316910000000  0.4845330000000 1.0
C      1  0.5588830000000  0.4652100000000  0.4846570000000 1.0
C      1  0.4267090000000  0.5159560000000  0.5338210000000 1.0
C      1  0.5733130000000  0.4865390000000  0.5322280000000 1.0
C      1  0.4272730000000  0.5128410000000  0.4665800000000 1.0
C      1  0.5739660000000  0.4842990000000  0.4682940000000 1.0
C      1  0.5739510000000  0.5155300000000  0.5319470000000 1.0
C      1  0.4272730000000  0.4869120000000  0.5336290000000 1.0
C      1  0.5733120000000  0.5132900000000  0.4680120000000 1.0
C      1  0.4267240000000  0.4837960000000  0.4663890000000 1.0
C      1  0.4842900000000  0.4724880000000  0.5717400000000 1.0
C      1  0.5016520000000  0.4988720000000  0.5927960000000 1.0
C      1  0.4773060000000  0.4959890000000  0.4254750000000 1.0
C      1  0.5103570000000  0.5266130000000  0.4131310000000 1.0
C      1  0.5103530000000  0.4731830000000  0.5870960000000 1.0
C      1  0.4772880000000  0.5037890000000  0.5747450000000 1.0
C      1  0.5016700000000  0.5009200000000  0.4074290000000 1.0
C      1  0.4842900000000  0.5272940000000  0.4284820000000 1.0
C      1  0.4712890000000  0.5691090000000  0.4671400000000 1.0
C      1  0.5293270000000  0.4266930000000  0.4662370000000 1.0
C      1  0.4726140000000  0.5701760000000  0.5338670000000 1.0
C      1  0.5284700000000  0.4301770000000  0.5354640000000 1.0
C      1  0.5284410000000  0.5696280000000  0.4647680000000 1.0
C      1  0.4726570000000  0.4296000000000  0.4663530000000 1.0
C      1  0.5292820000000  0.5731120000000  0.5339940000000 1.0
C      1  0.4713180000000  0.4306660000000  0.5330790000000 1.0
C      1  0.5739650000000  0.4975270000000  0.4244640000000 1.0
C      1  0.4463430000000  0.5030200000000  0.5739470000000 1.0
C      1  0.5739480000000  0.5023020000000  0.5757760000000 1.0
C      1  0.4463600000000  0.4967430000000  0.4262670000000 1.0
C      1  0.4802100000000  0.4998900000000  0.5001110000000 1.0
END
