TITL C-21986-5550-4 26.0326993669849 125000 -261.891657992031 0 0 36 (D6h) n - 1
REM
REM in /rds/project/t2_vol4/rds-t2-cs072/BORA/CARBON/from-Arr/AIRSS/Generating-Clusters/GAP-ML-2020/Higher-Symm/SD-CG/HFTN-CG
REM
REM
REM
REM
REM
REM ./C.cell (b20cbc046b6831c77cfcea5457e17084)
REM AIRSS Version 0.9.1 bugfix July 2018 build 013d7b7c2542+ Fri, 06 Jul 2018 19:26:36 +0100
REM compiler GCC version 9.3.0
REM options -cpp -mtune=generic -march=x86-64 -g -O0
REM seed 1778819705 1559282707 -218257095 -282198801 1470438494 -537659229 1466593771 -433708928 121029181 -1889217749 -2099923310 -1234613865 -2048764073 699326294 742258178 1391517001 909182899 1763790966 804343816 -2072741307 984477719 -400208482 1038716614 894981580 -1985106916 -1634918785 -2107667565 1784003419 -421688277 -799115687 1474585048 -735107403 2044350581
REM
CELL 1.54180   50.00000   50.00000   50.00000   90.00000   90.00000   90.00000
LATT -1
SFAC C  
C      1  0.4857370000000  0.4483410000000  0.5247060000000 1.0
C      1  0.4714750000000  0.4483400000000  0.5000060000000 1.0
C      1  0.4857360000000  0.4483370000000  0.4753050000000 1.0
C      1  0.5142570000000  0.4483350000000  0.4753040000000 1.0
C      1  0.5285190000000  0.4483370000000  0.5000040000000 1.0
C      1  0.5142590000000  0.4483400000000  0.5247050000000 1.0
C      1  0.5142640000000  0.5516630000000  0.5246950000000 1.0
C      1  0.5285250000000  0.5516600000000  0.4999940000000 1.0
C      1  0.5142630000000  0.5516590000000  0.4752940000000 1.0
C      1  0.4857410000000  0.5516600000000  0.4752950000000 1.0
C      1  0.4714810000000  0.5516630000000  0.4999960000000 1.0
C      1  0.4857430000000  0.5516650000000  0.5246960000000 1.0
C      1  0.5433130000000  0.4856650000000  0.5250070000000 1.0
C      1  0.5000010000000  0.4856690000000  0.5500140000000 1.0
C      1  0.4566870000000  0.4856690000000  0.5250090000000 1.0
C      1  0.4566860000000  0.4856650000000  0.4749960000000 1.0
C      1  0.4999980000000  0.4856600000000  0.4499880000000 1.0
C      1  0.5433110000000  0.4856600000000  0.4749940000000 1.0
C      1  0.4566890000000  0.5143400000000  0.5250060000000 1.0
C      1  0.5000020000000  0.5143400000000  0.5500120000000 1.0
C      1  0.5433140000000  0.5143350000000  0.5250040000000 1.0
C      1  0.5433130000000  0.5143310000000  0.4749910000000 1.0
C      1  0.4999990000000  0.5143310000000  0.4499860000000 1.0
C      1  0.4566870000000  0.5143350000000  0.4749930000000 1.0
C      1  0.5232950000000  0.5283630000000  0.4596500000000 1.0
C      1  0.5465900000000  0.5283650000000  0.4999960000000 1.0
C      1  0.5232970000000  0.5283700000000  0.5403440000000 1.0
C      1  0.4767080000000  0.5283720000000  0.5403450000000 1.0
C      1  0.4534130000000  0.5283700000000  0.4999990000000 1.0
C      1  0.4767060000000  0.5283650000000  0.4596510000000 1.0
C      1  0.4767030000000  0.4716300000000  0.4596560000000 1.0
C      1  0.4534100000000  0.4716350000000  0.5000040000000 1.0
C      1  0.4767050000000  0.4716370000000  0.5403500000000 1.0
C      1  0.5232940000000  0.4716350000000  0.5403490000000 1.0
C      1  0.5465870000000  0.4716300000000  0.5000010000000 1.0
C      1  0.5232920000000  0.4716280000000  0.4596550000000 1.0
END
