TITL C-214971-2946-1 -113.553001661102 125000 -360.874727523881 0 0 51 (Cs) n - 1
REM
REM in /rds/project/t2_vol4/rds-t2-cs072/BORA/CARBON/from-Arr/AIRSS/Generating-Clusters/GAP-ML-2020/Higher-Symm/SD-CG/HFTN-CG
REM
REM
REM
REM
REM
REM ./C.cell (b20cbc046b6831c77cfcea5457e17084)
REM AIRSS Version 0.9.1 bugfix July 2018 build 013d7b7c2542+ Fri, 06 Jul 2018 19:26:36 +0100
REM compiler GCC version 9.3.0
REM options -cpp -mtune=generic -march=x86-64 -g -O0
REM seed 2063225808 1243710882 -785646042 -298176895 574370113 -1288324387 79221115 821806839 -2132842273 -1748427334 -472700843 1100715434 781290081 -939400955 2137777282 -847610115 -714142885 991973858 885984684 -1931113152 780765339 -1415763001 317147429 748944004 538587369 -1220001531 -1663033221 1378808773 -1538641989 1229112141 -137119918 853741718 -591375237
REM
CELL 1.54180   50.00000   50.00000   50.00000   90.00000   90.00000   90.00000
LATT -1
SFAC C  
C      1  0.5480350000000  0.4543750000000  0.4981430000000 1.0
C      1  0.5492450000000  0.4855180000000  0.5430700000000 1.0
C      1  0.5498660000000  0.5379100000000  0.5271440000000 1.0
C      1  0.5495630000000  0.5387510000000  0.4723610000000 1.0
C      1  0.5500390000000  0.4870630000000  0.4542340000000 1.0
C      1  0.5495890000000  0.5471460000000  0.4984080000000 1.0
C      1  0.5501290000000  0.5157720000000  0.5433060000000 1.0
C      1  0.5480640000000  0.4635970000000  0.5267540000000 1.0
C      1  0.5491730000000  0.4626420000000  0.4720940000000 1.0
C      1  0.5497930000000  0.5144730000000  0.4544270000000 1.0
C      1  0.4817200000000  0.4491840000000  0.4493130000000 1.0
C      1  0.4780910000000  0.4466220000000  0.5313960000000 1.0
C      1  0.4824600000000  0.5167740000000  0.5689400000000 1.0
C      1  0.4808120000000  0.5652040000000  0.5063950000000 1.0
C      1  0.4811660000000  0.5267280000000  0.4376890000000 1.0
C      1  0.4807610000000  0.5487870000000  0.4554590000000 1.0
C      1  0.4812640000000  0.5576740000000  0.5337020000000 1.0
C      1  0.4818420000000  0.4879370000000  0.5695470000000 1.0
C      1  0.4780640000000  0.4379260000000  0.5044160000000 1.0
C      1  0.4823220000000  0.4729470000000  0.4329640000000 1.0
C      1  0.5290430000000  0.5586250000000  0.5330990000000 1.0
C      1  0.5284640000000  0.5505150000000  0.4546030000000 1.0
C      1  0.5298900000000  0.4736640000000  0.4366250000000 1.0
C      1  0.5257850000000  0.4355690000000  0.5051830000000 1.0
C      1  0.5291220000000  0.4866600000000  0.5650370000000 1.0
C      1  0.5258120000000  0.4442320000000  0.5320620000000 1.0
C      1  0.5290090000000  0.4507530000000  0.4536320000000 1.0
C      1  0.5289460000000  0.5278230000000  0.4375340000000 1.0
C      1  0.5285170000000  0.5670780000000  0.5059930000000 1.0
C      1  0.5300210000000  0.5151900000000  0.5654630000000 1.0
C      1  0.4605840000000  0.5366340000000  0.5291700000000 1.0
C      1  0.4605430000000  0.5354850000000  0.4733820000000 1.0
C      1  0.4600010000000  0.4850270000000  0.4496520000000 1.0
C      1  0.4562500000000  0.4528350000000  0.4908360000000 1.0
C      1  0.4591950000000  0.4874200000000  0.5514380000000 1.0
C      1  0.4562940000000  0.4666680000000  0.5337540000000 1.0
C      1  0.4591070000000  0.4593530000000  0.4643560000000 1.0
C      1  0.4605070000000  0.5123070000000  0.4536920000000 1.0
C      1  0.4605700000000  0.5439520000000  0.4996510000000 1.0
C      1  0.4601010000000  0.5168480000000  0.5483800000000 1.0
C      1  0.5022950000000  0.4506700000000  0.5457320000000 1.0
C      1  0.5064470000000  0.5308950000000  0.5655890000000 1.0
C      1  0.5043470000000  0.5701080000000  0.4917110000000 1.0
C      1  0.5054400000000  0.5150820000000  0.4287400000000 1.0
C      1  0.5046650000000  0.4390470000000  0.4621330000000 1.0
C      1  0.5055610000000  0.5534310000000  0.5477220000000 1.0
C      1  0.5047690000000  0.4722080000000  0.5650170000000 1.0
C      1  0.5022390000000  0.4328260000000  0.4903700000000 1.0
C      1  0.5063060000000  0.4863530000000  0.4273940000000 1.0
C      1  0.5043190000000  0.5613290000000  0.4644730000000 1.0
C      1  0.4435530000000  0.4695210000000  0.5091590000000 1.0
END
