TITL C-214951-4107-4 4.60722150341573 125000 -348.929412884863 0 0 54 (Cs) n - 1
REM
REM in /rds/project/t2_vol4/rds-t2-cs072/BORA/CARBON/from-Arr/AIRSS/Generating-Clusters/GAP-ML-2020/Higher-Symm/SD-CG/HFTN-CG
REM
REM
REM
REM
REM
REM ./C.cell (b20cbc046b6831c77cfcea5457e17084)
REM AIRSS Version 0.9.1 bugfix July 2018 build 013d7b7c2542+ Fri, 06 Jul 2018 19:26:36 +0100
REM compiler GCC version 9.3.0
REM options -cpp -mtune=generic -march=x86-64 -g -O0
REM seed 1701868365 -792726344 237946445 -541579278 434689909 -1066785949 -1975380048 1019962300 828392252 -1276915525 1310691705 1533266923 1000467253 -1028233129 517967215 -1093609705 193307087 939030365 -224681408 2049058514 750325858 -2017124237 148724111 -1206849004 1753183639 -1950108022 -1247158138 1108438194 -1975123969 1255765900 -1212435167 -1129371324 540529819
REM
CELL 1.54180   50.00000   50.00000   50.00000   90.00000   90.00000   90.00000
LATT -1
SFAC C  
C      1  0.4866520000000  0.5414210000000  0.4265710000000 1.0
C      1  0.5140320000000  0.5389200000000  0.5724500000000 1.0
C      1  0.4925190000000  0.4608950000000  0.4258340000000 1.0
C      1  0.5200600000000  0.4561250000000  0.5769110000000 1.0
C      1  0.5140410000000  0.5389090000000  0.4275460000000 1.0
C      1  0.4866430000000  0.5414320000000  0.5734210000000 1.0
C      1  0.5200690000000  0.4561130000000  0.4230980000000 1.0
C      1  0.4925110000000  0.4609070000000  0.5741710000000 1.0
C      1  0.4630960000000  0.5478800000000  0.4610970000000 1.0
C      1  0.5381110000000  0.5454420000000  0.5388480000000 1.0
C      1  0.4707660000000  0.4559090000000  0.4612860000000 1.0
C      1  0.5386430000000  0.4513620000000  0.5390440000000 1.0
C      1  0.5381150000000  0.5454360000000  0.4611490000000 1.0
C      1  0.4630920000000  0.5478870000000  0.5388920000000 1.0
C      1  0.5386480000000  0.4513560000000  0.4609680000000 1.0
C      1  0.4707620000000  0.4559150000000  0.5387180000000 1.0
C      1  0.5392160000000  0.4722800000000  0.5612040000000 1.0
C      1  0.4716030000000  0.4765370000000  0.4389750000000 1.0
C      1  0.5359440000000  0.5237500000000  0.5614880000000 1.0
C      1  0.4648750000000  0.5267960000000  0.4379520000000 1.0
C      1  0.4715960000000  0.4765470000000  0.5610250000000 1.0
C      1  0.5392230000000  0.4722700000000  0.4388050000000 1.0
C      1  0.4648680000000  0.5268050000000  0.5620400000000 1.0
C      1  0.5359510000000  0.5237400000000  0.4385130000000 1.0
C      1  0.5192610000000  0.5119070000000  0.5159740000000 1.0
C      1  0.4730240000000  0.5114550000000  0.4843130000000 1.0
C      1  0.5150010000000  0.4834930000000  0.5151040000000 1.0
C      1  0.4520370000000  0.4910560000000  0.4852520000000 1.0
C      1  0.4730220000000  0.5114570000000  0.5156820000000 1.0
C      1  0.5192630000000  0.5119040000000  0.4840260000000 1.0
C      1  0.4520350000000  0.4910580000000  0.5147440000000 1.0
C      1  0.5150030000000  0.4834900000000  0.4849000000000 1.0
C      1  0.5182510000000  0.4356670000000  0.4473000000000 1.0
C      1  0.4906120000000  0.4391040000000  0.5509150000000 1.0
C      1  0.5149030000000  0.5589080000000  0.4511350000000 1.0
C      1  0.4869970000000  0.5604550000000  0.5488930000000 1.0
C      1  0.4906170000000  0.4390960000000  0.4490930000000 1.0
C      1  0.5182450000000  0.4356750000000  0.5527120000000 1.0
C      1  0.4870030000000  0.5604470000000  0.4510960000000 1.0
C      1  0.5148970000000  0.5589160000000  0.5488580000000 1.0
C      1  0.4584350000000  0.5377640000000  0.4859820000000 1.0
C      1  0.5405390000000  0.5338130000000  0.5140750000000 1.0
C      1  0.4604890000000  0.4634040000000  0.4855640000000 1.0
C      1  0.5339150000000  0.4623170000000  0.5145500000000 1.0
C      1  0.5405410000000  0.5338110000000  0.4859250000000 1.0
C      1  0.4584330000000  0.5377670000000  0.5140070000000 1.0
C      1  0.5339170000000  0.4623140000000  0.4854590000000 1.0
C      1  0.4604880000000  0.4634060000000  0.5144370000000 1.0
C      1  0.4595740000000  0.5007700000000  0.4350740000000 1.0
C      1  0.5442070000000  0.4983940000000  0.4390430000000 1.0
C      1  0.4595670000000  0.5007810000000  0.5649210000000 1.0
C      1  0.5442000000000  0.4984040000000  0.5609620000000 1.0
C      1  0.4972430000000  0.5153540000000  0.5322110000000 1.0
C      1  0.4972470000000  0.5153490000000  0.4677870000000 1.0
END
