TITL C-21838-7379-7 -17.8112066984989 125000 -304.407689384304 0 0 45 (C1) n - 1
REM
REM in /rds/project/t2_vol4/rds-t2-cs072/BORA/CARBON/from-Arr/AIRSS/Generating-Clusters/GAP-ML-2020/Higher-Symm/SD-CG/HFTN-CG
REM
REM
REM
REM
REM
REM ./C.cell (b20cbc046b6831c77cfcea5457e17084)
REM AIRSS Version 0.9.1 bugfix July 2018 build 013d7b7c2542+ Fri, 06 Jul 2018 19:26:36 +0100
REM compiler GCC version 9.3.0
REM options -cpp -mtune=generic -march=x86-64 -g -O0
REM seed -1666445663 942209638 -586739071 125349529 951795970 806371797 747669683 -102614324 1630765286 -1911451719 -2018068142 1603513041 -439475650 1323769357 2088556132 1435239715 1309264140 594998429 -1544557814 246657891 408194045 1035996513 -1880463208 1815128993 341487430 1493184818 -1914864437 916360221 -1841602290 -1948927901 -1779443083 669846683 1860545864
REM
CELL 1.54180   50.00000   50.00000   50.00000   90.00000   90.00000   90.00000
LATT -1
SFAC C  
C      1  0.4392940000000  0.5228860000000  0.4783740000000 1.0
C      1  0.4990110000000  0.5107110000000  0.4290740000000 1.0
C      1  0.5635850000000  0.5130110000000  0.4764720000000 1.0
C      1  0.5458290000000  0.5134220000000  0.5550990000000 1.0
C      1  0.4603140000000  0.5056940000000  0.5637430000000 1.0
C      1  0.5316760000000  0.5347870000000  0.5569930000000 1.0
C      1  0.4549540000000  0.5274890000000  0.5498880000000 1.0
C      1  0.4400500000000  0.5481240000000  0.4788010000000 1.0
C      1  0.5003730000000  0.5350600000000  0.4388830000000 1.0
C      1  0.5574440000000  0.5362470000000  0.4854090000000 1.0
C      1  0.4937330000000  0.4702110000000  0.4579170000000 1.0
C      1  0.5549890000000  0.4635200000000  0.4648830000000 1.0
C      1  0.5480830000000  0.4655650000000  0.5398330000000 1.0
C      1  0.4866670000000  0.4716050000000  0.5372750000000 1.0
C      1  0.4452070000000  0.4754320000000  0.4940010000000 1.0
C      1  0.5254510000000  0.4931610000000  0.4889750000000 1.0
C      1  0.5227910000000  0.4978440000000  0.5164340000000 1.0
C      1  0.4948170000000  0.4954210000000  0.5214230000000 1.0
C      1  0.4810490000000  0.5005450000000  0.4963360000000 1.0
C      1  0.4996830000000  0.4898390000000  0.4780640000000 1.0
C      1  0.4524210000000  0.5017790000000  0.4902380000000 1.0
C      1  0.4952330000000  0.4868100000000  0.4365450000000 1.0
C      1  0.5503390000000  0.4894600000000  0.4748750000000 1.0
C      1  0.5433880000000  0.4931120000000  0.5369600000000 1.0
C      1  0.4756200000000  0.4857460000000  0.5574900000000 1.0
C      1  0.5375820000000  0.4434760000000  0.5355380000000 1.0
C      1  0.4893110000000  0.4440630000000  0.5266310000000 1.0
C      1  0.4526790000000  0.4511330000000  0.4929850000000 1.0
C      1  0.4941660000000  0.4417370000000  0.4663460000000 1.0
C      1  0.5436410000000  0.4412500000000  0.4662320000000 1.0
C      1  0.5428590000000  0.5553820000000  0.4937060000000 1.0
C      1  0.5160620000000  0.5519000000000  0.5467190000000 1.0
C      1  0.4567750000000  0.5465580000000  0.5332060000000 1.0
C      1  0.4469900000000  0.5732040000000  0.4813170000000 1.0
C      1  0.4989510000000  0.5554350000000  0.4537730000000 1.0
C      1  0.4970650000000  0.5683790000000  0.4778080000000 1.0
C      1  0.5178260000000  0.5652150000000  0.4984570000000 1.0
C      1  0.5039880000000  0.5611280000000  0.5240690000000 1.0
C      1  0.4755860000000  0.5608740000000  0.5189060000000 1.0
C      1  0.4720060000000  0.5713220000000  0.4924200000000 1.0
C      1  0.5152920000000  0.4315140000000  0.5228740000000 1.0
C      1  0.4696740000000  0.4330860000000  0.5087710000000 1.0
C      1  0.4716030000000  0.4318890000000  0.4811150000000 1.0
C      1  0.5189800000000  0.4300740000000  0.4753840000000 1.0
C      1  0.5169640000000  0.4149020000000  0.4997570000000 1.0
END
