TITL C-215424-2565-1 0.177691920217153 125000 -1200.56843582545 0 0 168 (C1) n - 1
REM
REM in /rds/project/t2_vol4/rds-t2-cs072/BORA/CARBON/from-Arr/AIRSS/Generating-Clusters/GAP-ML-2020/Higher-Symm/SD-CG/HFTN-CG/C160-200
REM
REM
REM
REM
REM
REM ./C.cell (6b4489405718ea1b717e0baf1da4c2d9)
REM AIRSS Version 0.9.1 bugfix July 2018 build 013d7b7c2542+ Fri, 06 Jul 2018 19:26:36 +0100
REM compiler GCC version 9.3.0
REM options -cpp -mtune=generic -march=x86-64 -g -O0
REM seed -511888454 666116379 -1682908987 -1949557041 688004317 -264924669 1400766846 -1477205565 -1249829859 1041276454 291826841 1053812025 -1083166702 231541481 -1970700208 361888399 -1333381800 1535341590 -1244366597 638534843 574006400 2053141245 747434402 1296937322 -1177994952 244583400 -136196063 -168696925 -1152673867 -305634580 -855119575 855864059 464098998
REM
CELL 1.54180   50.00000   50.00000   50.00000   90.00000   90.00000   90.00000
LATT -1
SFAC C  
C      1  0.5101450000000  0.5456900000000  0.4965470000000 1.0
C      1  0.5067200000000  0.5193780000000  0.4588470000000 1.0
C      1  0.5050200000000  0.4739430000000  0.4628920000000 1.0
C      1  0.5056040000000  0.4531150000000  0.5037240000000 1.0
C      1  0.5075320000000  0.4808390000000  0.5398280000000 1.0
C      1  0.5135100000000  0.5265980000000  0.5403780000000 1.0
C      1  0.3917780000000  0.4769640000000  0.5182380000000 1.0
C      1  0.3906300000000  0.5039110000000  0.5280340000000 1.0
C      1  0.3922620000000  0.5264780000000  0.5111140000000 1.0
C      1  0.3901920000000  0.5216280000000  0.4828700000000 1.0
C      1  0.3913130000000  0.4957880000000  0.4716770000000 1.0
C      1  0.3898780000000  0.4738090000000  0.4902060000000 1.0
C      1  0.6201130000000  0.4934710000000  0.4709310000000 1.0
C      1  0.6206060000000  0.4742610000000  0.4924240000000 1.0
C      1  0.6207340000000  0.4805590000000  0.5210160000000 1.0
C      1  0.6196560000000  0.5078440000000  0.5289740000000 1.0
C      1  0.6184450000000  0.5279710000000  0.5080600000000 1.0
C      1  0.6196500000000  0.5224830000000  0.4797490000000 1.0
C      1  0.4944520000000  0.5396540000000  0.4736480000000 1.0
C      1  0.4916130000000  0.4963270000000  0.4534570000000 1.0
C      1  0.4913960000000  0.4566900000000  0.4800990000000 1.0
C      1  0.4923810000000  0.4610730000000  0.5272710000000 1.0
C      1  0.4953030000000  0.5047940000000  0.5470750000000 1.0
C      1  0.4980810000000  0.5453970000000  0.5222680000000 1.0
C      1  0.5810380000000  0.5635820000000  0.5221180000000 1.0
C      1  0.5860680000000  0.5490900000000  0.4518150000000 1.0
C      1  0.5873200000000  0.4808910000000  0.4325140000000 1.0
C      1  0.5864130000000  0.4324600000000  0.4851840000000 1.0
C      1  0.5865700000000  0.4488450000000  0.5456720000000 1.0
C      1  0.5820170000000  0.5207560000000  0.5651630000000 1.0
C      1  0.4275910000000  0.5797300000000  0.4797600000000 1.0
C      1  0.4270570000000  0.5283760000000  0.4284790000000 1.0
C      1  0.4273890000000  0.4421970000000  0.4412490000000 1.0
C      1  0.4266400000000  0.4230990000000  0.5115220000000 1.0
C      1  0.4288650000000  0.4781450000000  0.5796540000000 1.0
C      1  0.4269360000000  0.5484020000000  0.5606690000000 1.0
C      1  0.5111520000000  0.4386200000000  0.5788370000000 1.0
C      1  0.5142030000000  0.5421590000000  0.5905940000000 1.0
C      1  0.5093320000000  0.6020600000000  0.5137890000000 1.0
C      1  0.5122730000000  0.5618730000000  0.4210260000000 1.0
C      1  0.5112180000000  0.4623410000000  0.4077630000000 1.0
C      1  0.5119160000000  0.4000850000000  0.4861700000000 1.0
C      1  0.4644190000000  0.4513340000000  0.4785040000000 1.0
C      1  0.4651800000000  0.4579020000000  0.5324210000000 1.0
C      1  0.4688460000000  0.5067480000000  0.5547500000000 1.0
C      1  0.4698110000000  0.5493330000000  0.5228970000000 1.0
C      1  0.4675450000000  0.5453030000000  0.4697970000000 1.0
C      1  0.4642880000000  0.4953220000000  0.4482070000000 1.0
C      1  0.4953620000000  0.5955290000000  0.5385860000000 1.0
C      1  0.5009150000000  0.5822310000000  0.4388900000000 1.0
C      1  0.4981420000000  0.4877740000000  0.4020300000000 1.0
C      1  0.5009760000000  0.4063590000000  0.4598850000000 1.0
C      1  0.4979300000000  0.4201790000000  0.5602380000000 1.0
C      1  0.5039460000000  0.5149980000000  0.6013980000000 1.0
C      1  0.4317620000000  0.5068840000000  0.5843060000000 1.0
C      1  0.4239560000000  0.5620400000000  0.5356230000000 1.0
C      1  0.4301210000000  0.5695710000000  0.4526420000000 1.0
C      1  0.4229930000000  0.4998550000000  0.4283340000000 1.0
C      1  0.4292230000000  0.4231830000000  0.4634150000000 1.0
C      1  0.4234240000000  0.4373690000000  0.5362520000000 1.0
C      1  0.6062770000000  0.4491520000000  0.4976690000000 1.0
C      1  0.6064470000000  0.4556230000000  0.5264480000000 1.0
C      1  0.6035100000000  0.5250900000000  0.5467650000000 1.0
C      1  0.6030190000000  0.5456980000000  0.5256790000000 1.0
C      1  0.6092730000000  0.5416420000000  0.4635560000000 1.0
C      1  0.6095730000000  0.4859190000000  0.4470110000000 1.0
C      1  0.4049860000000  0.5528130000000  0.5160470000000 1.0
C      1  0.3981740000000  0.5450690000000  0.4697830000000 1.0
C      1  0.4042330000000  0.4871230000000  0.4462780000000 1.0
C      1  0.3978250000000  0.4507840000000  0.4763530000000 1.0
C      1  0.4049310000000  0.4594670000000  0.5384740000000 1.0
C      1  0.3990760000000  0.5036300000000  0.5547370000000 1.0
C      1  0.4690960000000  0.4161890000000  0.5559890000000 1.0
C      1  0.4760700000000  0.5109890000000  0.6048960000000 1.0
C      1  0.4668910000000  0.5927430000000  0.5440290000000 1.0
C      1  0.4732710000000  0.5866570000000  0.4418700000000 1.0
C      1  0.4692440000000  0.4933450000000  0.4006240000000 1.0
C      1  0.4732770000000  0.4070260000000  0.4541620000000 1.0
C      1  0.4064280000000  0.4589670000000  0.4496750000000 1.0
C      1  0.4126380000000  0.4288110000000  0.4857160000000 1.0
C      1  0.4076340000000  0.4766620000000  0.5611010000000 1.0
C      1  0.4142930000000  0.5227160000000  0.5686500000000 1.0
C      1  0.4065910000000  0.5641940000000  0.4900380000000 1.0
C      1  0.4132840000000  0.5478540000000  0.4461780000000 1.0
C      1  0.5769100000000  0.4669790000000  0.5683890000000 1.0
C      1  0.5637530000000  0.5435730000000  0.5654860000000 1.0
C      1  0.5724240000000  0.5750890000000  0.4956590000000 1.0
C      1  0.5749210000000  0.5318860000000  0.4291510000000 1.0
C      1  0.5757040000000  0.4530540000000  0.4361500000000 1.0
C      1  0.5739200000000  0.4195420000000  0.5082330000000 1.0
C      1  0.5323180000000  0.5119500000000  0.4703810000000 1.0
C      1  0.5306600000000  0.4810840000000  0.4734440000000 1.0
C      1  0.5308450000000  0.4670990000000  0.5011290000000 1.0
C      1  0.5320000000000  0.4851420000000  0.5252590000000 1.0
C      1  0.5336120000000  0.5146950000000  0.5215190000000 1.0
C      1  0.5336590000000  0.5287610000000  0.4954760000000 1.0
C      1  0.4721140000000  0.5992650000000  0.4812110000000 1.0
C      1  0.4732430000000  0.5324400000000  0.4046180000000 1.0
C      1  0.4729130000000  0.4345340000000  0.4240430000000 1.0
C      1  0.4728230000000  0.4002900000000  0.5197880000000 1.0
C      1  0.4731570000000  0.4662190000000  0.5950260000000 1.0
C      1  0.4707440000000  0.5698420000000  0.5770950000000 1.0
C      1  0.4557980000000  0.4197520000000  0.4749730000000 1.0
C      1  0.4504090000000  0.4414190000000  0.5533300000000 1.0
C      1  0.4579740000000  0.5204680000000  0.5825440000000 1.0
C      1  0.4509980000000  0.5751610000000  0.5239510000000 1.0
C      1  0.4569510000000  0.5616080000000  0.4439580000000 1.0
C      1  0.4501740000000  0.4832560000000  0.4239090000000 1.0
C      1  0.5176750000000  0.5893890000000  0.4620420000000 1.0
C      1  0.5166730000000  0.5105290000000  0.4054420000000 1.0
C      1  0.5184220000000  0.4227520000000  0.4429360000000 1.0
C      1  0.5162020000000  0.4115150000000  0.5385820000000 1.0
C      1  0.5183450000000  0.4897830000000  0.5945040000000 1.0
C      1  0.5131770000000  0.5811530000000  0.5571440000000 1.0
C      1  0.5629110000000  0.5641130000000  0.5449250000000 1.0
C      1  0.5685430000000  0.5682010000000  0.4671710000000 1.0
C      1  0.5695560000000  0.5037090000000  0.4226380000000 1.0
C      1  0.5709120000000  0.4346880000000  0.4585890000000 1.0
C      1  0.5688740000000  0.4287640000000  0.5349220000000 1.0
C      1  0.5691860000000  0.4951110000000  0.5734830000000 1.0
C      1  0.4528910000000  0.4790340000000  0.5180240000000 1.0
C      1  0.4545790000000  0.5045280000000  0.5296640000000 1.0
C      1  0.4563470000000  0.5263680000000  0.5124810000000 1.0
C      1  0.4534640000000  0.5245820000000  0.4846160000000 1.0
C      1  0.4520240000000  0.4983740000000  0.4737530000000 1.0
C      1  0.4511900000000  0.4748980000000  0.4898820000000 1.0
C      1  0.4496200000000  0.4586580000000  0.5788090000000 1.0
C      1  0.4510030000000  0.5488190000000  0.5765060000000 1.0
C      1  0.4492770000000  0.5880040000000  0.4963170000000 1.0
C      1  0.4519250000000  0.5420390000000  0.4219240000000 1.0
C      1  0.4493120000000  0.4526940000000  0.4260370000000 1.0
C      1  0.4513410000000  0.4103080000000  0.5028440000000 1.0
C      1  0.5428640000000  0.5456810000000  0.5851510000000 1.0
C      1  0.5524670000000  0.5925040000000  0.4995390000000 1.0
C      1  0.5538440000000  0.5442820000000  0.4187910000000 1.0
C      1  0.5540550000000  0.4509150000000  0.4206480000000 1.0
C      1  0.5526180000000  0.4044110000000  0.5031610000000 1.0
C      1  0.5556450000000  0.4548430000000  0.5796840000000 1.0
C      1  0.5628480000000  0.5092470000000  0.4719360000000 1.0
C      1  0.5607010000000  0.4806610000000  0.4742450000000 1.0
C      1  0.5608410000000  0.4675900000000  0.4998770000000 1.0
C      1  0.5626230000000  0.4844310000000  0.5231120000000 1.0
C      1  0.5639660000000  0.5125310000000  0.5203020000000 1.0
C      1  0.5643910000000  0.5255410000000  0.4951890000000 1.0
C      1  0.5410880000000  0.4993910000000  0.5792580000000 1.0
C      1  0.5395710000000  0.5810200000000  0.5442680000000 1.0
C      1  0.5439150000000  0.5769990000000  0.4548860000000 1.0
C      1  0.5436700000000  0.4979150000000  0.4103900000000 1.0
C      1  0.5451200000000  0.4210560000000  0.4569530000000 1.0
C      1  0.5430240000000  0.4219000000000  0.5467390000000 1.0
C      1  0.4649970000000  0.6087160000000  0.4558690000000 1.0
C      1  0.4631970000000  0.5147550000000  0.3845010000000 1.0
C      1  0.4655060000000  0.4077580000000  0.4278140000000 1.0
C      1  0.4629970000000  0.3916950000000  0.5452150000000 1.0
C      1  0.4681590000000  0.4862710000000  0.6134390000000 1.0
C      1  0.4604700000000  0.5953440000000  0.5705410000000 1.0
C      1  0.5389110000000  0.4052480000000  0.4805130000000 1.0
C      1  0.5383850000000  0.4363370000000  0.5711370000000 1.0
C      1  0.5321500000000  0.5257230000000  0.5676790000000 1.0
C      1  0.5363290000000  0.5962800000000  0.5203880000000 1.0
C      1  0.5390380000000  0.5636540000000  0.4294730000000 1.0
C      1  0.5384800000000  0.4695660000000  0.4094540000000 1.0
C      1  0.5000560000000  0.5651180000000  0.5777350000000 1.0
C      1  0.5013520000000  0.5992450000000  0.4860370000000 1.0
C      1  0.5026220000000  0.5368450000000  0.4085890000000 1.0
C      1  0.5025190000000  0.4391950000000  0.4227760000000 1.0
C      1  0.5022460000000  0.4016570000000  0.5140720000000 1.0
C      1  0.5019710000000  0.4630990000000  0.5914730000000 1.0
END
