TITL C-214970-3022-3 -18.1581174588396 125000 -935.654876644036 0 0 138 (Th) n - 1
REM
REM in /rds/project/t2_vol4/rds-t2-cs072/BORA/CARBON/from-Arr/AIRSS/Generating-Clusters/GAP-ML-2020/Higher-Symm/SD-CG/HFTN-CG
REM
REM
REM
REM
REM
REM ./C.cell (b20cbc046b6831c77cfcea5457e17084)
REM AIRSS Version 0.9.1 bugfix July 2018 build 013d7b7c2542+ Fri, 06 Jul 2018 19:26:36 +0100
REM compiler GCC version 9.3.0
REM options -cpp -mtune=generic -march=x86-64 -g -O0
REM seed 1967989284 -1880885592 563104004 163094312 566411993 -616590372 -168139871 1173526189 -1025825403 390293342 365276256 1513529394 735204444 1846984412 -1657066802 -1414182464 2049324133 2111701140 -1469440374 808380692 -936824735 310427955 -1775253300 1779437761 -307190174 -1410790025 684988230 1048142358 1936742972 521274111 -682050807 -1210595447 1106710728
REM
CELL 1.54180   50.00000   50.00000   50.00000   90.00000   90.00000   90.00000
LATT -1
SFAC C  
C      1  0.4358010000000  0.5247690000000  0.5599670000000 1.0
C      1  0.5597360000000  0.4361470000000  0.5246530000000 1.0
C      1  0.5244220000000  0.5600830000000  0.4360310000000 1.0
C      1  0.5643700000000  0.4760950000000  0.5599670000000 1.0
C      1  0.5643700000000  0.5247680000000  0.4406650000000 1.0
C      1  0.4358010000000  0.4760950000000  0.4406650000000 1.0
C      1  0.4404340000000  0.5647170000000  0.5246520000000 1.0
C      1  0.4404340000000  0.4361470000000  0.4759800000000 1.0
C      1  0.5597370000000  0.5647160000000  0.4759790000000 1.0
C      1  0.4757490000000  0.4407810000000  0.4360310000000 1.0
C      1  0.4757490000000  0.5600830000000  0.5646000000000 1.0
C      1  0.5244220000000  0.4407810000000  0.5646010000000 1.0
C      1  0.4358010000000  0.5247680000000  0.4406650000000 1.0
C      1  0.5597360000000  0.4361470000000  0.4759790000000 1.0
C      1  0.5244220000000  0.5600830000000  0.5646000000000 1.0
C      1  0.5643700000000  0.4760950000000  0.4406650000000 1.0
C      1  0.5643700000000  0.5247680000000  0.5599670000000 1.0
C      1  0.4358010000000  0.4760960000000  0.5599670000000 1.0
C      1  0.4404340000000  0.5647170000000  0.4759790000000 1.0
C      1  0.4404340000000  0.4361480000000  0.5246530000000 1.0
C      1  0.5597370000000  0.5647160000000  0.5246520000000 1.0
C      1  0.4757490000000  0.4407810000000  0.5646010000000 1.0
C      1  0.4757490000000  0.5600830000000  0.4360310000000 1.0
C      1  0.5244220000000  0.4407800000000  0.4360310000000 1.0
C      1  0.5896020000000  0.5146240000000  0.4507770000000 1.0
C      1  0.4505470000000  0.5899480000000  0.5145090000000 1.0
C      1  0.5142780000000  0.4508930000000  0.5898320000000 1.0
C      1  0.4105690000000  0.4862390000000  0.4507770000000 1.0
C      1  0.4105690000000  0.5146250000000  0.5498550000000 1.0
C      1  0.5896020000000  0.4862390000000  0.5498550000000 1.0
C      1  0.5496240000000  0.4109160000000  0.5145090000000 1.0
C      1  0.5496240000000  0.5899480000000  0.4861230000000 1.0
C      1  0.4505460000000  0.4109160000000  0.4861230000000 1.0
C      1  0.4858930000000  0.5499710000000  0.5898320000000 1.0
C      1  0.4858920000000  0.4508930000000  0.4108000000000 1.0
C      1  0.5142780000000  0.5499700000000  0.4107990000000 1.0
C      1  0.5896020000000  0.5146250000000  0.5498540000000 1.0
C      1  0.4505470000000  0.5899480000000  0.4861230000000 1.0
C      1  0.5142780000000  0.4508930000000  0.4108000000000 1.0
C      1  0.4105690000000  0.4862390000000  0.5498550000000 1.0
C      1  0.4105690000000  0.5146250000000  0.4507770000000 1.0
C      1  0.5896020000000  0.4862380000000  0.4507770000000 1.0
C      1  0.5496240000000  0.4109150000000  0.4861230000000 1.0
C      1  0.5496240000000  0.5899480000000  0.5145090000000 1.0
C      1  0.4505460000000  0.4109160000000  0.5145090000000 1.0
C      1  0.4858920000000  0.5499700000000  0.4107990000000 1.0
C      1  0.4858920000000  0.4508930000000  0.5898320000000 1.0
C      1  0.5142790000000  0.5499710000000  0.5898320000000 1.0
C      1  0.4859700000000  0.4169100000000  0.4509300000000 1.0
C      1  0.4506990000000  0.4863170000000  0.4167940000000 1.0
C      1  0.4165630000000  0.4510460000000  0.4862010000000 1.0
C      1  0.5142000000000  0.5839530000000  0.4509300000000 1.0
C      1  0.5142000000000  0.4169100000000  0.5497020000000 1.0
C      1  0.4859710000000  0.5839540000000  0.5497010000000 1.0
C      1  0.5494710000000  0.5145460000000  0.4167940000000 1.0
C      1  0.5494710000000  0.4863170000000  0.5838380000000 1.0
C      1  0.4507000000000  0.5145470000000  0.5838380000000 1.0
C      1  0.5836070000000  0.5498170000000  0.4862010000000 1.0
C      1  0.5836070000000  0.4510460000000  0.5144310000000 1.0
C      1  0.4165640000000  0.5498180000000  0.5144300000000 1.0
C      1  0.4859710000000  0.4169100000000  0.5497020000000 1.0
C      1  0.4507000000000  0.4863180000000  0.5838380000000 1.0
C      1  0.4165630000000  0.4510460000000  0.5144310000000 1.0
C      1  0.5142000000000  0.5839540000000  0.5497010000000 1.0
C      1  0.5142000000000  0.4169100000000  0.4509300000000 1.0
C      1  0.4859710000000  0.5839540000000  0.4509300000000 1.0
C      1  0.5494710000000  0.5145470000000  0.5838370000000 1.0
C      1  0.5494710000000  0.4863170000000  0.4167940000000 1.0
C      1  0.4506990000000  0.5145460000000  0.4167940000000 1.0
C      1  0.5836070000000  0.5498180000000  0.5144300000000 1.0
C      1  0.5836070000000  0.4510460000000  0.4862010000000 1.0
C      1  0.4165640000000  0.5498180000000  0.4862010000000 1.0
C      1  0.5464280000000  0.5223740000000  0.4663850000000 1.0
C      1  0.4661550000000  0.5467740000000  0.5222580000000 1.0
C      1  0.5220280000000  0.4665010000000  0.5466580000000 1.0
C      1  0.4537430000000  0.4784900000000  0.4663850000000 1.0
C      1  0.4537430000000  0.5223740000000  0.5342470000000 1.0
C      1  0.5464280000000  0.4784900000000  0.5342470000000 1.0
C      1  0.5340160000000  0.4540900000000  0.5222580000000 1.0
C      1  0.5340160000000  0.5467740000000  0.4783730000000 1.0
C      1  0.4661540000000  0.4540900000000  0.4783740000000 1.0
C      1  0.4781430000000  0.5343630000000  0.5466580000000 1.0
C      1  0.4781430000000  0.4665010000000  0.4539740000000 1.0
C      1  0.5220280000000  0.5343620000000  0.4539730000000 1.0
C      1  0.5464280000000  0.5223740000000  0.5342460000000 1.0
C      1  0.4661550000000  0.5467740000000  0.4783730000000 1.0
C      1  0.5220280000000  0.4665010000000  0.4539740000000 1.0
C      1  0.4537430000000  0.4784900000000  0.5342470000000 1.0
C      1  0.4537430000000  0.5223740000000  0.4663850000000 1.0
C      1  0.5464280000000  0.4784890000000  0.4663850000000 1.0
C      1  0.5340160000000  0.4540890000000  0.4783740000000 1.0
C      1  0.5340160000000  0.5467740000000  0.5222580000000 1.0
C      1  0.4661540000000  0.4540900000000  0.5222580000000 1.0
C      1  0.4781430000000  0.5343630000000  0.4539730000000 1.0
C      1  0.4781430000000  0.4665010000000  0.5466580000000 1.0
C      1  0.5220280000000  0.5343630000000  0.5466580000000 1.0
C      1  0.5242090000000  0.5234500000000  0.5951530000000 1.0
C      1  0.5949220000000  0.5245550000000  0.5233330000000 1.0
C      1  0.5231030000000  0.5952690000000  0.5244390000000 1.0
C      1  0.4759620000000  0.4774150000000  0.5951530000000 1.0
C      1  0.4759620000000  0.5234490000000  0.4054790000000 1.0
C      1  0.5242080000000  0.4774140000000  0.4054790000000 1.0
C      1  0.4052480000000  0.4763090000000  0.5233330000000 1.0
C      1  0.4052480000000  0.5245550000000  0.4772980000000 1.0
C      1  0.5949220000000  0.4763080000000  0.4772980000000 1.0
C      1  0.4770680000000  0.4055950000000  0.5244390000000 1.0
C      1  0.4770680000000  0.5952690000000  0.4761920000000 1.0
C      1  0.5231030000000  0.4055950000000  0.4761930000000 1.0
C      1  0.5242080000000  0.5234490000000  0.4054790000000 1.0
C      1  0.5949220000000  0.5245550000000  0.4772980000000 1.0
C      1  0.5231030000000  0.5952690000000  0.4761920000000 1.0
C      1  0.4759620000000  0.4774140000000  0.4054790000000 1.0
C      1  0.4759620000000  0.5234500000000  0.5951530000000 1.0
C      1  0.5242090000000  0.4774150000000  0.5951530000000 1.0
C      1  0.4052480000000  0.4763090000000  0.4772990000000 1.0
C      1  0.4052480000000  0.5245550000000  0.5233330000000 1.0
C      1  0.5949220000000  0.4763090000000  0.5233330000000 1.0
C      1  0.4770680000000  0.4055950000000  0.4761930000000 1.0
C      1  0.4770680000000  0.5952690000000  0.5244390000000 1.0
C      1  0.5231030000000  0.4055950000000  0.5244390000000 1.0
C      1  0.5000850000000  0.5148120000000  0.4545140000000 1.0
C      1  0.4542830000000  0.5004320000000  0.5146960000000 1.0
C      1  0.5144650000000  0.4546300000000  0.5003160000000 1.0
C      1  0.5000850000000  0.4860520000000  0.4545140000000 1.0
C      1  0.5000850000000  0.5148120000000  0.5461180000000 1.0
C      1  0.5000850000000  0.4860520000000  0.5461180000000 1.0
C      1  0.5458870000000  0.5004320000000  0.5146960000000 1.0
C      1  0.5458870000000  0.5004320000000  0.4859360000000 1.0
C      1  0.4542830000000  0.5004320000000  0.4859360000000 1.0
C      1  0.4857060000000  0.5462340000000  0.5003160000000 1.0
C      1  0.4857050000000  0.4546300000000  0.5003160000000 1.0
C      1  0.5144650000000  0.5462340000000  0.5003160000000 1.0
C      1  0.5000860000000  0.5989500000000  0.5003160000000 1.0
C      1  0.5000850000000  0.4019140000000  0.5003160000000 1.0
C      1  0.5986030000000  0.5004320000000  0.5003160000000 1.0
C      1  0.5000850000000  0.5004320000000  0.5988330000000 1.0
C      1  0.4015680000000  0.5004320000000  0.5003160000000 1.0
C      1  0.5000850000000  0.5004320000000  0.4017980000000 1.0
END
