TITL C-21831-7357-2 0.0040946085904524 125000 -494.102046725292 0 0 71 (C1) n - 1
REM
REM in /rds/project/t2_vol4/rds-t2-cs072/BORA/CARBON/from-Arr/AIRSS/Generating-Clusters/GAP-ML-2020/Higher-Symm/SD-CG/HFTN-CG
REM
REM
REM
REM
REM
REM ./C.cell (b20cbc046b6831c77cfcea5457e17084)
REM AIRSS Version 0.9.1 bugfix July 2018 build 013d7b7c2542+ Fri, 06 Jul 2018 19:26:36 +0100
REM compiler GCC version 9.3.0
REM options -cpp -mtune=generic -march=x86-64 -g -O0
REM seed 1904678695 347876422 1981252748 2025822196 -446088756 -1698287559 1115781756 -1144826109 1371600827 -423411826 -917685104 -612421532 1631861918 81931635 940173633 -1337274087 -68349476 -386161575 1716841367 -1189927186 992637740 1945126019 -683674845 2053886117 1975929492 -812505550 195417597 1989915576 -1447186540 -1643264514 -2065736136 -1529755517 1215721628
REM
CELL 1.54180   50.00000   50.00000   50.00000   90.00000   90.00000   90.00000
LATT -1
SFAC C  
C      1  0.4405390000000  0.4827660000000  0.5077150000000 1.0
C      1  0.5162900000000  0.5645260000000  0.5079600000000 1.0
C      1  0.5468440000000  0.4517990000000  0.5023350000000 1.0
C      1  0.5648970000000  0.5052380000000  0.4643660000000 1.0
C      1  0.4769740000000  0.4402810000000  0.4599320000000 1.0
C      1  0.4620290000000  0.5537790000000  0.4600510000000 1.0
C      1  0.4849120000000  0.5527550000000  0.5451690000000 1.0
C      1  0.5464340000000  0.4806320000000  0.5422400000000 1.0
C      1  0.4738200000000  0.4682680000000  0.5404850000000 1.0
C      1  0.5066010000000  0.4247830000000  0.4982190000000 1.0
C      1  0.4345010000000  0.5320170000000  0.5024970000000 1.0
C      1  0.5590460000000  0.5372650000000  0.5042260000000 1.0
C      1  0.5261200000000  0.4733760000000  0.4921180000000 1.0
C      1  0.4885390000000  0.4919310000000  0.4759880000000 1.0
C      1  0.4848390000000  0.5263000000000  0.5068100000000 1.0
C      1  0.4969810000000  0.4656960000000  0.5855160000000 1.0
C      1  0.4829710000000  0.5251400000000  0.5863370000000 1.0
C      1  0.5242060000000  0.5170880000000  0.5647070000000 1.0
C      1  0.5386580000000  0.5155130000000  0.4665230000000 1.0
C      1  0.5041950000000  0.4497120000000  0.4514640000000 1.0
C      1  0.4595060000000  0.5236410000000  0.4584930000000 1.0
C      1  0.4809540000000  0.4265900000000  0.4846520000000 1.0
C      1  0.4494820000000  0.5573620000000  0.4859860000000 1.0
C      1  0.5729610000000  0.5159960000000  0.4892860000000 1.0
C      1  0.5679100000000  0.4685890000000  0.4908000000000 1.0
C      1  0.4462550000000  0.4585240000000  0.4924520000000 1.0
C      1  0.4931360000000  0.5723000000000  0.4919560000000 1.0
C      1  0.5305250000000  0.4381050000000  0.4600960000000 1.0
C      1  0.4374870000000  0.5041120000000  0.4628460000000 1.0
C      1  0.5327160000000  0.5436730000000  0.4670110000000 1.0
C      1  0.5119040000000  0.5244150000000  0.5895510000000 1.0
C      1  0.4944990000000  0.4791950000000  0.6071980000000 1.0
C      1  0.4959890000000  0.5064030000000  0.6038760000000 1.0
C      1  0.4627710000000  0.5598930000000  0.5292740000000 1.0
C      1  0.5632820000000  0.4994250000000  0.5304730000000 1.0
C      1  0.4746500000000  0.4434370000000  0.5272830000000 1.0
C      1  0.5126270000000  0.5537390000000  0.4496370000000 1.0
C      1  0.5447620000000  0.4609760000000  0.4482460000000 1.0
C      1  0.4429750000000  0.4792440000000  0.4487380000000 1.0
C      1  0.5319710000000  0.5361580000000  0.5450130000000 1.0
C      1  0.5173650000000  0.4469590000000  0.5410390000000 1.0
C      1  0.4536120000000  0.5157180000000  0.5436900000000 1.0
C      1  0.4801140000000  0.4907810000000  0.4273020000000 1.0
C      1  0.5162920000000  0.5176870000000  0.4147770000000 1.0
C      1  0.5084730000000  0.4902680000000  0.4188400000000 1.0
C      1  0.5014390000000  0.4695230000000  0.5565450000000 1.0
C      1  0.4742410000000  0.5288360000000  0.5599060000000 1.0
C      1  0.5241460000000  0.4903010000000  0.5559410000000 1.0
C      1  0.5642640000000  0.4758110000000  0.4628600000000 1.0
C      1  0.4520640000000  0.4574150000000  0.4641940000000 1.0
C      1  0.4895730000000  0.5637150000000  0.4639180000000 1.0
C      1  0.5542290000000  0.5273330000000  0.5300320000000 1.0
C      1  0.5009870000000  0.4319760000000  0.5250440000000 1.0
C      1  0.4431060000000  0.5372220000000  0.5290110000000 1.0
C      1  0.4312030000000  0.5048000000000  0.4916330000000 1.0
C      1  0.5383640000000  0.5537010000000  0.4930280000000 1.0
C      1  0.5323260000000  0.4307630000000  0.4869970000000 1.0
C      1  0.5743220000000  0.4926790000000  0.5054330000000 1.0
C      1  0.4618440000000  0.4379150000000  0.5032900000000 1.0
C      1  0.4665580000000  0.5716000000000  0.5040610000000 1.0
C      1  0.5024700000000  0.4678740000000  0.4773760000000 1.0
C      1  0.4609160000000  0.5288390000000  0.4901090000000 1.0
C      1  0.5276930000000  0.5014700000000  0.4949220000000 1.0
C      1  0.5421460000000  0.4549220000000  0.5309610000000 1.0
C      1  0.4542410000000  0.4881670000000  0.5328920000000 1.0
C      1  0.5124950000000  0.5548650000000  0.5351350000000 1.0
C      1  0.5204200000000  0.4690180000000  0.4335550000000 1.0
C      1  0.4555470000000  0.4811970000000  0.4234970000000 1.0
C      1  0.5130340000000  0.5410360000000  0.4239410000000 1.0
C      1  0.4819050000000  0.5060810000000  0.4520510000000 1.0
C      1  0.5001180000000  0.5071040000000  0.4975500000000 1.0
END
