TITL C-214946-3123-6 -683.511175434226 125000 -1181.40178601581 0 0 170 (C1) n - 1
REM
REM in /rds/project/t2_vol4/rds-t2-cs072/BORA/CARBON/from-Arr/AIRSS/Generating-Clusters/GAP-ML-2020/Higher-Symm/SD-CG/HFTN-CG
REM
REM
REM
REM
REM
REM ./C.cell (b20cbc046b6831c77cfcea5457e17084)
REM AIRSS Version 0.9.1 bugfix July 2018 build 013d7b7c2542+ Fri, 06 Jul 2018 19:26:36 +0100
REM compiler GCC version 9.3.0
REM options -cpp -mtune=generic -march=x86-64 -g -O0
REM seed 803019383 -315071396 -1763799358 931294807 1329570153 -2313180 406058380 1630567537 1493372314 -1881152917 -2138396430 1226123418 15884625 -27939830 -222004406 -996289329 -1178519822 114803985 403768466 2055767525 622525517 -805766942 1328766928 -888552918 -111504042 -2058364233 -263812599 -1731806339 -1381858133 597483580 -1607510837 652593009 -1460541683
REM
CELL 1.54180   50.00000   50.00000   50.00000   90.00000   90.00000   90.00000
LATT -1
SFAC C  
C      1  0.5341210000000  0.4277890000000  0.4897100000000 1.0
C      1  0.5696310000000  0.4564830000000  0.4869160000000 1.0
C      1  0.5824550000000  0.5007130000000  0.4880540000000 1.0
C      1  0.5718220000000  0.5445340000000  0.4844060000000 1.0
C      1  0.5375930000000  0.5781680000000  0.4856300000000 1.0
C      1  0.4886000000000  0.5854390000000  0.4863310000000 1.0
C      1  0.4441340000000  0.5648890000000  0.4858640000000 1.0
C      1  0.4211950000000  0.5236060000000  0.4888400000000 1.0
C      1  0.4213270000000  0.4774700000000  0.4873120000000 1.0
C      1  0.4476640000000  0.4400030000000  0.4897870000000 1.0
C      1  0.4890020000000  0.4203050000000  0.4879900000000 1.0
C      1  0.4843550000000  0.4022610000000  0.5388550000000 1.0
C      1  0.5388270000000  0.4112290000000  0.5386830000000 1.0
C      1  0.5818280000000  0.4457390000000  0.5388440000000 1.0
C      1  0.5986180000000  0.4986880000000  0.5380190000000 1.0
C      1  0.5830890000000  0.5525300000000  0.5373690000000 1.0
C      1  0.5406690000000  0.5900480000000  0.5377580000000 1.0
C      1  0.4848480000000  0.5974750000000  0.5382740000000 1.0
C      1  0.4347370000000  0.5736320000000  0.5381640000000 1.0
C      1  0.4040710000000  0.5276240000000  0.5382990000000 1.0
C      1  0.4037480000000  0.4720950000000  0.5384540000000 1.0
C      1  0.4349660000000  0.4269240000000  0.5378620000000 1.0
C      1  0.5658590000000  0.4533540000000  0.4371800000000 1.0
C      1  0.5817000000000  0.4956710000000  0.4353520000000 1.0
C      1  0.5703910000000  0.5406000000000  0.4356790000000 1.0
C      1  0.5376960000000  0.5719080000000  0.4360280000000 1.0
C      1  0.4924220000000  0.5807980000000  0.4364830000000 1.0
C      1  0.4501250000000  0.5645410000000  0.4371000000000 1.0
C      1  0.4229110000000  0.5278080000000  0.4359850000000 1.0
C      1  0.4215450000000  0.4817350000000  0.4376550000000 1.0
C      1  0.4436720000000  0.4424130000000  0.4367660000000 1.0
C      1  0.4846930000000  0.4216850000000  0.4385070000000 1.0
C      1  0.5297240000000  0.4250540000000  0.4365360000000 1.0
C      1  0.4387600000000  0.4305410000000  0.5655150000000 1.0
C      1  0.4847480000000  0.4084850000000  0.5661490000000 1.0
C      1  0.5353490000000  0.4170540000000  0.5660710000000 1.0
C      1  0.5745550000000  0.4489440000000  0.5657810000000 1.0
C      1  0.5897940000000  0.4980090000000  0.5646680000000 1.0
C      1  0.5757240000000  0.5468950000000  0.5638290000000 1.0
C      1  0.5365820000000  0.5803910000000  0.5637960000000 1.0
C      1  0.4863280000000  0.5870240000000  0.5643550000000 1.0
C      1  0.4399010000000  0.5657580000000  0.5646890000000 1.0
C      1  0.4117220000000  0.5240960000000  0.5653230000000 1.0
C      1  0.4100520000000  0.4726950000000  0.5657820000000 1.0
C      1  0.5168240000000  0.4588690000000  0.4055840000000 1.0
C      1  0.5404890000000  0.4702350000000  0.3980260000000 1.0
C      1  0.5460410000000  0.4963000000000  0.4036530000000 1.0
C      1  0.5371950000000  0.5187090000000  0.3901820000000 1.0
C      1  0.5213800000000  0.5372650000000  0.4008920000000 1.0
C      1  0.4926650000000  0.5428500000000  0.4015870000000 1.0
C      1  0.4707870000000  0.5315320000000  0.3916300000000 1.0
C      1  0.4551980000000  0.5131280000000  0.4049240000000 1.0
C      1  0.4516160000000  0.4870040000000  0.3988190000000 1.0
C      1  0.4695720000000  0.4677010000000  0.4058570000000 1.0
C      1  0.4922700000000  0.4589350000000  0.3934950000000 1.0
C      1  0.5437400000000  0.4730230000000  0.4774750000000 1.0
C      1  0.5508330000000  0.5016910000000  0.4900260000000 1.0
C      1  0.5447780000000  0.5288070000000  0.4755520000000 1.0
C      1  0.5243050000000  0.5490010000000  0.4871740000000 1.0
C      1  0.4913460000000  0.5543460000000  0.4880770000000 1.0
C      1  0.4663260000000  0.5415500000000  0.4767980000000 1.0
C      1  0.4521090000000  0.5161360000000  0.4915780000000 1.0
C      1  0.4504490000000  0.4872760000000  0.4788030000000 1.0
C      1  0.4675440000000  0.4636860000000  0.4923500000000 1.0
C      1  0.4926660000000  0.4505500000000  0.4790520000000 1.0
C      1  0.5215620000000  0.4562110000000  0.4910360000000 1.0
C      1  0.5961890000000  0.5273230000000  0.5249840000000 1.0
C      1  0.5659530000000  0.5757960000000  0.5246390000000 1.0
C      1  0.5136010000000  0.6002880000000  0.5250970000000 1.0
C      1  0.4573590000000  0.5907980000000  0.5253250000000 1.0
C      1  0.4150730000000  0.5539400000000  0.5250550000000 1.0
C      1  0.3993530000000  0.5002640000000  0.5255640000000 1.0
C      1  0.4157640000000  0.4472360000000  0.5252450000000 1.0
C      1  0.4578370000000  0.4107190000000  0.5257250000000 1.0
C      1  0.5125980000000  0.4022200000000  0.5258490000000 1.0
C      1  0.5636950000000  0.4252430000000  0.5259170000000 1.0
C      1  0.5951900000000  0.4709750000000  0.5253820000000 1.0
C      1  0.4931730000000  0.5499940000000  0.5177870000000 1.0
C      1  0.4798520000000  0.5311920000000  0.5362470000000 1.0
C      1  0.4570560000000  0.5163020000000  0.5233910000000 1.0
C      1  0.4561420000000  0.4914820000000  0.5378790000000 1.0
C      1  0.4742100000000  0.4716400000000  0.5243230000000 1.0
C      1  0.4962010000000  0.4553500000000  0.5385630000000 1.0
C      1  0.5181530000000  0.4668490000000  0.5214890000000 1.0
C      1  0.5405580000000  0.4804270000000  0.5359320000000 1.0
C      1  0.5459320000000  0.5041120000000  0.5216920000000 1.0
C      1  0.5283000000000  0.5244800000000  0.5353340000000 1.0
C      1  0.5213000000000  0.5457240000000  0.5169140000000 1.0
C      1  0.4503720000000  0.4166270000000  0.4716480000000 1.0
C      1  0.5031760000000  0.4002630000000  0.4711930000000 1.0
C      1  0.5562990000000  0.4201400000000  0.4713870000000 1.0
C      1  0.5936500000000  0.4610650000000  0.4703500000000 1.0
C      1  0.5975280000000  0.5183930000000  0.4697340000000 1.0
C      1  0.5739380000000  0.5696840000000  0.4711320000000 1.0
C      1  0.5236230000000  0.5989150000000  0.4721760000000 1.0
C      1  0.4666990000000  0.5963850000000  0.4716560000000 1.0
C      1  0.4197280000000  0.5644550000000  0.4704100000000 1.0
C      1  0.4019900000000  0.5103550000000  0.4710630000000 1.0
C      1  0.4094940000000  0.4558360000000  0.4708630000000 1.0
C      1  0.5297070000000  0.4613470000000  0.5808590000000 1.0
C      1  0.5445770000000  0.4837810000000  0.5674490000000 1.0
C      1  0.5470750000000  0.5118000000000  0.5794090000000 1.0
C      1  0.5317130000000  0.5341400000000  0.5667160000000 1.0
C      1  0.5064930000000  0.5459390000000  0.5788830000000 1.0
C      1  0.4785750000000  0.5408140000000  0.5676390000000 1.0
C      1  0.4572750000000  0.5236600000000  0.5808160000000 1.0
C      1  0.4501730000000  0.4960840000000  0.5687730000000 1.0
C      1  0.4531400000000  0.4705560000000  0.5845130000000 1.0
C      1  0.4767350000000  0.4508710000000  0.5846570000000 1.0
C      1  0.5026660000000  0.4514050000000  0.5686160000000 1.0
C      1  0.4070860000000  0.5051530000000  0.4448740000000 1.0
C      1  0.4192320000000  0.4541760000000  0.4453110000000 1.0
C      1  0.4571940000000  0.4182900000000  0.4454750000000 1.0
C      1  0.5089180000000  0.4077350000000  0.4455480000000 1.0
C      1  0.5571760000000  0.4273890000000  0.4452320000000 1.0
C      1  0.5884510000000  0.4695050000000  0.4447560000000 1.0
C      1  0.5910200000000  0.5219510000000  0.4433750000000 1.0
C      1  0.5645340000000  0.5675540000000  0.4446510000000 1.0
C      1  0.5176060000000  0.5906770000000  0.4459480000000 1.0
C      1  0.4655260000000  0.5870540000000  0.4455380000000 1.0
C      1  0.4233380000000  0.5549890000000  0.4447070000000 1.0
C      1  0.5188680000000  0.4531540000000  0.4349050000000 1.0
C      1  0.5421300000000  0.4711970000000  0.4457130000000 1.0
C      1  0.5516770000000  0.4979040000000  0.4330780000000 1.0
C      1  0.5447950000000  0.5263720000000  0.4440800000000 1.0
C      1  0.5250260000000  0.5460180000000  0.4298940000000 1.0
C      1  0.4938590000000  0.5520370000000  0.4306940000000 1.0
C      1  0.4679910000000  0.5408040000000  0.4453040000000 1.0
C      1  0.4512180000000  0.5174890000000  0.4342540000000 1.0
C      1  0.4506390000000  0.4886770000000  0.4468220000000 1.0
C      1  0.4650330000000  0.4637200000000  0.4352590000000 1.0
C      1  0.4907180000000  0.4507710000000  0.4474320000000 1.0
C      1  0.4294920000000  0.4550950000000  0.5761600000000 1.0
C      1  0.4645640000000  0.4252250000000  0.5762500000000 1.0
C      1  0.5085190000000  0.4213590000000  0.5740720000000 1.0
C      1  0.5498410000000  0.4389780000000  0.5755700000000 1.0
C      1  0.5738350000000  0.4760020000000  0.5729670000000 1.0
C      1  0.5754080000000  0.5203840000000  0.5737010000000 1.0
C      1  0.5506300000000  0.5571880000000  0.5715430000000 1.0
C      1  0.5104010000000  0.5752680000000  0.5733060000000 1.0
C      1  0.4667950000000  0.5683540000000  0.5725030000000 1.0
C      1  0.4325810000000  0.5404680000000  0.5747120000000 1.0
C      1  0.4196030000000  0.4981000000000  0.5737050000000 1.0
C      1  0.5926900000000  0.4749410000000  0.4969340000000 1.0
C      1  0.5926530000000  0.5288420000000  0.4968130000000 1.0
C      1  0.5639110000000  0.5790840000000  0.4965260000000 1.0
C      1  0.5096600000000  0.6011010000000  0.4971720000000 1.0
C      1  0.4546330000000  0.5892300000000  0.4971020000000 1.0
C      1  0.4162640000000  0.5509260000000  0.4966540000000 1.0
C      1  0.4046170000000  0.4984920000000  0.4978080000000 1.0
C      1  0.4208040000000  0.4478130000000  0.4971980000000 1.0
C      1  0.4626000000000  0.4144780000000  0.4981890000000 1.0
C      1  0.5150970000000  0.4073060000000  0.4978220000000 1.0
C      1  0.5634980000000  0.4302630000000  0.4980000000000 1.0
C      1  0.5066580000000  0.5401450000000  0.6083810000000 1.0
C      1  0.4824150000000  0.5362590000000  0.6192590000000 1.0
C      1  0.4616040000000  0.5216730000000  0.6106150000000 1.0
C      1  0.4528720000000  0.4991300000000  0.6243340000000 1.0
C      1  0.4573940000000  0.4749770000000  0.6140920000000 1.0
C      1  0.4804920000000  0.4569970000000  0.6139610000000 1.0
C      1  0.5049140000000  0.4575730000000  0.6244810000000 1.0
C      1  0.5274660000000  0.4653880000000  0.6107110000000 1.0
C      1  0.5455320000000  0.4842910000000  0.6181060000000 1.0
C      1  0.5432050000000  0.5097220000000  0.6087390000000 1.0
C      1  0.5298700000000  0.5309730000000  0.6189820000000 1.0
C      1  0.4984090000000  0.4909800000000  0.5152180000000 1.0
C      1  0.5017090000000  0.4980390000000  0.4634800000000 1.0
C      1  0.5008240000000  0.5040900000000  0.4386690000000 1.0
C      1  0.5015680000000  0.5105690000000  0.5374150000000 1.0
C      1  0.4967970000000  0.5036950000000  0.4885150000000 1.0
END
