TITL C-214954-3001-9 0.0912148593125908 125000 -120.211326180086 0 0 19 (C1) n - 1
REM
REM in /rds/project/t2_vol4/rds-t2-cs072/BORA/CARBON/from-Arr/AIRSS/Generating-Clusters/GAP-ML-2020/Higher-Symm/SD-CG/HFTN-CG
REM
REM
REM
REM
REM
REM ./C.cell (b20cbc046b6831c77cfcea5457e17084)
REM AIRSS Version 0.9.1 bugfix July 2018 build 013d7b7c2542+ Fri, 06 Jul 2018 19:26:36 +0100
REM compiler GCC version 9.3.0
REM options -cpp -mtune=generic -march=x86-64 -g -O0
REM seed -630836125 1662128737 -1380356594 1245962153 1136431701 1671480438 437766771 465857628 -1236320867 -1705373634 1575559238 2091555436 -1741311045 1600834871 622591234 -1064594206 576484801 1367899119 -453263427 -1985908438 -468286927 520849890 -1330575793 499829452 -1397527526 647219997 -656783571 470604581 -686749652 1124002523 -1836318629 90335751 -1497085257
REM
CELL 1.54180   50.00000   50.00000   50.00000   90.00000   90.00000   90.00000
LATT -1
SFAC C  
C      1  0.4802150000000  0.4654300000000  0.4489370000000 1.0
C      1  0.5245280000000  0.4702180000000  0.4467660000000 1.0
C      1  0.4856700000000  0.5055530000000  0.5044600000000 1.0
C      1  0.5142090000000  0.5076540000000  0.5027870000000 1.0
C      1  0.5368340000000  0.4992680000000  0.4875440000000 1.0
C      1  0.4639250000000  0.4909230000000  0.4918250000000 1.0
C      1  0.5609330000000  0.5021880000000  0.5000120000000 1.0
C      1  0.4400770000000  0.4902400000000  0.5049520000000 1.0
C      1  0.4206860000000  0.4880640000000  0.5204790000000 1.0
C      1  0.5727630000000  0.4853110000000  0.5146080000000 1.0
C      1  0.4728600000000  0.5248190000000  0.5543850000000 1.0
C      1  0.5291460000000  0.5285170000000  0.5538630000000 1.0
C      1  0.5351180000000  0.4842420000000  0.4644700000000 1.0
C      1  0.4697570000000  0.4771300000000  0.4682860000000 1.0
C      1  0.4660170000000  0.5446240000000  0.5385180000000 1.0
C      1  0.5382500000000  0.5414380000000  0.5325000000000 1.0
C      1  0.5156300000000  0.5234840000000  0.5265940000000 1.0
C      1  0.4856800000000  0.5226640000000  0.5277990000000 1.0
C      1  0.5028010000000  0.4595600000000  0.4360330000000 1.0
END
