TITL C-215413-2563-4 -30.7624656549344 125000 -1300.01723408534 0 0 183 (C1) n - 1
REM
REM in /rds/project/t2_vol4/rds-t2-cs072/BORA/CARBON/from-Arr/AIRSS/Generating-Clusters/GAP-ML-2020/Higher-Symm/SD-CG/HFTN-CG/C160-200
REM
REM
REM
REM
REM
REM ./C.cell (6b4489405718ea1b717e0baf1da4c2d9)
REM AIRSS Version 0.9.1 bugfix July 2018 build 013d7b7c2542+ Fri, 06 Jul 2018 19:26:36 +0100
REM compiler GCC version 9.3.0
REM options -cpp -mtune=generic -march=x86-64 -g -O0
REM seed 128587135 -734009299 -502805636 -775967337 -2106243238 1908088787 -839403397 -1204819761 1269839288 -1363278662 -607884019 -59078706 1056846030 -1163089798 -1280072060 -911878711 -383236910 1195563981 456806420 -761428871 -353129252 -858380081 -1629052823 -366374005 765513117 1651699781 1911304677 -1721996881 1869947221 -146897711 113789918 736751239 -304607095
REM
CELL 1.54180   50.00000   50.00000   50.00000   90.00000   90.00000   90.00000
LATT -1
SFAC C  
C      1  0.5463770000000  0.5281760000000  0.5488950000000 1.0
C      1  0.5494350000000  0.5291390000000  0.4472650000000 1.0
C      1  0.5482460000000  0.4402280000000  0.4935080000000 1.0
C      1  0.4399450000000  0.5274270000000  0.5884360000000 1.0
C      1  0.4517480000000  0.5492760000000  0.4389590000000 1.0
C      1  0.4453460000000  0.4251760000000  0.4862880000000 1.0
C      1  0.5439160000000  0.4742170000000  0.5521810000000 1.0
C      1  0.5729470000000  0.4423970000000  0.4351300000000 1.0
C      1  0.5444850000000  0.5600240000000  0.4948980000000 1.0
C      1  0.4359140000000  0.4680140000000  0.5884120000000 1.0
C      1  0.4357650000000  0.4490680000000  0.4357070000000 1.0
C      1  0.4351120000000  0.5843770000000  0.4857750000000 1.0
C      1  0.5200990000000  0.5261770000000  0.4961290000000 1.0
C      1  0.5205530000000  0.4847040000000  0.4725810000000 1.0
C      1  0.5199030000000  0.4859830000000  0.5197040000000 1.0
C      1  0.4706700000000  0.5294410000000  0.4949590000000 1.0
C      1  0.4681510000000  0.4857520000000  0.4725980000000 1.0
C      1  0.4714800000000  0.4856100000000  0.5226010000000 1.0
C      1  0.5094530000000  0.4711100000000  0.4959300000000 1.0
C      1  0.5097680000000  0.5137420000000  0.4712470000000 1.0
C      1  0.5101890000000  0.5132090000000  0.5206310000000 1.0
C      1  0.4788720000000  0.4707400000000  0.4962380000000 1.0
C      1  0.4789270000000  0.5150930000000  0.4701730000000 1.0
C      1  0.4817610000000  0.5136980000000  0.5196860000000 1.0
C      1  0.5841210000000  0.5703280000000  0.4764970000000 1.0
C      1  0.5938670000000  0.4467940000000  0.4544830000000 1.0
C      1  0.5822650000000  0.4875500000000  0.5724680000000 1.0
C      1  0.4120580000000  0.5677810000000  0.4828990000000 1.0
C      1  0.4155390000000  0.4498240000000  0.4559940000000 1.0
C      1  0.4170820000000  0.4844690000000  0.5754220000000 1.0
C      1  0.5981990000000  0.4332290000000  0.4777350000000 1.0
C      1  0.5874600000000  0.5560830000000  0.4524170000000 1.0
C      1  0.5838940000000  0.5159380000000  0.5727070000000 1.0
C      1  0.4193500000000  0.4362780000000  0.4802040000000 1.0
C      1  0.4061460000000  0.5539310000000  0.4593860000000 1.0
C      1  0.4192150000000  0.5127160000000  0.5753170000000 1.0
C      1  0.4870500000000  0.5198530000000  0.6015340000000 1.0
C      1  0.4919670000000  0.5734000000000  0.4310290000000 1.0
C      1  0.4819230000000  0.4016490000000  0.4663580000000 1.0
C      1  0.5327440000000  0.5267630000000  0.5960090000000 1.0
C      1  0.5385220000000  0.5712470000000  0.4269590000000 1.0
C      1  0.5247290000000  0.4051180000000  0.4703770000000 1.0
C      1  0.4749850000000  0.4657050000000  0.6106000000000 1.0
C      1  0.4831840000000  0.4267550000000  0.4272810000000 1.0
C      1  0.4701270000000  0.6118340000000  0.4745130000000 1.0
C      1  0.5270250000000  0.4800980000000  0.5957840000000 1.0
C      1  0.5283540000000  0.4213100000000  0.4283400000000 1.0
C      1  0.5282120000000  0.5935400000000  0.4678230000000 1.0
C      1  0.4830860000000  0.5553030000000  0.4954140000000 1.0
C      1  0.4795840000000  0.4724400000000  0.4487470000000 1.0
C      1  0.4834960000000  0.4754190000000  0.5477520000000 1.0
C      1  0.5128720000000  0.5543080000000  0.4967120000000 1.0
C      1  0.5084820000000  0.4709150000000  0.4501320000000 1.0
C      1  0.5132730000000  0.4736560000000  0.5452970000000 1.0
C      1  0.4694390000000  0.4439620000000  0.4983490000000 1.0
C      1  0.4684590000000  0.5256030000000  0.4439220000000 1.0
C      1  0.4674760000000  0.5266170000000  0.5413070000000 1.0
C      1  0.5199710000000  0.4453650000000  0.4982420000000 1.0
C      1  0.5208940000000  0.5241280000000  0.4472540000000 1.0
C      1  0.5185600000000  0.5264840000000  0.5443090000000 1.0
C      1  0.5309510000000  0.5130890000000  0.3821460000000 1.0
C      1  0.5153550000000  0.3938190000000  0.5440630000000 1.0
C      1  0.5143510000000  0.5929240000000  0.5683270000000 1.0
C      1  0.5015570000000  0.5137910000000  0.3808720000000 1.0
C      1  0.4856710000000  0.3924960000000  0.5439510000000 1.0
C      1  0.4850800000000  0.5917810000000  0.5704740000000 1.0
C      1  0.5298870000000  0.4837290000000  0.3845910000000 1.0
C      1  0.5130830000000  0.6077510000000  0.5434260000000 1.0
C      1  0.5147420000000  0.4076570000000  0.5698410000000 1.0
C      1  0.5006660000000  0.4845000000000  0.3834400000000 1.0
C      1  0.4835480000000  0.6074250000000  0.5457050000000 1.0
C      1  0.4851480000000  0.4064270000000  0.5697140000000 1.0
C      1  0.4992040000000  0.5547490000000  0.4088960000000 1.0
C      1  0.4874780000000  0.3941250000000  0.4934670000000 1.0
C      1  0.4908180000000  0.5471430000000  0.5937440000000 1.0
C      1  0.5280240000000  0.5552310000000  0.4062830000000 1.0
C      1  0.5154820000000  0.3950920000000  0.4948720000000 1.0
C      1  0.5188030000000  0.5509970000000  0.5920230000000 1.0
C      1  0.4949450000000  0.4425120000000  0.4065060000000 1.0
C      1  0.4865450000000  0.6093310000000  0.4954660000000 1.0
C      1  0.4880980000000  0.4478260000000  0.5962030000000 1.0
C      1  0.5233720000000  0.4398850000000  0.4078620000000 1.0
C      1  0.5150990000000  0.6038930000000  0.4922100000000 1.0
C      1  0.5159560000000  0.4535180000000  0.5924460000000 1.0
C      1  0.4719490000000  0.5638400000000  0.5752860000000 1.0
C      1  0.4870880000000  0.5300820000000  0.3990240000000 1.0
C      1  0.4710700000000  0.4020170000000  0.5193190000000 1.0
C      1  0.5271580000000  0.5664730000000  0.5689350000000 1.0
C      1  0.5442480000000  0.5319460000000  0.3985660000000 1.0
C      1  0.5285060000000  0.4052450000000  0.5196710000000 1.0
C      1  0.4706520000000  0.4333600000000  0.5744550000000 1.0
C      1  0.4835850000000  0.4679870000000  0.3985200000000 1.0
C      1  0.4698020000000  0.5979400000000  0.5204660000000 1.0
C      1  0.5274580000000  0.4351050000000  0.5715640000000 1.0
C      1  0.5397620000000  0.4668010000000  0.4077860000000 1.0
C      1  0.5259800000000  0.5951430000000  0.5191600000000 1.0
C      1  0.4430660000000  0.5534490000000  0.5757130000000 1.0
C      1  0.4240850000000  0.5438790000000  0.4387350000000 1.0
C      1  0.4424000000000  0.4130230000000  0.5137790000000 1.0
C      1  0.5531220000000  0.5551600000000  0.5592210000000 1.0
C      1  0.5617860000000  0.5244430000000  0.4200400000000 1.0
C      1  0.5551760000000  0.4195920000000  0.5139540000000 1.0
C      1  0.4411770000000  0.4440700000000  0.5737730000000 1.0
C      1  0.4377200000000  0.4753900000000  0.4241930000000 1.0
C      1  0.4413610000000  0.5865530000000  0.5138010000000 1.0
C      1  0.5523310000000  0.4471650000000  0.5596230000000 1.0
C      1  0.5682600000000  0.4651480000000  0.4192680000000 1.0
C      1  0.5515870000000  0.5792900000000  0.5158270000000 1.0
C      1  0.5535440000000  0.5749130000000  0.4715650000000 1.0
C      1  0.5524210000000  0.4250190000000  0.4425370000000 1.0
C      1  0.5515520000000  0.4872870000000  0.5776230000000 1.0
C      1  0.4541030000000  0.5922950000000  0.4642370000000 1.0
C      1  0.4565780000000  0.4291190000000  0.4380510000000 1.0
C      1  0.4548090000000  0.4823580000000  0.6040530000000 1.0
C      1  0.5483130000000  0.4205440000000  0.4699990000000 1.0
C      1  0.5579600000000  0.5584800000000  0.4453200000000 1.0
C      1  0.5539070000000  0.5185780000000  0.5766230000000 1.0
C      1  0.4574690000000  0.4143410000000  0.4621130000000 1.0
C      1  0.4648400000000  0.5744520000000  0.4424190000000 1.0
C      1  0.4600980000000  0.5105640000000  0.6005540000000 1.0
C      1  0.5919660000000  0.4713430000000  0.5514420000000 1.0
C      1  0.5924860000000  0.5602090000000  0.5016550000000 1.0
C      1  0.6001890000000  0.4745950000000  0.4528140000000 1.0
C      1  0.4074090000000  0.4704800000000  0.5526860000000 1.0
C      1  0.4044100000000  0.5570130000000  0.5082920000000 1.0
C      1  0.4016840000000  0.4748570000000  0.4557480000000 1.0
C      1  0.5934140000000  0.5324190000000  0.5516540000000 1.0
C      1  0.5966590000000  0.4417890000000  0.5031280000000 1.0
C      1  0.5983180000000  0.5298230000000  0.4499880000000 1.0
C      1  0.4143380000000  0.5263650000000  0.5502100000000 1.0
C      1  0.4090360000000  0.4445850000000  0.5050870000000 1.0
C      1  0.3919440000000  0.5290020000000  0.4580450000000 1.0
C      1  0.4150580000000  0.4908990000000  0.4346950000000 1.0
C      1  0.4223860000000  0.4446480000000  0.5514910000000 1.0
C      1  0.4224440000000  0.5691000000000  0.5282270000000 1.0
C      1  0.5872810000000  0.4854320000000  0.4292970000000 1.0
C      1  0.5785670000000  0.4445960000000  0.5491330000000 1.0
C      1  0.5781170000000  0.5720110000000  0.5242240000000 1.0
C      1  0.4096960000000  0.5185030000000  0.4369290000000 1.0
C      1  0.4242030000000  0.5548440000000  0.5532830000000 1.0
C      1  0.4228610000000  0.4303320000000  0.5263600000000 1.0
C      1  0.5868840000000  0.5139110000000  0.4277990000000 1.0
C      1  0.5792490000000  0.5583840000000  0.5489500000000 1.0
C      1  0.5795900000000  0.4298080000000  0.5247540000000 1.0
C      1  0.6036230000000  0.4878310000000  0.4775260000000 1.0
C      1  0.5989230000000  0.4865640000000  0.5278100000000 1.0
C      1  0.5996200000000  0.5321050000000  0.5016400000000 1.0
C      1  0.3901980000000  0.4855390000000  0.4800900000000 1.0
C      1  0.3943240000000  0.4854040000000  0.5316160000000 1.0
C      1  0.3918060000000  0.5302880000000  0.5084300000000 1.0
C      1  0.5963750000000  0.5162780000000  0.4764510000000 1.0
C      1  0.5922110000000  0.5164340000000  0.5260880000000 1.0
C      1  0.5945510000000  0.4726480000000  0.5019950000000 1.0
C      1  0.3936890000000  0.5148860000000  0.4827870000000 1.0
C      1  0.3939540000000  0.5146180000000  0.5320170000000 1.0
C      1  0.3995540000000  0.4727360000000  0.5053820000000 1.0
C      1  0.4782120000000  0.5699050000000  0.5208410000000 1.0
C      1  0.4673120000000  0.4822860000000  0.4196980000000 1.0
C      1  0.4803450000000  0.4454910000000  0.5487910000000 1.0
C      1  0.5103280000000  0.5688740000000  0.5222220000000 1.0
C      1  0.5217980000000  0.4813400000000  0.4281330000000 1.0
C      1  0.5112380000000  0.4443850000000  0.5470640000000 1.0
C      1  0.4805990000000  0.4305350000000  0.5212820000000 1.0
C      1  0.4791620000000  0.5115000000000  0.4213830000000 1.0
C      1  0.4781560000000  0.5531310000000  0.5467010000000 1.0
C      1  0.5111770000000  0.4307700000000  0.5207360000000 1.0
C      1  0.5106740000000  0.5070650000000  0.4273140000000 1.0
C      1  0.5085740000000  0.5529090000000  0.5466170000000 1.0
C      1  0.5495040000000  0.4864310000000  0.5224380000000 1.0
C      1  0.5498880000000  0.5283150000000  0.4971840000000 1.0
C      1  0.5507690000000  0.4866760000000  0.4751930000000 1.0
C      1  0.4432760000000  0.4890630000000  0.5257480000000 1.0
C      1  0.4422160000000  0.5288730000000  0.5015740000000 1.0
C      1  0.4396340000000  0.4888510000000  0.4788130000000 1.0
C      1  0.5594740000000  0.5153710000000  0.5237990000000 1.0
C      1  0.5608500000000  0.4705050000000  0.4976020000000 1.0
C      1  0.5608170000000  0.5146410000000  0.4726900000000 1.0
C      1  0.4403620000000  0.5184820000000  0.5311910000000 1.0
C      1  0.4299980000000  0.4781750000000  0.5034080000000 1.0
C      1  0.4289360000000  0.5148120000000  0.4816320000000 1.0
C      1  0.5142420000000  0.5058240000000  0.6019870000000 1.0
C      1  0.5041510000000  0.4116830000000  0.4464450000000 1.0
C      1  0.5177230000000  0.5839160000000  0.4419860000000 1.0
END
