TITL C-21972-7658-5 -0.149911727170596 125000 -637.799632529861 0 0 94 (C1) n - 1
REM
REM in /rds/project/t2_vol4/rds-t2-cs072/BORA/CARBON/from-Arr/AIRSS/Generating-Clusters/GAP-ML-2020/Higher-Symm/SD-CG/HFTN-CG
REM
REM
REM
REM
REM
REM ./C.cell (b20cbc046b6831c77cfcea5457e17084)
REM AIRSS Version 0.9.1 bugfix July 2018 build 013d7b7c2542+ Fri, 06 Jul 2018 19:26:36 +0100
REM compiler GCC version 9.3.0
REM options -cpp -mtune=generic -march=x86-64 -g -O0
REM seed -1752570337 -85387993 -899885159 2101824146 598886133 394747498 1427283053 1751990800 1512587084 1598292004 2146161682 263216008 -1581251454 778716578 -1061307288 -896983861 -571088306 802104601 -1801894865 2136859025 -1714276286 768466604 -445545012 1796196029 -1763476648 1260002444 357467003 -1616612923 -676591683 11711910 1196813266 1106552238 457987777
REM
CELL 1.54180   50.00000   50.00000   50.00000   90.00000   90.00000   90.00000
LATT -1
SFAC C  
C      1  0.4793560000000  0.4460980000000  0.5522890000000 1.0
C      1  0.5243920000000  0.4507160000000  0.5513610000000 1.0
C      1  0.5573660000000  0.4836640000000  0.5563110000000 1.0
C      1  0.5521850000000  0.5305730000000  0.5549990000000 1.0
C      1  0.5150110000000  0.5599640000000  0.5539160000000 1.0
C      1  0.4703630000000  0.5509500000000  0.5517310000000 1.0
C      1  0.4397170000000  0.4689000000000  0.5597190000000 1.0
C      1  0.4418510000000  0.5145600000000  0.4405770000000 1.0
C      1  0.4550210000000  0.4636900000000  0.4362020000000 1.0
C      1  0.5020580000000  0.4444420000000  0.4420790000000 1.0
C      1  0.5487960000000  0.4657630000000  0.4428250000000 1.0
C      1  0.5615520000000  0.5153290000000  0.4434660000000 1.0
C      1  0.5292480000000  0.5565580000000  0.4436380000000 1.0
C      1  0.4762780000000  0.5580650000000  0.4427530000000 1.0
C      1  0.4496410000000  0.5824840000000  0.4712860000000 1.0
C      1  0.4063660000000  0.5001210000000  0.4737230000000 1.0
C      1  0.4373720000000  0.4275010000000  0.4708390000000 1.0
C      1  0.5127980000000  0.4071100000000  0.4704310000000 1.0
C      1  0.5822970000000  0.4482130000000  0.4720660000000 1.0
C      1  0.5929720000000  0.5338340000000  0.4758350000000 1.0
C      1  0.5359240000000  0.5922760000000  0.4742320000000 1.0
C      1  0.4898720000000  0.5693490000000  0.5411570000000 1.0
C      1  0.4231150000000  0.4868820000000  0.5450240000000 1.0
C      1  0.4506400000000  0.4460380000000  0.5449310000000 1.0
C      1  0.5024700000000  0.4324290000000  0.5398370000000 1.0
C      1  0.5516400000000  0.4581210000000  0.5423070000000 1.0
C      1  0.5683080000000  0.5084450000000  0.5439030000000 1.0
C      1  0.5410930000000  0.5553010000000  0.5420980000000 1.0
C      1  0.4513600000000  0.5161430000000  0.4857540000000 1.0
C      1  0.4560130000000  0.4858160000000  0.4790310000000 1.0
C      1  0.4853860000000  0.4701780000000  0.4797680000000 1.0
C      1  0.5181260000000  0.4719080000000  0.4808610000000 1.0
C      1  0.5390840000000  0.4958410000000  0.4818000000000 1.0
C      1  0.5293550000000  0.5248980000000  0.4801660000000 1.0
C      1  0.4759830000000  0.5318800000000  0.4853010000000 1.0
C      1  0.5741020000000  0.4700510000000  0.4550720000000 1.0
C      1  0.5719010000000  0.5383530000000  0.4561680000000 1.0
C      1  0.5182010000000  0.5812860000000  0.4536020000000 1.0
C      1  0.4492670000000  0.5597030000000  0.4548320000000 1.0
C      1  0.4205500000000  0.4967880000000  0.4495970000000 1.0
C      1  0.4561200000000  0.4401250000000  0.4535480000000 1.0
C      1  0.5222030000000  0.4285410000000  0.4546120000000 1.0
C      1  0.5363470000000  0.4511260000000  0.4654130000000 1.0
C      1  0.5662560000000  0.4958930000000  0.4655860000000 1.0
C      1  0.5468280000000  0.5480340000000  0.4654270000000 1.0
C      1  0.4913200000000  0.5762650000000  0.4594160000000 1.0
C      1  0.4408560000000  0.5332550000000  0.4618000000000 1.0
C      1  0.4403760000000  0.4783970000000  0.4548300000000 1.0
C      1  0.4826700000000  0.4431130000000  0.4644160000000 1.0
C      1  0.4332510000000  0.4281290000000  0.4965410000000 1.0
C      1  0.4951580000000  0.4217300000000  0.4847520000000 1.0
C      1  0.5601520000000  0.4468680000000  0.4871550000000 1.0
C      1  0.5835720000000  0.5127010000000  0.4897550000000 1.0
C      1  0.5465360000000  0.5716060000000  0.4874900000000 1.0
C      1  0.4759350000000  0.5830430000000  0.4847490000000 1.0
C      1  0.4025150000000  0.5004520000000  0.4987510000000 1.0
C      1  0.4815580000000  0.5765330000000  0.5134230000000 1.0
C      1  0.4139020000000  0.5059410000000  0.5243490000000 1.0
C      1  0.4453320000000  0.4450920000000  0.5156050000000 1.0
C      1  0.4996660000000  0.4364090000000  0.5102830000000 1.0
C      1  0.5507550000000  0.4598200000000  0.5123260000000 1.0
C      1  0.5737220000000  0.5057490000000  0.5158280000000 1.0
C      1  0.5405030000000  0.5613930000000  0.5139850000000 1.0
C      1  0.5208170000000  0.4574280000000  0.5064400000000 1.0
C      1  0.5496150000000  0.4905300000000  0.5086630000000 1.0
C      1  0.5281840000000  0.5372210000000  0.5067880000000 1.0
C      1  0.4688110000000  0.5530460000000  0.5052180000000 1.0
C      1  0.4398450000000  0.5192930000000  0.5150740000000 1.0
C      1  0.4491140000000  0.4720540000000  0.5049830000000 1.0
C      1  0.4773790000000  0.4607810000000  0.5071850000000 1.0
C      1  0.5350740000000  0.4903060000000  0.5740490000000 1.0
C      1  0.5326180000000  0.5199170000000  0.5734830000000 1.0
C      1  0.5093140000000  0.5385290000000  0.5731160000000 1.0
C      1  0.4805940000000  0.5328060000000  0.5722680000000 1.0
C      1  0.4629270000000  0.4804010000000  0.5781270000000 1.0
C      1  0.4863920000000  0.4627350000000  0.5762210000000 1.0
C      1  0.5151360000000  0.4674400000000  0.5739680000000 1.0
C      1  0.5251720000000  0.4974620000000  0.5260370000000 1.0
C      1  0.5077240000000  0.5167530000000  0.5156280000000 1.0
C      1  0.4837030000000  0.5192960000000  0.5301040000000 1.0
C      1  0.4585090000000  0.5390610000000  0.5274040000000 1.0
C      1  0.4465810000000  0.4924610000000  0.5268800000000 1.0
C      1  0.4844530000000  0.4723130000000  0.5337540000000 1.0
C      1  0.5126050000000  0.4733130000000  0.5313180000000 1.0
C      1  0.5040100000000  0.4704420000000  0.4302370000000 1.0
C      1  0.5298990000000  0.4837410000000  0.4308210000000 1.0
C      1  0.5356670000000  0.5122130000000  0.4310640000000 1.0
C      1  0.5163520000000  0.5345840000000  0.4301930000000 1.0
C      1  0.4870380000000  0.5338170000000  0.4303410000000 1.0
C      1  0.4690370000000  0.5098430000000  0.4297000000000 1.0
C      1  0.4772870000000  0.4813790000000  0.4291360000000 1.0
C      1  0.4712590000000  0.4970390000000  0.5413490000000 1.0
C      1  0.5004250000000  0.5170780000000  0.4857100000000 1.0
C      1  0.4686550000000  0.5062830000000  0.5696080000000 1.0
END
