TITL C-215405-2547-2 -53.7166309108034 125000 -1168.57144451703 0 0 164 (C1) n - 1
REM
REM in /rds/project/t2_vol4/rds-t2-cs072/BORA/CARBON/from-Arr/AIRSS/Generating-Clusters/GAP-ML-2020/Higher-Symm/SD-CG/HFTN-CG/C160-200
REM
REM
REM
REM
REM
REM ./C.cell (6b4489405718ea1b717e0baf1da4c2d9)
REM AIRSS Version 0.9.1 bugfix July 2018 build 013d7b7c2542+ Fri, 06 Jul 2018 19:26:36 +0100
REM compiler GCC version 9.3.0
REM options -cpp -mtune=generic -march=x86-64 -g -O0
REM seed -6982187 -252521188 497273563 1927831428 -1565623965 -2071356481 -1458177443 -958570402 851110684 -857073543 -1341474396 -194492699 618383722 1994398390 492062727 -1207148189 -472942000 727170844 -1797722231 17119091 1478977089 1434024047 -33056151 336248924 -1779258737 1815181997 -1430157861 -514813001 -36192679 1627363136 1015996514 -1459521111 1328310780
REM
CELL 1.54180   50.00000   50.00000   50.00000   90.00000   90.00000   90.00000
LATT -1
SFAC C  
C      1  0.5211780000000  0.5849740000000  0.4254000000000 1.0
C      1  0.5267170000000  0.5907070000000  0.5598380000000 1.0
C      1  0.5316930000000  0.4675870000000  0.6033330000000 1.0
C      1  0.5279480000000  0.3892990000000  0.5167570000000 1.0
C      1  0.5347560000000  0.4501710000000  0.3938790000000 1.0
C      1  0.4664940000000  0.5865240000000  0.4272630000000 1.0
C      1  0.4719930000000  0.5913340000000  0.5612930000000 1.0
C      1  0.4760320000000  0.4685440000000  0.6010310000000 1.0
C      1  0.4713240000000  0.3985670000000  0.5174320000000 1.0
C      1  0.4770670000000  0.4486920000000  0.4122330000000 1.0
C      1  0.4848720000000  0.5554370000000  0.5305980000000 1.0
C      1  0.4811870000000  0.4848310000000  0.5607860000000 1.0
C      1  0.4649140000000  0.4344450000000  0.5057930000000 1.0
C      1  0.4680640000000  0.4704220000000  0.4398550000000 1.0
C      1  0.4837290000000  0.5492160000000  0.4524340000000 1.0
C      1  0.5157410000000  0.5554340000000  0.5301540000000 1.0
C      1  0.5151210000000  0.4837590000000  0.5602010000000 1.0
C      1  0.5256200000000  0.4320340000000  0.5061170000000 1.0
C      1  0.5303100000000  0.4714260000000  0.4471510000000 1.0
C      1  0.5156110000000  0.5485180000000  0.4521130000000 1.0
C      1  0.5275500000000  0.4320920000000  0.4773100000000 1.0
C      1  0.5296970000000  0.4980050000000  0.4307770000000 1.0
C      1  0.5261950000000  0.5648030000000  0.4774060000000 1.0
C      1  0.5247170000000  0.5348760000000  0.5502190000000 1.0
C      1  0.5282280000000  0.4595690000000  0.5476730000000 1.0
C      1  0.4633830000000  0.4338000000000  0.4765090000000 1.0
C      1  0.4669850000000  0.4987690000000  0.4291090000000 1.0
C      1  0.4745880000000  0.5602610000000  0.4786900000000 1.0
C      1  0.4744320000000  0.5344180000000  0.5485450000000 1.0
C      1  0.4670510000000  0.4576850000000  0.5526530000000 1.0
C      1  0.5265730000000  0.4972030000000  0.4013530000000 1.0
C      1  0.5179530000000  0.5922050000000  0.4701830000000 1.0
C      1  0.5241790000000  0.5483100000000  0.5785290000000 1.0
C      1  0.5354550000000  0.4307340000000  0.5727290000000 1.0
C      1  0.5236490000000  0.4027550000000  0.4703780000000 1.0
C      1  0.4770760000000  0.4955720000000  0.4018210000000 1.0
C      1  0.4650710000000  0.6042180000000  0.4739340000000 1.0
C      1  0.4682330000000  0.5537610000000  0.5894410000000 1.0
C      1  0.4802880000000  0.4375480000000  0.5704240000000 1.0
C      1  0.4742020000000  0.4072460000000  0.4688460000000 1.0
C      1  0.5886460000000  0.5147020000000  0.5489680000000 1.0
C      1  0.5916270000000  0.4622310000000  0.5288400000000 1.0
C      1  0.5913450000000  0.4641770000000  0.4710670000000 1.0
C      1  0.5917110000000  0.5182450000000  0.4551640000000 1.0
C      1  0.5904890000000  0.5502190000000  0.5051900000000 1.0
C      1  0.4114660000000  0.5222300000000  0.5488400000000 1.0
C      1  0.4012920000000  0.4688790000000  0.5306490000000 1.0
C      1  0.4001400000000  0.4691510000000  0.4751710000000 1.0
C      1  0.4064740000000  0.5259540000000  0.4576330000000 1.0
C      1  0.4127540000000  0.5564630000000  0.5029270000000 1.0
C      1  0.5153610000000  0.3897640000000  0.5418700000000 1.0
C      1  0.5201830000000  0.4199730000000  0.4233330000000 1.0
C      1  0.5142700000000  0.5468040000000  0.4041950000000 1.0
C      1  0.5151060000000  0.6041300000000  0.5177140000000 1.0
C      1  0.5138540000000  0.5085740000000  0.6050210000000 1.0
C      1  0.4871790000000  0.3950120000000  0.5411430000000 1.0
C      1  0.4914260000000  0.4250780000000  0.4209060000000 1.0
C      1  0.4852060000000  0.5458510000000  0.4047940000000 1.0
C      1  0.4868790000000  0.6063820000000  0.5196360000000 1.0
C      1  0.4853610000000  0.5090900000000  0.6063790000000 1.0
C      1  0.4484920000000  0.4159410000000  0.5190850000000 1.0
C      1  0.4515520000000  0.4527800000000  0.4251440000000 1.0
C      1  0.4672390000000  0.5578840000000  0.4261910000000 1.0
C      1  0.4713020000000  0.5860900000000  0.5335370000000 1.0
C      1  0.4685140000000  0.4932570000000  0.5886700000000 1.0
C      1  0.5444810000000  0.4121510000000  0.5165580000000 1.0
C      1  0.5422550000000  0.4376070000000  0.4174250000000 1.0
C      1  0.5309910000000  0.5578610000000  0.4267540000000 1.0
C      1  0.5309850000000  0.5845300000000  0.5324570000000 1.0
C      1  0.5304900000000  0.4916420000000  0.5884720000000 1.0
C      1  0.4404990000000  0.5138020000000  0.4302620000000 1.0
C      1  0.4504700000000  0.5799890000000  0.4862640000000 1.0
C      1  0.4516550000000  0.5378690000000  0.5686530000000 1.0
C      1  0.4369170000000  0.4520830000000  0.5527770000000 1.0
C      1  0.4337180000000  0.4393340000000  0.4692110000000 1.0
C      1  0.5556730000000  0.5128050000000  0.4294650000000 1.0
C      1  0.5542550000000  0.5714350000000  0.4891570000000 1.0
C      1  0.5504950000000  0.5337000000000  0.5670380000000 1.0
C      1  0.5551360000000  0.4451550000000  0.5538050000000 1.0
C      1  0.5558330000000  0.4366760000000  0.4680110000000 1.0
C      1  0.4102030000000  0.4450450000000  0.5161280000000 1.0
C      1  0.4134360000000  0.4765450000000  0.4509590000000 1.0
C      1  0.4225830000000  0.5491740000000  0.4546640000000 1.0
C      1  0.4273510000000  0.5634070000000  0.5269790000000 1.0
C      1  0.4221300000000  0.4999330000000  0.5644080000000 1.0
C      1  0.5814690000000  0.4399300000000  0.5136090000000 1.0
C      1  0.5784740000000  0.4710810000000  0.4464180000000 1.0
C      1  0.5780200000000  0.5435850000000  0.4554440000000 1.0
C      1  0.5755210000000  0.5577200000000  0.5282750000000 1.0
C      1  0.5756980000000  0.4933850000000  0.5638000000000 1.0
C      1  0.5778480000000  0.4990820000000  0.4399600000000 1.0
C      1  0.5774980000000  0.5579090000000  0.4805320000000 1.0
C      1  0.5743150000000  0.5394960000000  0.5510800000000 1.0
C      1  0.5773290000000  0.4660380000000  0.5535980000000 1.0
C      1  0.5783440000000  0.4422840000000  0.4843540000000 1.0
C      1  0.4174920000000  0.5037070000000  0.4436560000000 1.0
C      1  0.4250030000000  0.5660120000000  0.4784900000000 1.0
C      1  0.4277270000000  0.5454230000000  0.5506010000000 1.0
C      1  0.4174140000000  0.4731730000000  0.5539040000000 1.0
C      1  0.4125820000000  0.4469410000000  0.4874230000000 1.0
C      1  0.5547050000000  0.5062660000000  0.5778480000000 1.0
C      1  0.5634660000000  0.4267810000000  0.5306130000000 1.0
C      1  0.5545660000000  0.4531870000000  0.4428120000000 1.0
C      1  0.5573570000000  0.5411790000000  0.4348830000000 1.0
C      1  0.5557980000000  0.5753900000000  0.5177120000000 1.0
C      1  0.4441420000000  0.5094450000000  0.5790560000000 1.0
C      1  0.4295310000000  0.4323240000000  0.5322740000000 1.0
C      1  0.4314670000000  0.4545230000000  0.4448090000000 1.0
C      1  0.4415150000000  0.5422320000000  0.4336470000000 1.0
C      1  0.4469360000000  0.5810920000000  0.5172340000000 1.0
C      1  0.3899160000000  0.4903850000000  0.5176910000000 1.0
C      1  0.3831840000000  0.4865210000000  0.4898260000000 1.0
C      1  0.3874040000000  0.5236090000000  0.4782530000000 1.0
C      1  0.3958510000000  0.5346440000000  0.5035760000000 1.0
C      1  0.3960280000000  0.5169020000000  0.5256760000000 1.0
C      1  0.6038460000000  0.4833760000000  0.5149260000000 1.0
C      1  0.6049460000000  0.4833750000000  0.4863460000000 1.0
C      1  0.6104930000000  0.5092140000000  0.4744020000000 1.0
C      1  0.6099560000000  0.5302310000000  0.5074920000000 1.0
C      1  0.6039690000000  0.5092500000000  0.5263790000000 1.0
C      1  0.4892150000000  0.4701250000000  0.3967850000000 1.0
C      1  0.4765280000000  0.6019570000000  0.4467980000000 1.0
C      1  0.4835310000000  0.5767260000000  0.5806730000000 1.0
C      1  0.4925030000000  0.4486570000000  0.5932690000000 1.0
C      1  0.4841290000000  0.3919220000000  0.4919190000000 1.0
C      1  0.5175870000000  0.4711870000000  0.3910430000000 1.0
C      1  0.5061420000000  0.5969280000000  0.4446930000000 1.0
C      1  0.5133890000000  0.5753040000000  0.5772850000000 1.0
C      1  0.5218820000000  0.4443090000000  0.5948390000000 1.0
C      1  0.5120760000000  0.3882110000000  0.4922110000000 1.0
C      1  0.4860880000000  0.5202340000000  0.3912680000000 1.0
C      1  0.4830170000000  0.6142300000000  0.4924890000000 1.0
C      1  0.4841510000000  0.5377240000000  0.6053580000000 1.0
C      1  0.4909640000000  0.4124410000000  0.5638290000000 1.0
C      1  0.4861150000000  0.4057570000000  0.4427110000000 1.0
C      1  0.5152840000000  0.5208510000000  0.3910850000000 1.0
C      1  0.5118980000000  0.6106130000000  0.4899280000000 1.0
C      1  0.5132510000000  0.5366660000000  0.6019580000000 1.0
C      1  0.5199260000000  0.4084110000000  0.5644110000000 1.0
C      1  0.5147440000000  0.4002850000000  0.4440980000000 1.0
C      1  0.5394580000000  0.4776600000000  0.5038590000000 1.0
C      1  0.5285260000000  0.4810120000000  0.4767380000000 1.0
C      1  0.5257900000000  0.5085240000000  0.4745880000000 1.0
C      1  0.5333470000000  0.5226790000000  0.4967830000000 1.0
C      1  0.5411760000000  0.5037950000000  0.5168940000000 1.0
C      1  0.4557620000000  0.4789310000000  0.5057950000000 1.0
C      1  0.4672960000000  0.4815630000000  0.4797130000000 1.0
C      1  0.4711780000000  0.5080940000000  0.4744890000000 1.0
C      1  0.4645250000000  0.5239600000000  0.4961590000000 1.0
C      1  0.4546950000000  0.5056620000000  0.5171120000000 1.0
C      1  0.4843370000000  0.5453610000000  0.5009100000000 1.0
C      1  0.4748870000000  0.5068300000000  0.5389160000000 1.0
C      1  0.4716890000000  0.4587090000000  0.5209560000000 1.0
C      1  0.4805650000000  0.4598280000000  0.4655310000000 1.0
C      1  0.4835030000000  0.5171500000000  0.4502010000000 1.0
C      1  0.5160470000000  0.5463450000000  0.5006530000000 1.0
C      1  0.5216770000000  0.5062730000000  0.5397740000000 1.0
C      1  0.5226910000000  0.4579280000000  0.5191990000000 1.0
C      1  0.5113010000000  0.4574150000000  0.4659960000000 1.0
C      1  0.5136630000000  0.5173290000000  0.4501820000000 1.0
C      1  0.3666370000000  0.5049750000000  0.4770760000000 1.0
C      1  0.6284850000000  0.5262700000000  0.4869920000000 1.0
C      1  0.4984470000000  0.4991680000000  0.5237520000000 1.0
C      1  0.4972680000000  0.4713820000000  0.5170270000000 1.0
END
