TITL C-215413-2563-3 -97.1820740627975 125000 -1324.235745426 0 0 190 (C1) n - 1
REM
REM in /rds/project/t2_vol4/rds-t2-cs072/BORA/CARBON/from-Arr/AIRSS/Generating-Clusters/GAP-ML-2020/Higher-Symm/SD-CG/HFTN-CG/C160-200
REM
REM
REM
REM
REM
REM ./C.cell (6b4489405718ea1b717e0baf1da4c2d9)
REM AIRSS Version 0.9.1 bugfix July 2018 build 013d7b7c2542+ Fri, 06 Jul 2018 19:26:36 +0100
REM compiler GCC version 9.3.0
REM options -cpp -mtune=generic -march=x86-64 -g -O0
REM seed 1059994543 -1401818763 -909823900 -2128915909 -945078734 242129013 -1039979283 -332170724 411072226 -1374618935 225942539 -2052886918 -1750902761 -896478978 884779209 1127935553 -890832313 1733614917 1180568268 35393553 -820661069 -1922374440 1503155665 -158070480 -454098807 995870865 46113391 -1865009520 -420801893 -1014749892 1341514886 -254372685 -55275136
REM
CELL 1.54180   50.00000   50.00000   50.00000   90.00000   90.00000   90.00000
LATT -1
SFAC C  
C      1  0.4528140000000  0.5964770000000  0.4894780000000 1.0
C      1  0.4542290000000  0.4036250000000  0.4898660000000 1.0
C      1  0.5848520000000  0.5316780000000  0.4253970000000 1.0
C      1  0.5856980000000  0.4704320000000  0.4253720000000 1.0
C      1  0.5199270000000  0.4228440000000  0.5086920000000 1.0
C      1  0.5182450000000  0.5755200000000  0.5071200000000 1.0
C      1  0.4446940000000  0.5139560000000  0.5470700000000 1.0
C      1  0.4445990000000  0.4857530000000  0.5473560000000 1.0
C      1  0.5219590000000  0.4855370000000  0.3890390000000 1.0
C      1  0.5218400000000  0.5157490000000  0.3885820000000 1.0
C      1  0.5539710000000  0.4476850000000  0.4035480000000 1.0
C      1  0.5511940000000  0.5534260000000  0.4043520000000 1.0
C      1  0.4880910000000  0.3991860000000  0.5539450000000 1.0
C      1  0.4877310000000  0.6003160000000  0.5530930000000 1.0
C      1  0.5181620000000  0.5138270000000  0.6120810000000 1.0
C      1  0.5180870000000  0.4856430000000  0.6120050000000 1.0
C      1  0.5291340000000  0.3976460000000  0.4956010000000 1.0
C      1  0.5279490000000  0.6016460000000  0.4949420000000 1.0
C      1  0.4676220000000  0.4723180000000  0.4198740000000 1.0
C      1  0.4626050000000  0.5287390000000  0.4181270000000 1.0
C      1  0.5340490000000  0.5931130000000  0.5520210000000 1.0
C      1  0.5347070000000  0.4064540000000  0.5534110000000 1.0
C      1  0.5085220000000  0.4437160000000  0.4283190000000 1.0
C      1  0.5051710000000  0.5543580000000  0.4289640000000 1.0
C      1  0.4733860000000  0.5153950000000  0.3954440000000 1.0
C      1  0.4743670000000  0.4863370000000  0.3964080000000 1.0
C      1  0.4655540000000  0.4711070000000  0.5309210000000 1.0
C      1  0.4661990000000  0.5274850000000  0.5314570000000 1.0
C      1  0.5269740000000  0.3838710000000  0.4428540000000 1.0
C      1  0.5251200000000  0.6139980000000  0.4422160000000 1.0
C      1  0.5107610000000  0.5939250000000  0.5686550000000 1.0
C      1  0.5110480000000  0.4058680000000  0.5696340000000 1.0
C      1  0.5962700000000  0.5140020000000  0.5502990000000 1.0
C      1  0.5964420000000  0.4859120000000  0.5504770000000 1.0
C      1  0.5405570000000  0.4731100000000  0.4440520000000 1.0
C      1  0.5394190000000  0.5252640000000  0.4434350000000 1.0
C      1  0.4403710000000  0.5528030000000  0.5862580000000 1.0
C      1  0.4402320000000  0.4472870000000  0.5860100000000 1.0
C      1  0.4769570000000  0.5574030000000  0.5283740000000 1.0
C      1  0.4778010000000  0.4415590000000  0.5281870000000 1.0
C      1  0.5458730000000  0.6007660000000  0.4530740000000 1.0
C      1  0.5479440000000  0.3969120000000  0.4536250000000 1.0
C      1  0.5822520000000  0.4470640000000  0.4114260000000 1.0
C      1  0.5781100000000  0.5556660000000  0.4142170000000 1.0
C      1  0.4357400000000  0.5907800000000  0.5121450000000 1.0
C      1  0.4364100000000  0.4102130000000  0.5117710000000 1.0
C      1  0.4907820000000  0.4285610000000  0.5020990000000 1.0
C      1  0.4887410000000  0.5694260000000  0.5017860000000 1.0
C      1  0.5294520000000  0.4714810000000  0.5036180000000 1.0
C      1  0.5290160000000  0.5272350000000  0.5028830000000 1.0
C      1  0.4550590000000  0.4460130000000  0.4245840000000 1.0
C      1  0.4501190000000  0.5558430000000  0.4230970000000 1.0
C      1  0.3933020000000  0.5301700000000  0.5154800000000 1.0
C      1  0.3933350000000  0.4726470000000  0.5154340000000 1.0
C      1  0.4720110000000  0.5330600000000  0.4626670000000 1.0
C      1  0.4748810000000  0.4592640000000  0.4619910000000 1.0
C      1  0.3813280000000  0.4399500000000  0.4807840000000 1.0
C      1  0.3939710000000  0.5617210000000  0.4788660000000 1.0
C      1  0.4324490000000  0.4751660000000  0.4904010000000 1.0
C      1  0.4354310000000  0.5269630000000  0.4906640000000 1.0
C      1  0.5122240000000  0.4269710000000  0.4540260000000 1.0
C      1  0.5079350000000  0.5706640000000  0.4546690000000 1.0
C      1  0.4417070000000  0.5346480000000  0.4631460000000 1.0
C      1  0.4265890000000  0.4619230000000  0.4644790000000 1.0
C      1  0.4643180000000  0.4337240000000  0.5797020000000 1.0
C      1  0.4644520000000  0.5660570000000  0.5796710000000 1.0
C      1  0.4806550000000  0.5122360000000  0.4828320000000 1.0
C      1  0.4794980000000  0.4822530000000  0.4823980000000 1.0
C      1  0.5806000000000  0.4708380000000  0.5693540000000 1.0
C      1  0.5802990000000  0.5289330000000  0.5691290000000 1.0
C      1  0.4949910000000  0.5232360000000  0.5429100000000 1.0
C      1  0.4946820000000  0.4765670000000  0.5425910000000 1.0
C      1  0.5017640000000  0.5152440000000  0.5710480000000 1.0
C      1  0.5015390000000  0.4846780000000  0.5708860000000 1.0
C      1  0.5476820000000  0.4742680000000  0.3948330000000 1.0
C      1  0.5475520000000  0.5272360000000  0.3936450000000 1.0
C      1  0.5734910000000  0.5554290000000  0.5563910000000 1.0
C      1  0.5739350000000  0.4442800000000  0.5568460000000 1.0
C      1  0.5089100000000  0.4707310000000  0.4818640000000 1.0
C      1  0.5083490000000  0.5268230000000  0.4810700000000 1.0
C      1  0.4094460000000  0.5160960000000  0.4976570000000 1.0
C      1  0.4087570000000  0.4883960000000  0.4984470000000 1.0
C      1  0.5870900000000  0.5555530000000  0.5314000000000 1.0
C      1  0.5875150000000  0.4441920000000  0.5317530000000 1.0
C      1  0.4203160000000  0.4481760000000  0.5650360000000 1.0
C      1  0.4204260000000  0.5524250000000  0.5652930000000 1.0
C      1  0.5413250000000  0.5253750000000  0.5979540000000 1.0
C      1  0.5412460000000  0.4737550000000  0.5977690000000 1.0
C      1  0.5230780000000  0.3989810000000  0.5264780000000 1.0
C      1  0.5220900000000  0.5999150000000  0.5249120000000 1.0
C      1  0.4648290000000  0.4853150000000  0.6059840000000 1.0
C      1  0.4649290000000  0.5146940000000  0.6059560000000 1.0
C      1  0.4945510000000  0.6087260000000  0.5271550000000 1.0
C      1  0.4954330000000  0.3903280000000  0.5282350000000 1.0
C      1  0.4929670000000  0.5592520000000  0.4037900000000 1.0
C      1  0.4951460000000  0.4405540000000  0.4032710000000 1.0
C      1  0.5399480000000  0.5712780000000  0.4507120000000 1.0
C      1  0.5435480000000  0.4268990000000  0.4493510000000 1.0
C      1  0.4195170000000  0.5744080000000  0.5475320000000 1.0
C      1  0.4196390000000  0.4268360000000  0.5465120000000 1.0
C      1  0.5190970000000  0.5139890000000  0.5274510000000 1.0
C      1  0.5189380000000  0.4857250000000  0.5273580000000 1.0
C      1  0.5510860000000  0.4286000000000  0.5640130000000 1.0
C      1  0.5506460000000  0.5712960000000  0.5630660000000 1.0
C      1  0.3960850000000  0.5151960000000  0.5400450000000 1.0
C      1  0.3963230000000  0.4867560000000  0.5400590000000 1.0
C      1  0.5337950000000  0.5554570000000  0.5802080000000 1.0
C      1  0.5340810000000  0.4445580000000  0.5811440000000 1.0
C      1  0.5545140000000  0.3990280000000  0.4820930000000 1.0
C      1  0.5532980000000  0.5999750000000  0.4813070000000 1.0
C      1  0.4549390000000  0.4147240000000  0.4621760000000 1.0
C      1  0.4520860000000  0.5871580000000  0.4611260000000 1.0
C      1  0.4177570000000  0.4746720000000  0.5546880000000 1.0
C      1  0.4180030000000  0.5262140000000  0.5544480000000 1.0
C      1  0.4752420000000  0.4079380000000  0.4428270000000 1.0
C      1  0.4730850000000  0.5921050000000  0.4425790000000 1.0
C      1  0.5352780000000  0.5519460000000  0.4282340000000 1.0
C      1  0.5383210000000  0.4470150000000  0.4272630000000 1.0
C      1  0.4124240000000  0.4262840000000  0.5183240000000 1.0
C      1  0.4117440000000  0.5759820000000  0.5196010000000 1.0
C      1  0.5674700000000  0.5140860000000  0.5906120000000 1.0
C      1  0.5675100000000  0.4854360000000  0.5906650000000 1.0
C      1  0.5699990000000  0.4875590000000  0.4069390000000 1.0
C      1  0.5701870000000  0.5144660000000  0.4060940000000 1.0
C      1  0.5533700000000  0.4851220000000  0.4913690000000 1.0
C      1  0.5529820000000  0.5135020000000  0.4910660000000 1.0
C      1  0.5137220000000  0.5140680000000  0.4523780000000 1.0
C      1  0.5143980000000  0.4835100000000  0.4530930000000 1.0
C      1  0.5022320000000  0.6088950000000  0.4815430000000 1.0
C      1  0.5035450000000  0.3899660000000  0.4821710000000 1.0
C      1  0.4967320000000  0.5316100000000  0.3905590000000 1.0
C      1  0.4973160000000  0.4694490000000  0.3911440000000 1.0
C      1  0.5600340000000  0.5287680000000  0.4648390000000 1.0
C      1  0.5610520000000  0.4699690000000  0.4650990000000 1.0
C      1  0.5857110000000  0.5600230000000  0.5025270000000 1.0
C      1  0.5862580000000  0.4397880000000  0.5028520000000 1.0
C      1  0.4001340000000  0.4498150000000  0.4674940000000 1.0
C      1  0.4062910000000  0.5639420000000  0.4572800000000 1.0
C      1  0.4583090000000  0.4827010000000  0.5037620000000 1.0
C      1  0.4595040000000  0.5149390000000  0.5045130000000 1.0
C      1  0.5872830000000  0.4734860000000  0.4543220000000 1.0
C      1  0.5865630000000  0.5266910000000  0.4541850000000 1.0
C      1  0.4969120000000  0.4432360000000  0.4760010000000 1.0
C      1  0.4927270000000  0.5533430000000  0.4760620000000 1.0
C      1  0.4709200000000  0.5736110000000  0.4185780000000 1.0
C      1  0.4736760000000  0.4265270000000  0.4193150000000 1.0
C      1  0.5001830000000  0.6008090000000  0.4533400000000 1.0
C      1  0.5024610000000  0.3972990000000  0.4536430000000 1.0
C      1  0.6029940000000  0.4856820000000  0.4758380000000 1.0
C      1  0.6028280000000  0.5147430000000  0.4755450000000 1.0
C      1  0.4913720000000  0.5267880000000  0.5983110000000 1.0
C      1  0.4912170000000  0.4730750000000  0.5982770000000 1.0
C      1  0.4914640000000  0.4683390000000  0.4390610000000 1.0
C      1  0.4883950000000  0.5286960000000  0.4386550000000 1.0
C      1  0.5998930000000  0.4670550000000  0.4984910000000 1.0
C      1  0.5997440000000  0.5330860000000  0.4981900000000 1.0
C      1  0.4811650000000  0.6007370000000  0.4997030000000 1.0
C      1  0.4823440000000  0.3983060000000  0.5004100000000 1.0
C      1  0.4357690000000  0.5631260000000  0.4502260000000 1.0
C      1  0.4484850000000  0.4439270000000  0.4539950000000 1.0
C      1  0.6005720000000  0.4697140000000  0.5275540000000 1.0
C      1  0.6003340000000  0.5301560000000  0.5272640000000 1.0
C      1  0.3934370000000  0.5580560000000  0.5069400000000 1.0
C      1  0.3937070000000  0.4448300000000  0.5066530000000 1.0
C      1  0.5413180000000  0.5143510000000  0.5480930000000 1.0
C      1  0.5411930000000  0.4854220000000  0.5480400000000 1.0
C      1  0.5594100000000  0.5586250000000  0.4670290000000 1.0
C      1  0.5621470000000  0.4401070000000  0.4661740000000 1.0
C      1  0.4670290000000  0.5795630000000  0.5528120000000 1.0
C      1  0.4671430000000  0.4196340000000  0.5533640000000 1.0
C      1  0.5041070000000  0.4494850000000  0.5383650000000 1.0
C      1  0.5040260000000  0.5503400000000  0.5380130000000 1.0
C      1  0.5277480000000  0.5520920000000  0.5188540000000 1.0
C      1  0.5283380000000  0.4469390000000  0.5201770000000 1.0
C      1  0.5712170000000  0.4229360000000  0.4858560000000 1.0
C      1  0.5697540000000  0.5761810000000  0.4857300000000 1.0
C      1  0.4262350000000  0.5145200000000  0.4486880000000 1.0
C      1  0.4207420000000  0.4866500000000  0.4476070000000 1.0
C      1  0.4877470000000  0.4434280000000  0.5923700000000 1.0
C      1  0.4879180000000  0.5564570000000  0.5922420000000 1.0
C      1  0.4425080000000  0.4104580000000  0.5408700000000 1.0
C      1  0.4425950000000  0.5897660000000  0.5408410000000 1.0
C      1  0.4058980000000  0.4908440000000  0.4228380000000 1.0
C      1  0.4103900000000  0.5167900000000  0.4243660000000 1.0
C      1  0.5107860000000  0.5709350000000  0.5859810000000 1.0
C      1  0.5108500000000  0.4290830000000  0.5865740000000 1.0
C      1  0.4438410000000  0.4679940000000  0.6036540000000 1.0
C      1  0.4439640000000  0.5320580000000  0.6038020000000 1.0
C      1  0.5291880000000  0.4729110000000  0.5712810000000 1.0
C      1  0.5294880000000  0.5271130000000  0.5715770000000 1.0
END
