TITL C-215423-2499-1 -0.142095899063516 125000 -1196.99096032026 0 0 168 (C1) n - 1
REM
REM in /rds/project/t2_vol4/rds-t2-cs072/BORA/CARBON/from-Arr/AIRSS/Generating-Clusters/GAP-ML-2020/Higher-Symm/SD-CG/HFTN-CG/C160-200
REM
REM
REM
REM
REM
REM ./C.cell (6b4489405718ea1b717e0baf1da4c2d9)
REM AIRSS Version 0.9.1 bugfix July 2018 build 013d7b7c2542+ Fri, 06 Jul 2018 19:26:36 +0100
REM compiler GCC version 9.3.0
REM options -cpp -mtune=generic -march=x86-64 -g -O0
REM seed 576081603 495969200 396189798 79154634 -798630282 1540460486 -282788705 -1776331779 -22733337 624138041 -1331838653 567246203 20301648 1577502834 1029558083 -1249220399 2096529167 1034396558 -1029999892 1361745022 578783697 1416952080 982061805 1940328555 798921952 -630549082 2114240107 1319179818 568072732 -608039308 1878314554 -1161851778 -1195781405
REM
CELL 1.54180   50.00000   50.00000   50.00000   90.00000   90.00000   90.00000
LATT -1
SFAC C  
C      1  0.5767630000000  0.5621270000000  0.5116700000000 1.0
C      1  0.4533350000000  0.5664060000000  0.5670320000000 1.0
C      1  0.4661770000000  0.5656390000000  0.4267730000000 1.0
C      1  0.4250150000000  0.4388690000000  0.5144930000000 1.0
C      1  0.5489730000000  0.4377040000000  0.5602090000000 1.0
C      1  0.5308530000000  0.4363560000000  0.4275370000000 1.0
C      1  0.4417960000000  0.4878420000000  0.5946460000000 1.0
C      1  0.4495060000000  0.4891640000000  0.4081620000000 1.0
C      1  0.6019740000000  0.4915130000000  0.4950270000000 1.0
C      1  0.5469340000000  0.5078390000000  0.5901040000000 1.0
C      1  0.5535710000000  0.5114600000000  0.4025030000000 1.0
C      1  0.3981020000000  0.5080050000000  0.4956460000000 1.0
C      1  0.5066270000000  0.4234480000000  0.5687890000000 1.0
C      1  0.4382250000000  0.4237350000000  0.4736130000000 1.0
C      1  0.5583060000000  0.4216340000000  0.4601100000000 1.0
C      1  0.4959120000000  0.5786170000000  0.5710040000000 1.0
C      1  0.5619810000000  0.5760260000000  0.4713380000000 1.0
C      1  0.4409060000000  0.5790480000000  0.4612830000000 1.0
C      1  0.4509230000000  0.4629960000000  0.5860000000000 1.0
C      1  0.4559810000000  0.4686030000000  0.4275120000000 1.0
C      1  0.5852060000000  0.4664410000000  0.4954830000000 1.0
C      1  0.5381730000000  0.5320320000000  0.5743270000000 1.0
C      1  0.5509970000000  0.5365500000000  0.4142150000000 1.0
C      1  0.4145030000000  0.5334470000000  0.4952270000000 1.0
C      1  0.5534020000000  0.5959630000000  0.4894120000000 1.0
C      1  0.4840980000000  0.5975280000000  0.5531970000000 1.0
C      1  0.4640370000000  0.5957090000000  0.4611010000000 1.0
C      1  0.4474760000000  0.4043300000000  0.4918850000000 1.0
C      1  0.5180300000000  0.4036920000000  0.5519250000000 1.0
C      1  0.5356680000000  0.4043520000000  0.4602170000000 1.0
C      1  0.5096900000000  0.5276470000000  0.5268310000000 1.0
C      1  0.4698600000000  0.5340580000000  0.4957140000000 1.0
C      1  0.5140480000000  0.5272270000000  0.4796030000000 1.0
C      1  0.4902070000000  0.4735740000000  0.5232990000000 1.0
C      1  0.5300410000000  0.4672690000000  0.4950050000000 1.0
C      1  0.4859500000000  0.4731660000000  0.4769970000000 1.0
C      1  0.5776000000000  0.4926180000000  0.4403100000000 1.0
C      1  0.5011410000000  0.4815010000000  0.5941680000000 1.0
C      1  0.4171270000000  0.4813880000000  0.4553300000000 1.0
C      1  0.4223560000000  0.5072940000000  0.4416300000000 1.0
C      1  0.4866260000000  0.5071190000000  0.5959290000000 1.0
C      1  0.5818900000000  0.5186240000000  0.4538010000000 1.0
C      1  0.5177740000000  0.4143300000000  0.4408820000000 1.0
C      1  0.5442100000000  0.4124680000000  0.5463250000000 1.0
C      1  0.4397050000000  0.4135260000000  0.5174410000000 1.0
C      1  0.4810790000000  0.5857460000000  0.4407470000000 1.0
C      1  0.4575250000000  0.5886030000000  0.5491650000000 1.0
C      1  0.5625950000000  0.5875070000000  0.5147240000000 1.0
C      1  0.5109630000000  0.4738070000000  0.5656920000000 1.0
C      1  0.4382120000000  0.4745690000000  0.4769450000000 1.0
C      1  0.5566420000000  0.4751560000000  0.4539850000000 1.0
C      1  0.4873810000000  0.5245040000000  0.5700650000000 1.0
C      1  0.5617470000000  0.5254560000000  0.4764530000000 1.0
C      1  0.4433960000000  0.5255220000000  0.4543310000000 1.0
C      1  0.5551070000000  0.5076650000000  0.5001680000000 1.0
C      1  0.4706390000000  0.5091010000000  0.5479670000000 1.0
C      1  0.4719620000000  0.5112900000000  0.4508610000000 1.0
C      1  0.4452610000000  0.4928150000000  0.4996320000000 1.0
C      1  0.5287070000000  0.4903550000000  0.5473960000000 1.0
C      1  0.5290870000000  0.4905350000000  0.4509750000000 1.0
C      1  0.5725020000000  0.4482660000000  0.5718780000000 1.0
C      1  0.4013830000000  0.4483700000000  0.5277170000000 1.0
C      1  0.5251760000000  0.4477660000000  0.4027980000000 1.0
C      1  0.4298620000000  0.5513890000000  0.5690720000000 1.0
C      1  0.5981060000000  0.5509790000000  0.5263920000000 1.0
C      1  0.4761540000000  0.5512660000000  0.4050370000000 1.0
C      1  0.4283870000000  0.5770110000000  0.5111410000000 1.0
C      1  0.5293370000000  0.5734210000000  0.4345110000000 1.0
C      1  0.5449910000000  0.5764240000000  0.5573580000000 1.0
C      1  0.5721790000000  0.4226400000000  0.5094640000000 1.0
C      1  0.4707530000000  0.4253670000000  0.4362320000000 1.0
C      1  0.4585000000000  0.4255620000000  0.5596450000000 1.0
C      1  0.4801100000000  0.5166640000000  0.5192450000000 1.0
C      1  0.4861240000000  0.5256960000000  0.4716820000000 1.0
C      1  0.5251490000000  0.5120710000000  0.5062890000000 1.0
C      1  0.5197970000000  0.4847050000000  0.5181870000000 1.0
C      1  0.5140900000000  0.4754650000000  0.4710720000000 1.0
C      1  0.4749840000000  0.4894670000000  0.5041180000000 1.0
C      1  0.5074820000000  0.6065770000000  0.4723190000000 1.0
C      1  0.5214760000000  0.6087880000000  0.5208620000000 1.0
C      1  0.4724530000000  0.6083890000000  0.5093670000000 1.0
C      1  0.4926720000000  0.3922100000000  0.4730760000000 1.0
C      1  0.4800150000000  0.3916300000000  0.5221950000000 1.0
C      1  0.5284100000000  0.3907070000000  0.5083880000000 1.0
C      1  0.6066950000000  0.5127920000000  0.4739330000000 1.0
C      1  0.4607180000000  0.5068760000000  0.6079200000000 1.0
C      1  0.4268440000000  0.5069830000000  0.4133510000000 1.0
C      1  0.3931630000000  0.4864330000000  0.4747710000000 1.0
C      1  0.5312850000000  0.4873440000000  0.6053290000000 1.0
C      1  0.5742870000000  0.4924000000000  0.4120500000000 1.0
C      1  0.5316450000000  0.4931670000000  0.3994430000000 1.0
C      1  0.5674700000000  0.4930690000000  0.5778250000000 1.0
C      1  0.3994330000000  0.4931010000000  0.5195710000000 1.0
C      1  0.4704000000000  0.5065290000000  0.4005930000000 1.0
C      1  0.4283610000000  0.5062130000000  0.5771210000000 1.0
C      1  0.6011370000000  0.5063070000000  0.5189210000000 1.0
C      1  0.5533770000000  0.4452610000000  0.4443110000000 1.0
C      1  0.5227640000000  0.4463460000000  0.5680660000000 1.0
C      1  0.4312990000000  0.4471650000000  0.4875900000000 1.0
C      1  0.4450010000000  0.5556900000000  0.4443850000000 1.0
C      1  0.4791260000000  0.5551970000000  0.5746450000000 1.0
C      1  0.5695230000000  0.5530670000000  0.4855730000000 1.0
C      1  0.5068140000000  0.5546740000000  0.5174980000000 1.0
C      1  0.4847650000000  0.5584110000000  0.5006580000000 1.0
C      1  0.5120110000000  0.5547460000000  0.4902400000000 1.0
C      1  0.4928660000000  0.4462000000000  0.5150940000000 1.0
C      1  0.5153900000000  0.4426160000000  0.4991640000000 1.0
C      1  0.4881890000000  0.4460290000000  0.4879030000000 1.0
C      1  0.4414430000000  0.4483710000000  0.5622420000000 1.0
C      1  0.4775880000000  0.4489970000000  0.4217960000000 1.0
C      1  0.5798890000000  0.4483360000000  0.5199920000000 1.0
C      1  0.5572890000000  0.5504570000000  0.5586360000000 1.0
C      1  0.5254510000000  0.5509130000000  0.4166490000000 1.0
C      1  0.4193500000000  0.5508730000000  0.5203990000000 1.0
C      1  0.4811240000000  0.4315010000000  0.5767280000000 1.0
C      1  0.4440530000000  0.4309030000000  0.4473250000000 1.0
C      1  0.5775430000000  0.4241560000000  0.4805940000000 1.0
C      1  0.5231240000000  0.5753730000000  0.5763470000000 1.0
C      1  0.5555000000000  0.5678810000000  0.4456630000000 1.0
C      1  0.4224270000000  0.5764650000000  0.4823300000000 1.0
C      1  0.5726290000000  0.5103820000000  0.5281880000000 1.0
C      1  0.4378410000000  0.5099830000000  0.5484920000000 1.0
C      1  0.4907310000000  0.5109870000000  0.4223500000000 1.0
C      1  0.4281000000000  0.4886230000000  0.5280200000000 1.0
C      1  0.5612880000000  0.4886520000000  0.5486700000000 1.0
C      1  0.5124970000000  0.4889120000000  0.4228200000000 1.0
C      1  0.4429270000000  0.5227110000000  0.4866690000000 1.0
C      1  0.5341240000000  0.5188310000000  0.4615090000000 1.0
C      1  0.5161620000000  0.5196080000000  0.5545980000000 1.0
C      1  0.5571330000000  0.4779630000000  0.4865470000000 1.0
C      1  0.4652910000000  0.4814890000000  0.4581810000000 1.0
C      1  0.4839890000000  0.4809750000000  0.5494600000000 1.0
C      1  0.5076420000000  0.3899810000000  0.5287080000000 1.0
C      1  0.4729000000000  0.3908590000000  0.4938600000000 1.0
C      1  0.5206080000000  0.3907260000000  0.4808700000000 1.0
C      1  0.4940060000000  0.6099290000000  0.5288230000000 1.0
C      1  0.5277660000000  0.6089190000000  0.4922670000000 1.0
C      1  0.4798080000000  0.6084860000000  0.4814510000000 1.0
C      1  0.5007060000000  0.5380220000000  0.4111570000000 1.0
C      1  0.5753290000000  0.5388290000000  0.5391770000000 1.0
C      1  0.4246870000000  0.5379330000000  0.5447710000000 1.0
C      1  0.5028390000000  0.4602850000000  0.4146730000000 1.0
C      1  0.4252690000000  0.4600890000000  0.5401380000000 1.0
C      1  0.5717440000000  0.4600280000000  0.5454040000000 1.0
C      1  0.4325700000000  0.4554970000000  0.4387550000000 1.0
C      1  0.5908390000000  0.4469420000000  0.4750790000000 1.0
C      1  0.4780430000000  0.4559940000000  0.5914420000000 1.0
C      1  0.5681670000000  0.5437390000000  0.4355960000000 1.0
C      1  0.4088480000000  0.5538740000000  0.4756840000000 1.0
C      1  0.5235310000000  0.5516160000000  0.5890370000000 1.0
C      1  0.5430420000000  0.4674190000000  0.3935090000000 1.0
C      1  0.5693140000000  0.4680870000000  0.5915890000000 1.0
C      1  0.3862320000000  0.4679540000000  0.5147440000000 1.0
C      1  0.4584700000000  0.5319290000000  0.3941740000000 1.0
C      1  0.4294340000000  0.5319290000000  0.5896680000000 1.0
C      1  0.6138010000000  0.5313890000000  0.5137020000000 1.0
C      1  0.5518850000000  0.4051950000000  0.5201830000000 1.0
C      1  0.4589210000000  0.4070700000000  0.5370930000000 1.0
C      1  0.4907130000000  0.4075270000000  0.4474550000000 1.0
C      1  0.4490590000000  0.5940360000000  0.5223540000000 1.0
C      1  0.5439680000000  0.5943360000000  0.5347920000000 1.0
C      1  0.5087920000000  0.5904080000000  0.4468330000000 1.0
C      1  0.6235440000000  0.5306060000000  0.4876310000000 1.0
C      1  0.4460170000000  0.5304580000000  0.6113850000000 1.0
C      1  0.4314360000000  0.5302560000000  0.3980100000000 1.0
C      1  0.3762650000000  0.4688380000000  0.4887890000000 1.0
C      1  0.5515600000000  0.4694400000000  0.6130650000000 1.0
C      1  0.5701190000000  0.4690720000000  0.3971170000000 1.0
END
