TITL C-21981-5602-6 0.458203993954827 125000 -658.124983104103 0 0 94 (C1) n - 1
REM
REM in /rds/project/t2_vol4/rds-t2-cs072/BORA/CARBON/from-Arr/AIRSS/Generating-Clusters/GAP-ML-2020/Higher-Symm/SD-CG/HFTN-CG
REM
REM
REM
REM
REM
REM ./C.cell (b20cbc046b6831c77cfcea5457e17084)
REM AIRSS Version 0.9.1 bugfix July 2018 build 013d7b7c2542+ Fri, 06 Jul 2018 19:26:36 +0100
REM compiler GCC version 9.3.0
REM options -cpp -mtune=generic -march=x86-64 -g -O0
REM seed 668739645 -152153579 -1930054499 2058202979 -165688917 -178758575 -1886175763 -231280779 979845092 313437976 -399148304 -652524570 1558779674 -1611640889 -891134506 -556644768 1878254779 -1368004266 -721567341 -1154071075 735709366 1481201723 -547381398 1677211821 -785771252 525140616 -191891748 -852912748 -2095459809 -673271015 -1116373772 1770104715 -234351009
REM
CELL 1.54180   50.00000   50.00000   50.00000   90.00000   90.00000   90.00000
LATT -1
SFAC C  
C      1  0.5600310000000  0.4766120000000  0.4605780000000 1.0
C      1  0.4837660000000  0.5203550000000  0.5240730000000 1.0
C      1  0.4325790000000  0.5512480000000  0.5240900000000 1.0
C      1  0.4324720000000  0.5337600000000  0.4786590000000 1.0
C      1  0.4633570000000  0.4703940000000  0.4348540000000 1.0
C      1  0.5031480000000  0.5892790000000  0.4723760000000 1.0
C      1  0.4417150000000  0.5389550000000  0.4250860000000 1.0
C      1  0.5289060000000  0.4570740000000  0.5172370000000 1.0
C      1  0.4431330000000  0.4970370000000  0.5351970000000 1.0
C      1  0.4761280000000  0.4250630000000  0.4848630000000 1.0
C      1  0.5458960000000  0.4851950000000  0.5623320000000 1.0
C      1  0.5172260000000  0.4836440000000  0.4783550000000 1.0
C      1  0.4548650000000  0.5776880000000  0.4881120000000 1.0
C      1  0.4594120000000  0.5197020000000  0.5411560000000 1.0
C      1  0.4694760000000  0.5658640000000  0.5539120000000 1.0
C      1  0.5200830000000  0.4172950000000  0.4647290000000 1.0
C      1  0.5224810000000  0.4331490000000  0.5557140000000 1.0
C      1  0.5802900000000  0.4778360000000  0.5343820000000 1.0
C      1  0.5013970000000  0.4989020000000  0.5313160000000 1.0
C      1  0.4745900000000  0.4757780000000  0.5657710000000 1.0
C      1  0.5669760000000  0.5024360000000  0.4512020000000 1.0
C      1  0.4600420000000  0.4734780000000  0.5403560000000 1.0
C      1  0.5184450000000  0.5136000000000  0.4714810000000 1.0
C      1  0.4862070000000  0.4763500000000  0.5189030000000 1.0
C      1  0.4868190000000  0.4562820000000  0.4425550000000 1.0
C      1  0.5283840000000  0.5908590000000  0.4845050000000 1.0
C      1  0.5221820000000  0.4766940000000  0.5738670000000 1.0
C      1  0.4985900000000  0.5639890000000  0.5574870000000 1.0
C      1  0.5391450000000  0.4966750000000  0.4107790000000 1.0
C      1  0.4255570000000  0.5298960000000  0.5054930000000 1.0
C      1  0.5650240000000  0.4682800000000  0.4879570000000 1.0
C      1  0.5162300000000  0.4481790000000  0.5787320000000 1.0
C      1  0.4522440000000  0.4450160000000  0.5379810000000 1.0
C      1  0.5418410000000  0.4306170000000  0.5124760000000 1.0
C      1  0.5384180000000  0.4372690000000  0.4663970000000 1.0
C      1  0.4861570000000  0.5469380000000  0.4465160000000 1.0
C      1  0.5013450000000  0.4261520000000  0.5347590000000 1.0
C      1  0.5763870000000  0.5067400000000  0.5364780000000 1.0
C      1  0.4901500000000  0.5890980000000  0.5191580000000 1.0
C      1  0.4820090000000  0.5894760000000  0.4910940000000 1.0
C      1  0.4994230000000  0.4937460000000  0.5649130000000 1.0
C      1  0.4421710000000  0.5083860000000  0.4641910000000 1.0
C      1  0.5282410000000  0.5290070000000  0.4436200000000 1.0
C      1  0.5733100000000  0.5216280000000  0.4690240000000 1.0
C      1  0.4657640000000  0.5838220000000  0.5327550000000 1.0
C      1  0.4925650000000  0.5056030000000  0.4183250000000 1.0
C      1  0.4892290000000  0.5244940000000  0.4732590000000 1.0
C      1  0.5139230000000  0.4863780000000  0.4157770000000 1.0
C      1  0.4470670000000  0.5142520000000  0.4352370000000 1.0
C      1  0.5834520000000  0.5107990000000  0.5088880000000 1.0
C      1  0.5138720000000  0.5413000000000  0.5677210000000 1.0
C      1  0.4722270000000  0.4242370000000  0.5338440000000 1.0
C      1  0.4447740000000  0.5581250000000  0.4692740000000 1.0
C      1  0.4253440000000  0.5017530000000  0.5140020000000 1.0
C      1  0.5357200000000  0.4805000000000  0.5023040000000 1.0
C      1  0.4723680000000  0.5020990000000  0.4739110000000 1.0
C      1  0.5481700000000  0.5108340000000  0.5452330000000 1.0
C      1  0.5123540000000  0.5751630000000  0.5346950000000 1.0
C      1  0.5288880000000  0.5040680000000  0.5189920000000 1.0
C      1  0.4364530000000  0.4381570000000  0.5147320000000 1.0
C      1  0.5028370000000  0.5191900000000  0.5783920000000 1.0
C      1  0.5485950000000  0.5121270000000  0.4305950000000 1.0
C      1  0.4660340000000  0.4962570000000  0.4240340000000 1.0
C      1  0.4491580000000  0.5450900000000  0.5472610000000 1.0
C      1  0.4944520000000  0.4415470000000  0.5954960000000 1.0
C      1  0.4572220000000  0.5526100000000  0.4435400000000 1.0
C      1  0.5168260000000  0.4150590000000  0.5114360000000 1.0
C      1  0.5470350000000  0.5491650000000  0.5015890000000 1.0
C      1  0.4157370000000  0.4520670000000  0.5049410000000 1.0
C      1  0.5311180000000  0.5571270000000  0.4534770000000 1.0
C      1  0.5123760000000  0.4645240000000  0.4341150000000 1.0
C      1  0.4941330000000  0.5336330000000  0.5011810000000 1.0
C      1  0.4760100000000  0.4539600000000  0.5822770000000 1.0
C      1  0.4738880000000  0.4520720000000  0.4709480000000 1.0
C      1  0.4306050000000  0.4818990000000  0.4694460000000 1.0
C      1  0.4203190000000  0.4787050000000  0.4958480000000 1.0
C      1  0.5375430000000  0.5387420000000  0.5508070000000 1.0
C      1  0.5325110000000  0.4640200000000  0.4559260000000 1.0
C      1  0.5031700000000  0.4140910000000  0.4862060000000 1.0
C      1  0.5427510000000  0.5680280000000  0.4790040000000 1.0
C      1  0.5845320000000  0.4811840000000  0.5058020000000 1.0
C      1  0.5247270000000  0.5267220000000  0.4989530000000 1.0
C      1  0.5016130000000  0.5296530000000  0.4289150000000 1.0
C      1  0.5559650000000  0.4395070000000  0.4886560000000 1.0
C      1  0.5616300000000  0.4643470000000  0.5500050000000 1.0
C      1  0.4481920000000  0.4626310000000  0.4577840000000 1.0
C      1  0.5030100000000  0.4543930000000  0.5255660000000 1.0
C      1  0.4602170000000  0.4209760000000  0.5078620000000 1.0
C      1  0.4446740000000  0.5751180000000  0.5145210000000 1.0
C      1  0.5368200000000  0.5588910000000  0.5300650000000 1.0
C      1  0.5710050000000  0.5309330000000  0.4940620000000 1.0
C      1  0.4860810000000  0.4783910000000  0.4869470000000 1.0
C      1  0.5055990000000  0.5685970000000  0.4519320000000 1.0
C      1  0.5451940000000  0.4415410000000  0.5407460000000 1.0
END
