TITL C-21825-7490-4 -0.247881021107986 125000 -550.930373523299 0 0 83 (C4) n - 1
REM
REM in /rds/project/t2_vol4/rds-t2-cs072/BORA/CARBON/from-Arr/AIRSS/Generating-Clusters/GAP-ML-2020/Higher-Symm/SD-CG/HFTN-CG
REM
REM
REM
REM
REM
REM ./C.cell (b20cbc046b6831c77cfcea5457e17084)
REM AIRSS Version 0.9.1 bugfix July 2018 build 013d7b7c2542+ Fri, 06 Jul 2018 19:26:36 +0100
REM compiler GCC version 9.3.0
REM options -cpp -mtune=generic -march=x86-64 -g -O0
REM seed 905999542 -886056183 1910164432 283798094 1058520801 -351892376 -1436839041 1560594927 -2022447979 656141932 1874269751 -1692689203 1888828150 -576843558 1988274351 1752665824 -947128253 1794795982 864439180 -1663578853 1491783536 318593771 -1206384583 760331360 -366309843 -142270424 130289353 -2019930474 519317030 -44376050 -1651768647 -1605453848 981932434
REM
CELL 1.54180   50.00000   50.00000   50.00000   90.00000   90.00000   90.00000
LATT -1
SFAC C  
C      1  0.5280940000000  0.4753750000000  0.5080810000000 1.0
C      1  0.4897170000000  0.4745320000000  0.5271950000000 1.0
C      1  0.4705840000000  0.4764610000000  0.4888660000000 1.0
C      1  0.5089620000000  0.4773040000000  0.4697520000000 1.0
C      1  0.5328750000000  0.5238220000000  0.5106340000000 1.0
C      1  0.4896620000000  0.5227710000000  0.5342290000000 1.0
C      1  0.4660440000000  0.5249480000000  0.4910710000000 1.0
C      1  0.5092570000000  0.5259990000000  0.4674760000000 1.0
C      1  0.5723400000000  0.5390190000000  0.4915900000000 1.0
C      1  0.5094640000000  0.5351150000000  0.5743130000000 1.0
C      1  0.4266490000000  0.5384020000000  0.5115220000000 1.0
C      1  0.4895260000000  0.5423070000000  0.4287990000000 1.0
C      1  0.5697240000000  0.4625940000000  0.4963720000000 1.0
C      1  0.5007530000000  0.4592410000000  0.5681570000000 1.0
C      1  0.4288890000000  0.4628010000000  0.4992770000000 1.0
C      1  0.4978600000000  0.4661540000000  0.4274920000000 1.0
C      1  0.4565520000000  0.5312500000000  0.5585910000000 1.0
C      1  0.4421510000000  0.5362020000000  0.4584490000000 1.0
C      1  0.5424150000000  0.5366600000000  0.4440540000000 1.0
C      1  0.5568160000000  0.5317080000000  0.5441950000000 1.0
C      1  0.4548890000000  0.4597060000000  0.5517770000000 1.0
C      1  0.4452710000000  0.4645570000000  0.4534460000000 1.0
C      1  0.5437220000000  0.4647850000000  0.4438270000000 1.0
C      1  0.5533400000000  0.4599340000000  0.5421590000000 1.0
C      1  0.5346190000000  0.4824480000000  0.5375360000000 1.0
C      1  0.4606650000000  0.4827990000000  0.5341120000000 1.0
C      1  0.4641020000000  0.4864170000000  0.4602470000000 1.0
C      1  0.5380560000000  0.4860650000000  0.4636710000000 1.0
C      1  0.5359030000000  0.5123380000000  0.5382940000000 1.0
C      1  0.4614470000000  0.5125960000000  0.5367870000000 1.0
C      1  0.4629660000000  0.5162430000000  0.4624200000000 1.0
C      1  0.5374210000000  0.5159840000000  0.4639280000000 1.0
C      1  0.4728380000000  0.4663700000000  0.5736370000000 1.0
C      1  0.4237830000000  0.4714940000000  0.4717380000000 1.0
C      1  0.5258110000000  0.4736470000000  0.4227300000000 1.0
C      1  0.5748660000000  0.4685230000000  0.5246290000000 1.0
C      1  0.4909800000000  0.5340670000000  0.5939560000000 1.0
C      1  0.4069780000000  0.5392280000000  0.4930560000000 1.0
C      1  0.5080090000000  0.5430970000000  0.4091430000000 1.0
C      1  0.5920110000000  0.5379360000000  0.5100430000000 1.0
C      1  0.4837620000000  0.5612380000000  0.4518060000000 1.0
C      1  0.5503380000000  0.5593570000000  0.4867680000000 1.0
C      1  0.5153270000000  0.5561790000000  0.5532690000000 1.0
C      1  0.4487500000000  0.5580610000000  0.5183070000000 1.0
C      1  0.4897000000000  0.4436920000000  0.4446070000000 1.0
C      1  0.5514740000000  0.4414470000000  0.4872170000000 1.0
C      1  0.5088060000000  0.4385240000000  0.5489220000000 1.0
C      1  0.4470320000000  0.4407690000000  0.5063120000000 1.0
C      1  0.5389380000000  0.4424070000000  0.4617440000000 1.0
C      1  0.5342940000000  0.4387550000000  0.5363830000000 1.0
C      1  0.4595660000000  0.4391670000000  0.5317540000000 1.0
C      1  0.4642100000000  0.4428200000000  0.4571150000000 1.0
C      1  0.5362630000000  0.5595190000000  0.4625420000000 1.0
C      1  0.5395280000000  0.5557500000000  0.5391580000000 1.0
C      1  0.4628200000000  0.5557800000000  0.5424290000000 1.0
C      1  0.4595550000000  0.5595490000000  0.4658130000000 1.0
C      1  0.4673690000000  0.5546280000000  0.4948610000000 1.0
C      1  0.5070000000000  0.5557410000000  0.4701890000000 1.0
C      1  0.5316970000000  0.5537370000000  0.5097690000000 1.0
C      1  0.4920660000000  0.5526240000000  0.5344420000000 1.0
C      1  0.4689550000000  0.4441930000000  0.4865640000000 1.0
C      1  0.5095990000000  0.4450710000000  0.4666190000000 1.0
C      1  0.5295630000000  0.4430290000000  0.5072120000000 1.0
C      1  0.4889190000000  0.4421500000000  0.5271560000000 1.0
C      1  0.5304940000000  0.5265390000000  0.4188450000000 1.0
C      1  0.5814700000000  0.5208700000000  0.5317560000000 1.0
C      1  0.4684160000000  0.5186500000000  0.5826850000000 1.0
C      1  0.4174400000000  0.5243190000000  0.4697730000000 1.0
C      1  0.5308100000000  0.4996290000000  0.4150140000000 1.0
C      1  0.5839090000000  0.4938130000000  0.5308120000000 1.0
C      1  0.4679650000000  0.4914960000000  0.5838620000000 1.0
C      1  0.4148670000000  0.4973120000000  0.4680630000000 1.0
C      1  0.5094970000000  0.5123820000000  0.5531520000000 1.0
C      1  0.4466110000000  0.5146350000000  0.5104470000000 1.0
C      1  0.4893750000000  0.5176120000000  0.4476320000000 1.0
C      1  0.5522610000000  0.5153600000000  0.4903370000000 1.0
C      1  0.5086040000000  0.4823260000000  0.5514350000000 1.0
C      1  0.4467780000000  0.4846040000000  0.5081530000000 1.0
C      1  0.4901190000000  0.4875280000000  0.4463960000000 1.0
C      1  0.5519450000000  0.4852500000000  0.4896780000000 1.0
C      1  0.4995500000000  0.5609950000000  0.5026500000000 1.0
C      1  0.4992400000000  0.4360540000000  0.4965170000000 1.0
C      1  0.4993590000000  0.4837840000000  0.4988600000000 1.0
END
