TITL C-21829-7417-4 -64.8662136332002 125000 -1162.15514497858 0 0 165 (C5) n - 1
REM
REM in /rds/project/t2_vol4/rds-t2-cs072/BORA/CARBON/from-Arr/AIRSS/Generating-Clusters/GAP-ML-2020/Higher-Symm/SD-CG/HFTN-CG
REM
REM
REM
REM
REM
REM ./C.cell (b20cbc046b6831c77cfcea5457e17084)
REM AIRSS Version 0.9.1 bugfix July 2018 build 013d7b7c2542+ Fri, 06 Jul 2018 19:26:36 +0100
REM compiler GCC version 9.3.0
REM options -cpp -mtune=generic -march=x86-64 -g -O0
REM seed -1863621603 -440758378 -134190978 -1345143141 809618149 -1155640458 1883746708 976667805 1188563732 -855679079 282636454 1973754070 -1017513961 1388380751 -721283691 1709215569 1297798666 1325037276 2092727489 879423808 646286866 -660502830 65241114 1755320358 -924582718 1753097226 969114756 1160157338 -560648269 -635623027 948114468 -1971500924 425629415
REM
CELL 1.54180   50.00000   50.00000   50.00000   90.00000   90.00000   90.00000
LATT -1
SFAC C  
C      1  0.4868220000000  0.4789530000000  0.4172130000000 1.0
C      1  0.5161930000000  0.4810690000000  0.4172370000000 1.0
C      1  0.5232570000000  0.5096570000000  0.4173190000000 1.0
C      1  0.4982510000000  0.5252090000000  0.4173460000000 1.0
C      1  0.4757330000000  0.5062330000000  0.4172800000000 1.0
C      1  0.4433010000000  0.5393410000000  0.4348800000000 1.0
C      1  0.4452590000000  0.4583170000000  0.4346620000000 1.0
C      1  0.5229230000000  0.4351420000000  0.4346470000000 1.0
C      1  0.5689640000000  0.5018430000000  0.4348560000000 1.0
C      1  0.5197540000000  0.5662410000000  0.4350000000000 1.0
C      1  0.4841970000000  0.4808920000000  0.5574600000000 1.0
C      1  0.5131170000000  0.4789920000000  0.5574730000000 1.0
C      1  0.5238600000000  0.5059090000000  0.5575520000000 1.0
C      1  0.5015810000000  0.5244440000000  0.5575890000000 1.0
C      1  0.4770680000000  0.5089830000000  0.5575320000000 1.0
C      1  0.4708700000000  0.4601760000000  0.5109630000000 1.0
C      1  0.5288400000000  0.4599750000000  0.5109980000000 1.0
C      1  0.5469450000000  0.5150450000000  0.5111590000000 1.0
C      1  0.5001650000000  0.5492820000000  0.5112230000000 1.0
C      1  0.4531470000000  0.5153710000000  0.5111020000000 1.0
C      1  0.5390710000000  0.5318590000000  0.4870920000000 1.0
C      1  0.4818130000000  0.5470200000000  0.4870980000000 1.0
C      1  0.4497000000000  0.4972500000000  0.4869430000000 1.0
C      1  0.4871110000000  0.4513290000000  0.4868420000000 1.0
C      1  0.5423450000000  0.4727190000000  0.4869340000000 1.0
C      1  0.4299810000000  0.5547610000000  0.4561550000000 1.0
C      1  0.4264150000000  0.4503870000000  0.4558700000000 1.0
C      1  0.5245780000000  0.4147420000000  0.4558330000000 1.0
C      1  0.5888130000000  0.4970850000000  0.4560960000000 1.0
C      1  0.5303490000000  0.5836210000000  0.4562950000000 1.0
C      1  0.5141370000000  0.4790110000000  0.5266560000000 1.0
C      1  0.5242500000000  0.5069250000000  0.5267370000000 1.0
C      1  0.5008270000000  0.5251690000000  0.5267720000000 1.0
C      1  0.4762390000000  0.5085300000000  0.5267120000000 1.0
C      1  0.4844640000000  0.4800030000000  0.5266400000000 1.0
C      1  0.5510350000000  0.5624840000000  0.5744580000000 1.0
C      1  0.4561210000000  0.5677510000000  0.5744140000000 1.0
C      1  0.4217830000000  0.4791100000000  0.5741520000000 1.0
C      1  0.4954740000000  0.4190600000000  0.5740340000000 1.0
C      1  0.5753570000000  0.4705890000000  0.5742230000000 1.0
C      1  0.4119430000000  0.5303880000000  0.5302280000000 1.0
C      1  0.4437980000000  0.4256050000000  0.5299630000000 1.0
C      1  0.5532960000000  0.4235200000000  0.5300250000000 1.0
C      1  0.5891150000000  0.5270150000000  0.5303280000000 1.0
C      1  0.5017540000000  0.5930630000000  0.5304530000000 1.0
C      1  0.4552580000000  0.5510080000000  0.4117690000000 1.0
C      1  0.4379280000000  0.4733240000000  0.4115480000000 1.0
C      1  0.5064540000000  0.4328360000000  0.4114800000000 1.0
C      1  0.5661370000000  0.4854970000000  0.4116600000000 1.0
C      1  0.5344960000000  0.5585320000000  0.4118380000000 1.0
C      1  0.4517410000000  0.5936750000000  0.5052440000000 1.0
C      1  0.3959810000000  0.4830440000000  0.5049100000000 1.0
C      1  0.4839680000000  0.3958260000000  0.5047270000000 1.0
C      1  0.5941060000000  0.4525540000000  0.5049490000000 1.0
C      1  0.5741890000000  0.5748320000000  0.5052690000000 1.0
C      1  0.4048140000000  0.5337370000000  0.5031740000000 1.0
C      1  0.4384910000000  0.4198940000000  0.5028860000000 1.0
C      1  0.5571690000000  0.4167430000000  0.5029510000000 1.0
C      1  0.5968390000000  0.5286380000000  0.5032790000000 1.0
C      1  0.5026790000000  0.6009450000000  0.5034170000000 1.0
C      1  0.4484880000000  0.4897870000000  0.6046930000000 1.0
C      1  0.4934810000000  0.4477190000000  0.6046070000000 1.0
C      1  0.5473930000000  0.4775090000000  0.6047210000000 1.0
C      1  0.5357200000000  0.5379890000000  0.6048780000000 1.0
C      1  0.4745940000000  0.5455770000000  0.6048610000000 1.0
C      1  0.5051300000000  0.4511330000000  0.3887860000000 1.0
C      1  0.5483940000000  0.4899210000000  0.3889180000000 1.0
C      1  0.5248740000000  0.5430540000000  0.3890470000000 1.0
C      1  0.4670740000000  0.5371040000000  0.3889950000000 1.0
C      1  0.4548710000000  0.4802940000000  0.3888340000000 1.0
C      1  0.5394980000000  0.4324370000000  0.5787840000000 1.0
C      1  0.5762250000000  0.5165850000000  0.5790340000000 1.0
C      1  0.5075440000000  0.5775170000000  0.5791580000000 1.0
C      1  0.4283700000000  0.5310280000000  0.5789830000000 1.0
C      1  0.4481190000000  0.4413630000000  0.5787520000000 1.0
C      1  0.5424540000000  0.5180230000000  0.4383840000000 1.0
C      1  0.4961640000000  0.5460240000000  0.4384310000000 1.0
C      1  0.4552280000000  0.5106530000000  0.4383100000000 1.0
C      1  0.4762180000000  0.4607910000000  0.4381880000000 1.0
C      1  0.5301270000000  0.4653450000000  0.4382340000000 1.0
C      1  0.4289800000000  0.5039830000000  0.5873250000000 1.0
C      1  0.4740040000000  0.4335750000000  0.5871610000000 1.0
C      1  0.5548790000000  0.4546370000000  0.5872680000000 1.0
C      1  0.5598390000000  0.5380620000000  0.5874980000000 1.0
C      1  0.4820290000000  0.5685590000000  0.5875320000000 1.0
C      1  0.4675850000000  0.5807940000000  0.4516250000000 1.0
C      1  0.4132890000000  0.4942010000000  0.4513570000000 1.0
C      1  0.4788670000000  0.4158040000000  0.4511850000000 1.0
C      1  0.5736910000000  0.4539450000000  0.4513470000000 1.0
C      1  0.5667180000000  0.5559150000000  0.4516190000000 1.0
C      1  0.4708110000000  0.4346990000000  0.5269280000000 1.0
C      1  0.5530040000000  0.4520260000000  0.5270260000000 1.0
C      1  0.5619240000000  0.5355490000000  0.5272580000000 1.0
C      1  0.4852440000000  0.5698440000000  0.5273040000000 1.0
C      1  0.4289330000000  0.5075150000000  0.5271000000000 1.0
C      1  0.4851330000000  0.5762870000000  0.4752570000000 1.0
C      1  0.4229270000000  0.5094670000000  0.4750380000000 1.0
C      1  0.4672550000000  0.4296570000000  0.4748490000000 1.0
C      1  0.5568570000000  0.4471520000000  0.4749510000000 1.0
C      1  0.5679060000000  0.5377750000000  0.4752040000000 1.0
C      1  0.4239580000000  0.5429120000000  0.5526320000000 1.0
C      1  0.4355330000000  0.4408730000000  0.5523620000000 1.0
C      1  0.5361540000000  0.4203490000000  0.5523680000000 1.0
C      1  0.5867670000000  0.5097030000000  0.5526420000000 1.0
C      1  0.5174260000000  0.5854510000000  0.5528050000000 1.0
C      1  0.5594460000000  0.5822410000000  0.4602580000000 1.0
C      1  0.4402740000000  0.5820010000000  0.4601830000000 1.0
C      1  0.4036750000000  0.4685890000000  0.4598540000000 1.0
C      1  0.5002290000000  0.3987350000000  0.4597240000000 1.0
C      1  0.5965000000000  0.4689760000000  0.4599730000000 1.0
C      1  0.5511690000000  0.5630800000000  0.5223150000000 1.0
C      1  0.4557520000000  0.5681290000000  0.5222700000000 1.0
C      1  0.4214650000000  0.4789430000000  0.5220070000000 1.0
C      1  0.4956920000000  0.4187740000000  0.5218890000000 1.0
C      1  0.5758530000000  0.4707740000000  0.5220800000000 1.0
C      1  0.4895000000000  0.4741140000000  0.4650810000000 1.0
C      1  0.5214800000000  0.4820590000000  0.4651220000000 1.0
C      1  0.5238050000000  0.5149290000000  0.4652130000000 1.0
C      1  0.4932620000000  0.5272980000000  0.4652270000000 1.0
C      1  0.4720610000000  0.5020730000000  0.4651460000000 1.0
C      1  0.5868480000000  0.5525190000000  0.4928120000000 1.0
C      1  0.4769110000000  0.5988360000000  0.4928700000000 1.0
C      1  0.3988880000000  0.5085930000000  0.4925770000000 1.0
C      1  0.4606050000000  0.4065020000000  0.4923380000000 1.0
C      1  0.5767710000000  0.4336500000000  0.4924840000000 1.0
C      1  0.5696150000000  0.4925040000000  0.5923680000000 1.0
C      1  0.5283630000000  0.5637730000000  0.5925360000000 1.0
C      1  0.4478350000000  0.5465630000000  0.5924390000000 1.0
C      1  0.4393180000000  0.4646590000000  0.5922120000000 1.0
C      1  0.5145830000000  0.4312480000000  0.5921670000000 1.0
C      1  0.4431110000000  0.5641160000000  0.5491200000000 1.0
C      1  0.4212950000000  0.4656450000000  0.5488400000000 1.0
C      1  0.5082050000000  0.4144680000000  0.5487540000000 1.0
C      1  0.5837350000000  0.4813090000000  0.5489820000000 1.0
C      1  0.5435040000000  0.5737970000000  0.5492080000000 1.0
C      1  0.4796010000000  0.4658070000000  0.3906710000000 1.0
C      1  0.5265440000000  0.4701740000000  0.3907110000000 1.0
C      1  0.5368970000000  0.5161690000000  0.3908420000000 1.0
C      1  0.4963520000000  0.5402280000000  0.3908830000000 1.0
C      1  0.4609420000000  0.5091030000000  0.3907770000000 1.0
C      1  0.4446580000000  0.4692620000000  0.4997190000000 1.0
C      1  0.5121330000000  0.4378690000000  0.4996760000000 1.0
C      1  0.5628400000000  0.4923390000000  0.4998550000000 1.0
C      1  0.5267050000000  0.5573970000000  0.5000090000000 1.0
C      1  0.4536640000000  0.5431350000000  0.4999250000000 1.0
C      1  0.4323490000000  0.4932240000000  0.4309590000000 1.0
C      1  0.4857470000000  0.4336550000000  0.4308300000000 1.0
C      1  0.5589000000000  0.4660310000000  0.4309630000000 1.0
C      1  0.5507150000000  0.5456090000000  0.4311740000000 1.0
C      1  0.4725020000000  0.5624150000000  0.4311710000000 1.0
C      1  0.6079980000000  0.4605800000000  0.4832140000000 1.0
C      1  0.5709140000000  0.5905520000000  0.4835440000000 1.0
C      1  0.4358440000000  0.5954460000000  0.4834740000000 1.0
C      1  0.3894490000000  0.4685010000000  0.4831010000000 1.0
C      1  0.4958460000000  0.3851470000000  0.4829400000000 1.0
C      1  0.5352510000000  0.4248910000000  0.4813720000000 1.0
C      1  0.5823810000000  0.5103400000000  0.4816330000000 1.0
C      1  0.5156790000000  0.5815680000000  0.4817850000000 1.0
C      1  0.4273250000000  0.5401410000000  0.4816180000000 1.0
C      1  0.4394210000000  0.4433100000000  0.4813630000000 1.0
C      1  0.5222880000000  0.4886510000000  0.6131770000000 1.0
C      1  0.5173410000000  0.5175450000000  0.6132520000000 1.0
C      1  0.4883320000000  0.5217680000000  0.6132460000000 1.0
C      1  0.4753510000000  0.4954840000000  0.6131670000000 1.0
C      1  0.4963380000000  0.4750170000000  0.6131240000000 1.0
END
