TITL C-214963-2984-1 57.4273544654271 125000 -948.227250549103 0 0 132 (D3) n - 1
REM
REM in /rds/project/t2_vol4/rds-t2-cs072/BORA/CARBON/from-Arr/AIRSS/Generating-Clusters/GAP-ML-2020/Higher-Symm/SD-CG/HFTN-CG
REM
REM
REM
REM
REM
REM ./C.cell (b20cbc046b6831c77cfcea5457e17084)
REM AIRSS Version 0.9.1 bugfix July 2018 build 013d7b7c2542+ Fri, 06 Jul 2018 19:26:36 +0100
REM compiler GCC version 9.3.0
REM options -cpp -mtune=generic -march=x86-64 -g -O0
REM seed -731339470 1821168393 2108685972 -220933650 951615693 2043736536 -1443934202 -297385254 -272923742 -81238222 -1683239391 739760385 2109519880 1496994942 -544959236 968744870 -2140424182 836839717 -1126114690 -87114849 1190468758 -710733352 -1963468305 -696097564 -1819414382 -1021248496 952335062 -1308704183 -1802816814 -2001641552 1767690701 -1766514362 -946956773
REM
CELL 1.54180   50.00000   50.00000   50.00000   90.00000   90.00000   90.00000
LATT -1
SFAC C  
C      1  0.5941830000000  0.4610880000000  0.5373290000000 1.0
C      1  0.5941850000000  0.5517810000000  0.5150350000000 1.0
C      1  0.5941850000000  0.4871270000000  0.4476400000000 1.0
C      1  0.4058160000000  0.4610910000000  0.4626700000000 1.0
C      1  0.4058160000000  0.5517840000000  0.4849660000000 1.0
C      1  0.4058150000000  0.4871290000000  0.5523600000000 1.0
C      1  0.5014190000000  0.5621760000000  0.5686340000000 1.0
C      1  0.5014210000000  0.5283500000000  0.4118370000000 1.0
C      1  0.5014170000000  0.4094740000000  0.5195290000000 1.0
C      1  0.4985830000000  0.5621770000000  0.4313670000000 1.0
C      1  0.4985800000000  0.5283490000000  0.5881630000000 1.0
C      1  0.4985800000000  0.4094740000000  0.4804700000000 1.0
C      1  0.5357690000000  0.4692100000000  0.4171960000000 1.0
C      1  0.5357670000000  0.4436830000000  0.5680670000000 1.0
C      1  0.5357690000000  0.5871050000000  0.5147390000000 1.0
C      1  0.4642300000000  0.4692100000000  0.5828040000000 1.0
C      1  0.4642320000000  0.4436850000000  0.4319320000000 1.0
C      1  0.4642330000000  0.5871060000000  0.4852630000000 1.0
C      1  0.5729120000000  0.5609340000000  0.4723420000000 1.0
C      1  0.5729100000000  0.4455780000000  0.4610590000000 1.0
C      1  0.5729100000000  0.4934850000000  0.5666020000000 1.0
C      1  0.4270900000000  0.5609350000000  0.5276590000000 1.0
C      1  0.4270880000000  0.4455790000000  0.5389400000000 1.0
C      1  0.4270900000000  0.4934880000000  0.4333980000000 1.0
C      1  0.4564290000000  0.5007310000000  0.4317060000000 1.0
C      1  0.4564260000000  0.4404920000000  0.5335130000000 1.0
C      1  0.4564280000000  0.5587790000000  0.5347780000000 1.0
C      1  0.5435720000000  0.5007290000000  0.5682940000000 1.0
C      1  0.5435720000000  0.4404910000000  0.4664860000000 1.0
C      1  0.5435740000000  0.5587780000000  0.4652220000000 1.0
C      1  0.5217760000000  0.5436560000000  0.5789670000000 1.0
C      1  0.5217780000000  0.5465580000000  0.4227100000000 1.0
C      1  0.5217750000000  0.4097850000000  0.4983250000000 1.0
C      1  0.4782250000000  0.5436580000000  0.4210340000000 1.0
C      1  0.4782230000000  0.5465580000000  0.5772910000000 1.0
C      1  0.4782220000000  0.4097850000000  0.5016740000000 1.0
C      1  0.5746870000000  0.4400350000000  0.5321760000000 1.0
C      1  0.5746890000000  0.5578450000000  0.5358440000000 1.0
C      1  0.5746890000000  0.5021170000000  0.4319830000000 1.0
C      1  0.4253110000000  0.4400370000000  0.4678240000000 1.0
C      1  0.4253130000000  0.5578470000000  0.4641570000000 1.0
C      1  0.4253110000000  0.5021180000000  0.5680170000000 1.0
C      1  0.5808930000000  0.4625270000000  0.4407920000000 1.0
C      1  0.5808920000000  0.4674580000000  0.5620570000000 1.0
C      1  0.5808940000000  0.5700110000000  0.4971540000000 1.0
C      1  0.4191060000000  0.4625290000000  0.5592070000000 1.0
C      1  0.4191070000000  0.4674610000000  0.4379430000000 1.0
C      1  0.4191080000000  0.5700130000000  0.5028470000000 1.0
C      1  0.5220550000000  0.4861550000000  0.5838900000000 1.0
C      1  0.5220570000000  0.5795720000000  0.4700460000000 1.0
C      1  0.5220560000000  0.4342720000000  0.4460660000000 1.0
C      1  0.4779450000000  0.4861560000000  0.4161100000000 1.0
C      1  0.4779450000000  0.5795730000000  0.5299550000000 1.0
C      1  0.4779420000000  0.4342720000000  0.5539340000000 1.0
C      1  0.5454320000000  0.5459820000000  0.4381490000000 1.0
C      1  0.5454290000000  0.4234430000000  0.4911050000000 1.0
C      1  0.5454300000000  0.5305730000000  0.5707480000000 1.0
C      1  0.4545700000000  0.5459820000000  0.5618510000000 1.0
C      1  0.4545690000000  0.4234450000000  0.5088940000000 1.0
C      1  0.4545710000000  0.5305750000000  0.4292520000000 1.0
C      1  0.5012220000000  0.4246750000000  0.5421150000000 1.0
C      1  0.5012240000000  0.5741350000000  0.5441760000000 1.0
C      1  0.5012250000000  0.5011900000000  0.4137090000000 1.0
C      1  0.4987760000000  0.4246760000000  0.4578840000000 1.0
C      1  0.4987780000000  0.5741360000000  0.4558250000000 1.0
C      1  0.4987750000000  0.5011890000000  0.5862910000000 1.0
C      1  0.6050790000000  0.4930380000000  0.4725260000000 1.0
C      1  0.6050790000000  0.4796850000000  0.5197680000000 1.0
C      1  0.6050790000000  0.5272740000000  0.5077110000000 1.0
C      1  0.3949200000000  0.4930400000000  0.5274740000000 1.0
C      1  0.3949210000000  0.4796880000000  0.4802320000000 1.0
C      1  0.3949210000000  0.5272760000000  0.4922900000000 1.0
C      1  0.5129320000000  0.4671990000000  0.5036340000000 1.0
C      1  0.5129320000000  0.5195470000000  0.5265900000000 1.0
C      1  0.5129330000000  0.5132540000000  0.4697770000000 1.0
C      1  0.4870670000000  0.4671990000000  0.4963660000000 1.0
C      1  0.4870680000000  0.5195480000000  0.4734100000000 1.0
C      1  0.4870670000000  0.5132530000000  0.5302230000000 1.0
C      1  0.5692750000000  0.5289610000000  0.4398250000000 1.0
C      1  0.5692730000000  0.4334040000000  0.5050070000000 1.0
C      1  0.5692740000000  0.5376320000000  0.5551710000000 1.0
C      1  0.4307260000000  0.5289620000000  0.5601760000000 1.0
C      1  0.4307250000000  0.4334060000000  0.4949920000000 1.0
C      1  0.4307270000000  0.5376350000000  0.4448300000000 1.0
C      1  0.5142980000000  0.4585670000000  0.5798750000000 1.0
C      1  0.5143000000000  0.5898900000000  0.4959440000000 1.0
C      1  0.5143000000000  0.4515420000000  0.4241810000000 1.0
C      1  0.4857010000000  0.4585690000000  0.4201240000000 1.0
C      1  0.4857020000000  0.5898900000000  0.5040570000000 1.0
C      1  0.4856990000000  0.4515420000000  0.5758180000000 1.0
C      1  0.4465730000000  0.4981700000000  0.4840140000000 1.0
C      1  0.4465730000000  0.4870720000000  0.5095770000000 1.0
C      1  0.4465730000000  0.5147600000000  0.5064070000000 1.0
C      1  0.5534270000000  0.4981680000000  0.5159860000000 1.0
C      1  0.5534270000000  0.4870710000000  0.4904220000000 1.0
C      1  0.5534270000000  0.5147590000000  0.4935940000000 1.0
C      1  0.5324360000000  0.4975410000000  0.5353660000000 1.0
C      1  0.5324370000000  0.5318560000000  0.4844470000000 1.0
C      1  0.5324360000000  0.4706020000000  0.4801880000000 1.0
C      1  0.4675640000000  0.4975420000000  0.4646340000000 1.0
C      1  0.4675640000000  0.5318570000000  0.5155530000000 1.0
C      1  0.4675630000000  0.4706020000000  0.5198110000000 1.0
C      1  0.4386610000000  0.4457180000000  0.4420080000000 1.0
C      1  0.4386600000000  0.4769200000000  0.5760050000000 1.0
C      1  0.4386620000000  0.5773640000000  0.4819850000000 1.0
C      1  0.5613370000000  0.4457150000000  0.5579920000000 1.0
C      1  0.5613400000000  0.4769200000000  0.4239940000000 1.0
C      1  0.5613400000000  0.5773620000000  0.5180170000000 1.0
C      1  0.5215130000000  0.4895570000000  0.4302540000000 1.0
C      1  0.5215100000000  0.4448190000000  0.5439170000000 1.0
C      1  0.5215120000000  0.5656230000000  0.5258290000000 1.0
C      1  0.4784870000000  0.4895560000000  0.5697460000000 1.0
C      1  0.4784880000000  0.4448200000000  0.4560820000000 1.0
C      1  0.4784890000000  0.5656240000000  0.4741710000000 1.0
C      1  0.5149250000000  0.4732410000000  0.5318320000000 1.0
C      1  0.5149270000000  0.5409460000000  0.5072580000000 1.0
C      1  0.5149260000000  0.4858120000000  0.4609110000000 1.0
C      1  0.4850740000000  0.4732420000000  0.4681680000000 1.0
C      1  0.4850750000000  0.5409460000000  0.4927420000000 1.0
C      1  0.4850730000000  0.4858120000000  0.5390890000000 1.0
C      1  0.6033030000000  0.5210920000000  0.4792730000000 1.0
C      1  0.6033020000000  0.4715000000000  0.4920980000000 1.0
C      1  0.6033020000000  0.5074030000000  0.5286330000000 1.0
C      1  0.3966980000000  0.5210950000000  0.5207270000000 1.0
C      1  0.3966970000000  0.4715030000000  0.5079020000000 1.0
C      1  0.3966980000000  0.5074060000000  0.4713670000000 1.0
C      1  0.4135900000000  0.5140150000000  0.4475910000000 1.0
C      1  0.4135880000000  0.4476080000000  0.5140670000000 1.0
C      1  0.4135890000000  0.5383810000000  0.5383390000000 1.0
C      1  0.5864110000000  0.5140120000000  0.5524100000000 1.0
C      1  0.5864110000000  0.4476060000000  0.4859320000000 1.0
C      1  0.5864120000000  0.5383800000000  0.4616620000000 1.0
END
