TITL C-21972-7658-7 297.98175118812 125000 -730.677805149346 0 0 100 (C5v) n - 1
REM
REM in /rds/project/t2_vol4/rds-t2-cs072/BORA/CARBON/from-Arr/AIRSS/Generating-Clusters/GAP-ML-2020/Higher-Symm/SD-CG/HFTN-CG
REM
REM
REM
REM
REM
REM ./C.cell (b20cbc046b6831c77cfcea5457e17084)
REM AIRSS Version 0.9.1 bugfix July 2018 build 013d7b7c2542+ Fri, 06 Jul 2018 19:26:36 +0100
REM compiler GCC version 9.3.0
REM options -cpp -mtune=generic -march=x86-64 -g -O0
REM seed -904160742 -1548014965 661349425 1851428841 -1600014485 551997289 -903816848 -1521371996 180182304 1286237589 960818028 1149853092 -852463620 -15877904 -207848128 165437887 1678641490 1561669527 1422784464 -523173445 -1764302518 -498592961 1783159171 -1648172403 764841246 -329061423 -1544546230 -1208280368 -1947901769 -1325948821 8411945 1363308210 -1655666050
REM
CELL 1.54180   50.00000   50.00000   50.00000   90.00000   90.00000   90.00000
LATT -1
SFAC C  
C      1  0.4220790000000  0.4799810000000  0.5197630000000 1.0
C      1  0.4949070000000  0.4197140000000  0.5197830000000 1.0
C      1  0.5747280000000  0.4703540000000  0.5199980000000 1.0
C      1  0.5512330000000  0.5619180000000  0.5201110000000 1.0
C      1  0.4568900000000  0.5678680000000  0.5199660000000 1.0
C      1  0.5280070000000  0.5713520000000  0.4768280000000 1.0
C      1  0.4408580000000  0.5486750000000  0.4766470000000 1.0
C      1  0.4354940000000  0.4587840000000  0.4764900000000 1.0
C      1  0.5193290000000  0.4259050000000  0.4765730000000 1.0
C      1  0.5765040000000  0.4954760000000  0.4767820000000 1.0
C      1  0.5592660000000  0.4503900000000  0.5338270000000 1.0
C      1  0.5654040000000  0.5410490000000  0.5339870000000 1.0
C      1  0.4810790000000  0.5749020000000  0.5339050000000 1.0
C      1  0.4228260000000  0.5051660000000  0.5336940000000 1.0
C      1  0.4711480000000  0.4282130000000  0.5336460000000 1.0
C      1  0.4715880000000  0.4289160000000  0.4765000000000 1.0
C      1  0.5588890000000  0.4510030000000  0.4766800000000 1.0
C      1  0.5648600000000  0.5408560000000  0.4768380000000 1.0
C      1  0.4812500000000  0.5743010000000  0.4767560000000 1.0
C      1  0.4236050000000  0.5051180000000  0.4765470000000 1.0
C      1  0.5514380000000  0.5621560000000  0.4906390000000 1.0
C      1  0.4568070000000  0.5681240000000  0.4904930000000 1.0
C      1  0.4218890000000  0.4799680000000  0.4902900000000 1.0
C      1  0.4949400000000  0.4195180000000  0.4903100000000 1.0
C      1  0.5750050000000  0.4703130000000  0.4905250000000 1.0
C      1  0.4749900000000  0.4935710000000  0.5096450000000 1.0
C      1  0.4983600000000  0.4742320000000  0.5096510000000 1.0
C      1  0.5239740000000  0.4904820000000  0.5097200000000 1.0
C      1  0.5164350000000  0.5198630000000  0.5097560000000 1.0
C      1  0.4861610000000  0.5217730000000  0.5097100000000 1.0
C      1  0.5638860000000  0.5014860000000  0.5585130000000 1.0
C      1  0.5181700000000  0.5612430000000  0.5585370000000 1.0
C      1  0.4472110000000  0.5362300000000  0.5583790000000 1.0
C      1  0.4490720000000  0.4610150000000  0.5582580000000 1.0
C      1  0.5211810000000  0.4395420000000  0.5583400000000 1.0
C      1  0.5783430000000  0.5201140000000  0.4912700000000 1.0
C      1  0.5051040000000  0.5807210000000  0.4912500000000 1.0
C      1  0.4248310000000  0.5297950000000  0.4910340000000 1.0
C      1  0.4484600000000  0.4377140000000  0.4909200000000 1.0
C      1  0.5433350000000  0.4317310000000  0.4910660000000 1.0
C      1  0.5432340000000  0.4827200000000  0.5671940000000 1.0
C      1  0.5296120000000  0.5358070000000  0.5672600000000 1.0
C      1  0.4749150000000  0.5392560000000  0.5671760000000 1.0
C      1  0.4547320000000  0.4883010000000  0.5670580000000 1.0
C      1  0.4969560000000  0.4533600000000  0.5670700000000 1.0
C      1  0.4482330000000  0.5362610000000  0.4518890000000 1.0
C      1  0.4496470000000  0.4619520000000  0.4517680000000 1.0
C      1  0.5207560000000  0.4403340000000  0.4518490000000 1.0
C      1  0.5632900000000  0.5012820000000  0.4520200000000 1.0
C      1  0.5184680000000  0.5605680000000  0.4520450000000 1.0
C      1  0.5560590000000  0.5294610000000  0.4520550000000 1.0
C      1  0.4894340000000  0.5623990000000  0.4520000000000 1.0
C      1  0.4375200000000  0.5092140000000  0.4518270000000 1.0
C      1  0.4720600000000  0.4434050000000  0.4517750000000 1.0
C      1  0.5453210000000  0.4559190000000  0.4519160000000 1.0
C      1  0.4861810000000  0.5221080000000  0.4231910000000 1.0
C      1  0.4749120000000  0.4936570000000  0.4231260000000 1.0
C      1  0.4984880000000  0.4741480000000  0.4231320000000 1.0
C      1  0.5243270000000  0.4905410000000  0.4232020000000 1.0
C      1  0.5167220000000  0.5201820000000  0.4232380000000 1.0
C      1  0.5788150000000  0.5202000000000  0.5194560000000 1.0
C      1  0.5050910000000  0.5812080000000  0.5194360000000 1.0
C      1  0.4242880000000  0.5299450000000  0.5192190000000 1.0
C      1  0.4480720000000  0.4372550000000  0.5191040000000 1.0
C      1  0.5435750000000  0.4312330000000  0.5192510000000 1.0
C      1  0.4712130000000  0.4426930000000  0.5582640000000 1.0
C      1  0.5454480000000  0.4549370000000  0.5584060000000 1.0
C      1  0.5567430000000  0.5293230000000  0.5585470000000 1.0
C      1  0.4894880000000  0.5630520000000  0.5584930000000 1.0
C      1  0.4366280000000  0.5095110000000  0.5583170000000 1.0
C      1  0.4869770000000  0.5206150000000  0.4793170000000 1.0
C      1  0.4764250000000  0.4939760000000  0.4792560000000 1.0
C      1  0.4985000000000  0.4757090000000  0.4792620000000 1.0
C      1  0.5226950000000  0.4910580000000  0.4793270000000 1.0
C      1  0.5155730000000  0.5188120000000  0.4793610000000 1.0
C      1  0.5154110000000  0.5186510000000  0.5868870000000 1.0
C      1  0.4867880000000  0.5204560000000  0.5868430000000 1.0
C      1  0.4762270000000  0.4937930000000  0.5867820000000 1.0
C      1  0.4983220000000  0.4755090000000  0.5867880000000 1.0
C      1  0.5225390000000  0.4908720000000  0.5868530000000 1.0
C      1  0.4506320000000  0.4874080000000  0.4387510000000 1.0
C      1  0.4968860000000  0.4491310000000  0.4387630000000 1.0
C      1  0.5475820000000  0.4812940000000  0.4389000000000 1.0
C      1  0.5326600000000  0.5394470000000  0.4389720000000 1.0
C      1  0.4727410000000  0.5432260000000  0.4388800000000 1.0
C      1  0.5280770000000  0.5719380000000  0.5339770000000 1.0
C      1  0.4401670000000  0.5489470000000  0.5337950000000 1.0
C      1  0.4348680000000  0.4582350000000  0.5336360000000 1.0
C      1  0.5195020000000  0.4251640000000  0.5337200000000 1.0
C      1  0.5771080000000  0.4954360000000  0.5339310000000 1.0
C      1  0.4983800000000  0.4752940000000  0.5404160000000 1.0
C      1  0.5228870000000  0.4908410000000  0.5404820000000 1.0
C      1  0.5156730000000  0.5189530000000  0.5405170000000 1.0
C      1  0.4867080000000  0.5207800000000  0.5404720000000 1.0
C      1  0.4760200000000  0.4937970000000  0.5404100000000 1.0
C      1  0.4985940000000  0.4750690000000  0.3921150000000 1.0
C      1  0.5235680000000  0.4909130000000  0.3921820000000 1.0
C      1  0.5162170000000  0.5195620000000  0.3922180000000 1.0
C      1  0.4866990000000  0.5214230000000  0.3921720000000 1.0
C      1  0.4758070000000  0.4939250000000  0.3921090000000 1.0
END
