TITL C-215431-3543-4 -209.824953711957 125000 -1158.24304340415 0 0 163 (Cs) n - 1
REM
REM in /rds/project/t2_vol4/rds-t2-cs072/BORA/CARBON/from-Arr/AIRSS/Generating-Clusters/GAP-ML-2020/Higher-Symm/SD-CG/HFTN-CG/C160-200
REM
REM
REM
REM
REM
REM ./C.cell (6b4489405718ea1b717e0baf1da4c2d9)
REM AIRSS Version 0.9.1 bugfix July 2018 build 013d7b7c2542+ Fri, 06 Jul 2018 19:26:36 +0100
REM compiler GCC version 9.3.0
REM options -cpp -mtune=generic -march=x86-64 -g -O0
REM seed -977598190 773978911 -162334416 -648732248 331757966 -791073882 -1833715968 -1886912061 -1106061560 599969890 -610075262 -2074318818 -994501794 -1360438703 1441226990 -1464716683 509960347 -84668582 99707511 1938856126 1226307956 -1195211833 -591775215 1702199631 -1836595086 211343097 338573758 2146925628 -761029759 285266291 1586139016 1124661047 -1075744680
REM
CELL 1.54180   50.00000   50.00000   50.00000   90.00000   90.00000   90.00000
LATT -1
SFAC C  
C      1  0.5736530000000  0.4303190000000  0.4768180000000 1.0
C      1  0.4266630000000  0.4310510000000  0.5224480000000 1.0
C      1  0.5736590000000  0.5688420000000  0.4768050000000 1.0
C      1  0.4266680000000  0.5681300000000  0.5224350000000 1.0
C      1  0.5685200000000  0.4855600000000  0.4235230000000 1.0
C      1  0.4308380000000  0.4855440000000  0.5770950000000 1.0
C      1  0.5685210000000  0.5135910000000  0.4235210000000 1.0
C      1  0.4308390000000  0.5136460000000  0.5770920000000 1.0
C      1  0.5019480000000  0.4507290000000  0.3998550000000 1.0
C      1  0.4980640000000  0.4503520000000  0.5995760000000 1.0
C      1  0.5019520000000  0.5484230000000  0.3998460000000 1.0
C      1  0.4980680000000  0.5488370000000  0.5995660000000 1.0
C      1  0.5141770000000  0.5258580000000  0.5373710000000 1.0
C      1  0.4855100000000  0.5278670000000  0.4632210000000 1.0
C      1  0.5141750000000  0.4733180000000  0.5373760000000 1.0
C      1  0.4855070000000  0.4712970000000  0.4632270000000 1.0
C      1  0.5539970000000  0.5821660000000  0.5182380000000 1.0
C      1  0.4457430000000  0.5821600000000  0.4806150000000 1.0
C      1  0.5539900000000  0.4170030000000  0.5182540000000 1.0
C      1  0.4457370000000  0.4170110000000  0.4806310000000 1.0
C      1  0.4008450000000  0.5139850000000  0.4781110000000 1.0
C      1  0.5993190000000  0.5140540000000  0.5215380000000 1.0
C      1  0.4008440000000  0.4851890000000  0.4781140000000 1.0
C      1  0.5993170000000  0.4851120000000  0.5215410000000 1.0
C      1  0.4531770000000  0.5271330000000  0.4953640000000 1.0
C      1  0.5464020000000  0.5298500000000  0.5053360000000 1.0
C      1  0.4531740000000  0.4720400000000  0.4953690000000 1.0
C      1  0.5464000000000  0.4693180000000  0.5053420000000 1.0
C      1  0.4817990000000  0.5592150000000  0.5295400000000 1.0
C      1  0.5182420000000  0.5624370000000  0.4687320000000 1.0
C      1  0.4817940000000  0.4399620000000  0.5295510000000 1.0
C      1  0.5182370000000  0.4367260000000  0.4687440000000 1.0
C      1  0.5125740000000  0.3922290000000  0.4626880000000 1.0
C      1  0.4871880000000  0.3943660000000  0.5365950000000 1.0
C      1  0.5125820000000  0.6069340000000  0.4626680000000 1.0
C      1  0.4871960000000  0.6048120000000  0.5365750000000 1.0
C      1  0.5062830000000  0.4384080000000  0.5752020000000 1.0
C      1  0.4935930000000  0.4380980000000  0.4237150000000 1.0
C      1  0.5062880000000  0.5607760000000  0.5751900000000 1.0
C      1  0.4935980000000  0.5610590000000  0.4237030000000 1.0
C      1  0.5013740000000  0.4847150000000  0.5651810000000 1.0
C      1  0.4981970000000  0.4844530000000  0.4361740000000 1.0
C      1  0.5013750000000  0.5144680000000  0.5651780000000 1.0
C      1  0.4981980000000  0.5147060000000  0.4361710000000 1.0
C      1  0.5959530000000  0.5284040000000  0.4963700000000 1.0
C      1  0.4039350000000  0.5281630000000  0.5033930000000 1.0
C      1  0.5959510000000  0.4707580000000  0.4963760000000 1.0
C      1  0.4039320000000  0.4710160000000  0.5033980000000 1.0
C      1  0.4214290000000  0.4466080000000  0.4525590000000 1.0
C      1  0.5786370000000  0.4465110000000  0.5467690000000 1.0
C      1  0.4214330000000  0.5525600000000  0.4525490000000 1.0
C      1  0.5786420000000  0.5526620000000  0.5467590000000 1.0
C      1  0.4712010000000  0.4127990000000  0.5231920000000 1.0
C      1  0.5298010000000  0.4100830000000  0.4750050000000 1.0
C      1  0.4712080000000  0.5863790000000  0.5231760000000 1.0
C      1  0.5298080000000  0.5890800000000  0.4749880000000 1.0
C      1  0.5919850000000  0.4717670000000  0.5460020000000 1.0
C      1  0.4082250000000  0.4718890000000  0.4536170000000 1.0
C      1  0.5919870000000  0.5274040000000  0.5459970000000 1.0
C      1  0.4082270000000  0.5272800000000  0.4536120000000 1.0
C      1  0.5894620000000  0.4853800000000  0.4719170000000 1.0
C      1  0.4097790000000  0.4854150000000  0.5282860000000 1.0
C      1  0.5894630000000  0.5137780000000  0.4719140000000 1.0
C      1  0.4097810000000  0.5137680000000  0.5282830000000 1.0
C      1  0.4941730000000  0.4844700000000  0.5188860000000 1.0
C      1  0.5047610000000  0.4757790000000  0.4847880000000 1.0
C      1  0.4941750000000  0.5147050000000  0.5188840000000 1.0
C      1  0.5047630000000  0.5233880000000  0.4847840000000 1.0
C      1  0.4504790000000  0.4323390000000  0.5672140000000 1.0
C      1  0.5498410000000  0.4321560000000  0.4318390000000 1.0
C      1  0.4504840000000  0.5668480000000  0.5672010000000 1.0
C      1  0.5498460000000  0.5669980000000  0.4318270000000 1.0
C      1  0.5308960000000  0.5337510000000  0.4816480000000 1.0
C      1  0.4690340000000  0.5299880000000  0.5185210000000 1.0
C      1  0.5308930000000  0.4654130000000  0.4816540000000 1.0
C      1  0.4690320000000  0.4691880000000  0.5185260000000 1.0
C      1  0.4697550000000  0.5478140000000  0.6030020000000 1.0
C      1  0.5303150000000  0.5474910000000  0.3964460000000 1.0
C      1  0.4697510000000  0.4513780000000  0.6030110000000 1.0
C      1  0.5303110000000  0.4516580000000  0.3964550000000 1.0
C      1  0.4611970000000  0.4849190000000  0.4725390000000 1.0
C      1  0.5394410000000  0.4849210000000  0.5270890000000 1.0
C      1  0.4611980000000  0.5142500000000  0.4725360000000 1.0
C      1  0.5394420000000  0.5142510000000  0.5270860000000 1.0
C      1  0.4880130000000  0.3947680000000  0.4578470000000 1.0
C      1  0.5118440000000  0.3959860000000  0.5411780000000 1.0
C      1  0.4880220000000  0.6043960000000  0.4578280000000 1.0
C      1  0.5118530000000  0.6031910000000  0.5411590000000 1.0
C      1  0.4567410000000  0.5153580000000  0.5426080000000 1.0
C      1  0.5419890000000  0.5157390000000  0.4586160000000 1.0
C      1  0.4567400000000  0.4838240000000  0.5426110000000 1.0
C      1  0.5419880000000  0.4834200000000  0.4586190000000 1.0
C      1  0.5821790000000  0.5134270000000  0.5688560000000 1.0
C      1  0.4180250000000  0.5133940000000  0.4307420000000 1.0
C      1  0.5821770000000  0.4857490000000  0.5688590000000 1.0
C      1  0.4180240000000  0.4857700000000  0.4307440000000 1.0
C      1  0.4669430000000  0.5675020000000  0.4346690000000 1.0
C      1  0.5329400000000  0.5670230000000  0.5640190000000 1.0
C      1  0.4669370000000  0.4316590000000  0.4346810000000 1.0
C      1  0.5329340000000  0.4321570000000  0.5640320000000 1.0
C      1  0.5720460000000  0.4726760000000  0.4509840000000 1.0
C      1  0.4273180000000  0.4728030000000  0.5493540000000 1.0
C      1  0.5720480000000  0.5264790000000  0.4509790000000 1.0
C      1  0.4273200000000  0.5263830000000  0.5493490000000 1.0
C      1  0.4472080000000  0.4147850000000  0.5088830000000 1.0
C      1  0.5534440000000  0.4132780000000  0.4900920000000 1.0
C      1  0.4472150000000  0.5843910000000  0.5088670000000 1.0
C      1  0.5534510000000  0.5858870000000  0.4900750000000 1.0
C      1  0.5291150000000  0.5793400000000  0.5368850000000 1.0
C      1  0.4699420000000  0.5811630000000  0.4612820000000 1.0
C      1  0.5291090000000  0.4198350000000  0.5369000000000 1.0
C      1  0.4699360000000  0.4180030000000  0.4612970000000 1.0
C      1  0.4395320000000  0.5278710000000  0.4184210000000 1.0
C      1  0.5605840000000  0.5278770000000  0.5810780000000 1.0
C      1  0.4395300000000  0.4712890000000  0.4184260000000 1.0
C      1  0.5605820000000  0.4713040000000  0.5810830000000 1.0
C      1  0.5690780000000  0.4424890000000  0.4514300000000 1.0
C      1  0.4308940000000  0.4428290000000  0.5480310000000 1.0
C      1  0.5690830000000  0.5566660000000  0.4514190000000 1.0
C      1  0.4308990000000  0.5563560000000  0.5480200000000 1.0
C      1  0.4613690000000  0.5139550000000  0.4070760000000 1.0
C      1  0.5386860000000  0.5139880000000  0.5925240000000 1.0
C      1  0.4613670000000  0.4852020000000  0.4070790000000 1.0
C      1  0.5386850000000  0.4851960000000  0.5925270000000 1.0
C      1  0.4798960000000  0.4435700000000  0.5585500000000 1.0
C      1  0.5200200000000  0.4427780000000  0.4405800000000 1.0
C      1  0.4799000000000  0.5556130000000  0.5585390000000 1.0
C      1  0.5200250000000  0.5563800000000  0.4405700000000 1.0
C      1  0.4583400000000  0.5231060000000  0.5898110000000 1.0
C      1  0.5412990000000  0.5230060000000  0.4103440000000 1.0
C      1  0.4583380000000  0.4760850000000  0.5898150000000 1.0
C      1  0.5412970000000  0.4761440000000  0.4103490000000 1.0
C      1  0.4225890000000  0.4325700000000  0.4763060000000 1.0
C      1  0.5771300000000  0.4325500000000  0.5229660000000 1.0
C      1  0.4225950000000  0.5666020000000  0.4762930000000 1.0
C      1  0.5771360000000  0.5666190000000  0.5229540000000 1.0
C      1  0.4124430000000  0.5553420000000  0.5014060000000 1.0
C      1  0.5875840000000  0.5556760000000  0.4979380000000 1.0
C      1  0.4124390000000  0.4438360000000  0.5014160000000 1.0
C      1  0.5875800000000  0.4434870000000  0.4979480000000 1.0
C      1  0.4892820000000  0.5584270000000  0.4696700000000 1.0
C      1  0.5101810000000  0.5553020000000  0.5282910000000 1.0
C      1  0.4892770000000  0.4407390000000  0.4696810000000 1.0
C      1  0.5101770000000  0.4438730000000  0.5283020000000 1.0
C      1  0.4871060000000  0.5260900000000  0.4102420000000 1.0
C      1  0.5129150000000  0.5262970000000  0.5900090000000 1.0
C      1  0.4871040000000  0.4730650000000  0.4102470000000 1.0
C      1  0.5129130000000  0.4728890000000  0.5900140000000 1.0
C      1  0.5574740000000  0.4463750000000  0.5670260000000 1.0
C      1  0.4426430000000  0.4463510000000  0.4322960000000 1.0
C      1  0.5574790000000  0.5528030000000  0.5670160000000 1.0
C      1  0.4426470000000  0.5528110000000  0.4322860000000 1.0
C      1  0.5252170000000  0.5263300000000  0.4365340000000 1.0
C      1  0.4743620000000  0.5260800000000  0.5638290000000 1.0
C      1  0.5252150000000  0.4728260000000  0.4365400000000 1.0
C      1  0.4743600000000  0.4731040000000  0.5638340000000 1.0
C      1  0.4525660000000  0.4311480000000  0.5943790000000 1.0
C      1  0.5475840000000  0.4313210000000  0.4047380000000 1.0
C      1  0.4525720000000  0.5680440000000  0.5943660000000 1.0
C      1  0.5475900000000  0.5678270000000  0.4047250000000 1.0
C      1  0.4647760000000  0.4995960000000  0.6021210000000 1.0
C      1  0.5345020000000  0.4995740000000  0.3981610000000 1.0
C      1  0.5061190000000  0.4995850000000  0.4969500000000 1.0
END
