TITL C-21990-5561-1 34.1287771917706 125000 -530.53347394834 0 0 77 (C1) n - 1
REM
REM in /rds/project/t2_vol4/rds-t2-cs072/BORA/CARBON/from-Arr/AIRSS/Generating-Clusters/GAP-ML-2020/Higher-Symm/SD-CG/HFTN-CG
REM
REM
REM
REM
REM
REM ./C.cell (b20cbc046b6831c77cfcea5457e17084)
REM AIRSS Version 0.9.1 bugfix July 2018 build 013d7b7c2542+ Fri, 06 Jul 2018 19:26:36 +0100
REM compiler GCC version 9.3.0
REM options -cpp -mtune=generic -march=x86-64 -g -O0
REM seed -1793764923 2093716953 -436296389 1223142843 -1101770741 -894248937 -872591877 940644066 784947436 -1426362276 -2092455159 118002788 1727503352 -433825513 646938920 -1777291758 474251412 1830550308 1699170615 -719408054 804905076 1861061450 672578473 134634033 -1361427835 -696438386 49877456 347425714 -1775766530 156721870 -390787913 -703995569 -2008855966
REM
CELL 1.54180   50.00000   50.00000   50.00000   90.00000   90.00000   90.00000
LATT -1
SFAC C  
C      1  0.5465380000000  0.4598330000000  0.5256580000000 1.0
C      1  0.5609910000000  0.5124400000000  0.5258670000000 1.0
C      1  0.5297760000000  0.5591260000000  0.5194730000000 1.0
C      1  0.4749590000000  0.5619890000000  0.5250720000000 1.0
C      1  0.4374400000000  0.5210480000000  0.5223370000000 1.0
C      1  0.4496110000000  0.4669550000000  0.5277270000000 1.0
C      1  0.4971860000000  0.4391590000000  0.5265740000000 1.0
C      1  0.5618400000000  0.5112970000000  0.4596290000000 1.0
C      1  0.5305100000000  0.5558750000000  0.4551970000000 1.0
C      1  0.4748800000000  0.5590830000000  0.4564640000000 1.0
C      1  0.4382220000000  0.5166110000000  0.4583500000000 1.0
C      1  0.4460250000000  0.4618440000000  0.4604880000000 1.0
C      1  0.4938900000000  0.4334140000000  0.4602280000000 1.0
C      1  0.5457610000000  0.4538000000000  0.4606550000000 1.0
C      1  0.4954980000000  0.5509580000000  0.5717990000000 1.0
C      1  0.4701880000000  0.5407990000000  0.5729760000000 1.0
C      1  0.4571420000000  0.4889550000000  0.5729600000000 1.0
C      1  0.4743430000000  0.4445910000000  0.5623720000000 1.0
C      1  0.5261610000000  0.4432790000000  0.5654070000000 1.0
C      1  0.5616700000000  0.4810130000000  0.5610080000000 1.0
C      1  0.5409450000000  0.5237790000000  0.5704050000000 1.0
C      1  0.4842460000000  0.5243190000000  0.4966370000000 1.0
C      1  0.4719570000000  0.4989440000000  0.4947000000000 1.0
C      1  0.4848200000000  0.4824610000000  0.4771800000000 1.0
C      1  0.5056190000000  0.4720250000000  0.4914060000000 1.0
C      1  0.5283020000000  0.4865050000000  0.4831980000000 1.0
C      1  0.5267800000000  0.5117970000000  0.4939970000000 1.0
C      1  0.5074940000000  0.5272020000000  0.4834110000000 1.0
C      1  0.4749950000000  0.5194950000000  0.4303240000000 1.0
C      1  0.4666130000000  0.4919330000000  0.4309550000000 1.0
C      1  0.4821230000000  0.4677490000000  0.4308040000000 1.0
C      1  0.5108120000000  0.4664820000000  0.4318060000000 1.0
C      1  0.5290020000000  0.4886130000000  0.4333700000000 1.0
C      1  0.5256340000000  0.5168490000000  0.4302650000000 1.0
C      1  0.5009940000000  0.5313980000000  0.4291330000000 1.0
C      1  0.4942600000000  0.4225110000000  0.4867380000000 1.0
C      1  0.5569760000000  0.4469860000000  0.4863690000000 1.0
C      1  0.5752630000000  0.5144670000000  0.4852220000000 1.0
C      1  0.5372270000000  0.5680340000000  0.4797410000000 1.0
C      1  0.4698780000000  0.5716740000000  0.4821290000000 1.0
C      1  0.4247330000000  0.5219760000000  0.4828420000000 1.0
C      1  0.4369430000000  0.4568020000000  0.4876290000000 1.0
C      1  0.5192530000000  0.4459460000000  0.4496240000000 1.0
C      1  0.5468000000000  0.4841670000000  0.4556850000000 1.0
C      1  0.5444150000000  0.5309930000000  0.4464450000000 1.0
C      1  0.5021130000000  0.5551190000000  0.4449320000000 1.0
C      1  0.4586090000000  0.5354280000000  0.4474210000000 1.0
C      1  0.4446300000000  0.4893000000000  0.4484590000000 1.0
C      1  0.4707700000000  0.4488540000000  0.4490830000000 1.0
C      1  0.4618260000000  0.5143730000000  0.5655250000000 1.0
C      1  0.4566210000000  0.4648390000000  0.5582720000000 1.0
C      1  0.5006900000000  0.4372270000000  0.5562940000000 1.0
C      1  0.5485090000000  0.4569190000000  0.5553650000000 1.0
C      1  0.5596990000000  0.5077590000000  0.5567550000000 1.0
C      1  0.5189370000000  0.5374960000000  0.5627510000000 1.0
C      1  0.4757340000000  0.5625260000000  0.5544730000000 1.0
C      1  0.5677690000000  0.4673940000000  0.5054770000000 1.0
C      1  0.5693840000000  0.5347190000000  0.5052210000000 1.0
C      1  0.5165680000000  0.5757260000000  0.4993620000000 1.0
C      1  0.4519570000000  0.5623420000000  0.5031640000000 1.0
C      1  0.4231820000000  0.5024160000000  0.5047780000000 1.0
C      1  0.4527350000000  0.4436390000000  0.5082980000000 1.0
C      1  0.5158380000000  0.4256160000000  0.5059050000000 1.0
C      1  0.4855920000000  0.5336620000000  0.5252040000000 1.0
C      1  0.4641310000000  0.5142090000000  0.5359010000000 1.0
C      1  0.4717490000000  0.4868980000000  0.5230540000000 1.0
C      1  0.4988870000000  0.4711130000000  0.5220680000000 1.0
C      1  0.5239090000000  0.4822070000000  0.5316110000000 1.0
C      1  0.5309500000000  0.5100760000000  0.5232680000000 1.0
C      1  0.5158880000000  0.5349940000000  0.5331810000000 1.0
C      1  0.4754740000000  0.4291990000000  0.5081100000000 1.0
C      1  0.5405430000000  0.4359530000000  0.5068870000000 1.0
C      1  0.5742830000000  0.4937420000000  0.5055900000000 1.0
C      1  0.5527520000000  0.5559660000000  0.5013110000000 1.0
C      1  0.4898170000000  0.5776090000000  0.5022210000000 1.0
C      1  0.4344140000000  0.5418170000000  0.5023420000000 1.0
C      1  0.4273210000000  0.4756840000000  0.5074560000000 1.0
END
