TITL C-215431-3543-2 0.123831467200733 125000 -1179.77196964474 0 0 173 (C1) n - 1
REM
REM in /rds/project/t2_vol4/rds-t2-cs072/BORA/CARBON/from-Arr/AIRSS/Generating-Clusters/GAP-ML-2020/Higher-Symm/SD-CG/HFTN-CG/C160-200
REM
REM
REM
REM
REM
REM ./C.cell (6b4489405718ea1b717e0baf1da4c2d9)
REM AIRSS Version 0.9.1 bugfix July 2018 build 013d7b7c2542+ Fri, 06 Jul 2018 19:26:36 +0100
REM compiler GCC version 9.3.0
REM options -cpp -mtune=generic -march=x86-64 -g -O0
REM seed 1568223205 -1219227084 902973433 -749386544 2076345608 1694923949 -887517263 748397141 -1290495796 1564120298 613953499 1722113263 13536408 1115606155 2006695627 -785664849 -1198207460 -1515957081 989760884 -1781392081 -434999478 311270567 1707361686 -93035755 1703886168 -763676804 1543123492 1682504459 -344723064 1002066218 -1430888109 1621649264 -1055239170
REM
CELL 1.54180   50.00000   50.00000   50.00000   90.00000   90.00000   90.00000
LATT -1
SFAC C  
C      1  0.5581390000000  0.4120460000000  0.5502380000000 1.0
C      1  0.5742900000000  0.4131340000000  0.5267260000000 1.0
C      1  0.5752560000000  0.4084570000000  0.4488270000000 1.0
C      1  0.4906800000000  0.4061360000000  0.4161020000000 1.0
C      1  0.4399620000000  0.4153310000000  0.4489400000000 1.0
C      1  0.4186840000000  0.4096470000000  0.5219970000000 1.0
C      1  0.4592110000000  0.4100550000000  0.5832260000000 1.0
C      1  0.4678510000000  0.4400370000000  0.5501940000000 1.0
C      1  0.5206460000000  0.4417440000000  0.5612890000000 1.0
C      1  0.5589440000000  0.4431190000000  0.4985270000000 1.0
C      1  0.5448970000000  0.4416530000000  0.4506420000000 1.0
C      1  0.4881040000000  0.4456400000000  0.4533340000000 1.0
C      1  0.4645740000000  0.4471210000000  0.4732700000000 1.0
C      1  0.4502550000000  0.4404160000000  0.5255180000000 1.0
C      1  0.5389210000000  0.4204180000000  0.4952800000000 1.0
C      1  0.5313960000000  0.4170010000000  0.4660620000000 1.0
C      1  0.5002490000000  0.4180490000000  0.4629000000000 1.0
C      1  0.4743560000000  0.4185680000000  0.4836750000000 1.0
C      1  0.4646730000000  0.4144140000000  0.5129600000000 1.0
C      1  0.4821850000000  0.4137220000000  0.5405420000000 1.0
C      1  0.5121250000000  0.4183510000000  0.5389810000000 1.0
C      1  0.5606760000000  0.5114760000000  0.4825690000000 1.0
C      1  0.5292050000000  0.5095330000000  0.4434810000000 1.0
C      1  0.4728670000000  0.5110170000000  0.4428130000000 1.0
C      1  0.4368250000000  0.5083610000000  0.4829090000000 1.0
C      1  0.4453620000000  0.5119820000000  0.5381620000000 1.0
C      1  0.4946270000000  0.5105860000000  0.5587350000000 1.0
C      1  0.5434910000000  0.5124260000000  0.5379600000000 1.0
C      1  0.4131120000000  0.4533110000000  0.5520350000000 1.0
C      1  0.4798010000000  0.4532160000000  0.5942720000000 1.0
C      1  0.5692250000000  0.4553180000000  0.5632620000000 1.0
C      1  0.5981560000000  0.4540820000000  0.4940340000000 1.0
C      1  0.5429580000000  0.4474950000000  0.4210690000000 1.0
C      1  0.4747720000000  0.4478670000000  0.4243240000000 1.0
C      1  0.4124590000000  0.4555600000000  0.4708190000000 1.0
C      1  0.5313550000000  0.5435100000000  0.4119880000000 1.0
C      1  0.4568950000000  0.5524680000000  0.4289010000000 1.0
C      1  0.4091470000000  0.5468850000000  0.4870360000000 1.0
C      1  0.4322950000000  0.5472910000000  0.5728980000000 1.0
C      1  0.5054680000000  0.5456820000000  0.5874270000000 1.0
C      1  0.5818830000000  0.5467250000000  0.5426230000000 1.0
C      1  0.5905690000000  0.5441600000000  0.4665860000000 1.0
C      1  0.5317040000000  0.5770290000000  0.5214240000000 1.0
C      1  0.5422430000000  0.5812680000000  0.4934920000000 1.0
C      1  0.5278050000000  0.5940150000000  0.4691750000000 1.0
C      1  0.5001690000000  0.6012120000000  0.4656050000000 1.0
C      1  0.4612860000000  0.6023940000000  0.5013870000000 1.0
C      1  0.4587950000000  0.5982580000000  0.5301070000000 1.0
C      1  0.4795740000000  0.5860050000000  0.5460710000000 1.0
C      1  0.5940660000000  0.4542380000000  0.4650840000000 1.0
C      1  0.5205710000000  0.4482790000000  0.4039190000000 1.0
C      1  0.4462710000000  0.4563480000000  0.4294580000000 1.0
C      1  0.4065880000000  0.4538060000000  0.4993000000000 1.0
C      1  0.4309330000000  0.4564300000000  0.5753500000000 1.0
C      1  0.5073270000000  0.4529060000000  0.5864330000000 1.0
C      1  0.5854410000000  0.4595440000000  0.5404370000000 1.0
C      1  0.4365860000000  0.5756060000000  0.5686420000000 1.0
C      1  0.5085390000000  0.5754680000000  0.5819890000000 1.0
C      1  0.5743700000000  0.5745550000000  0.5397290000000 1.0
C      1  0.5851210000000  0.5737700000000  0.4668450000000 1.0
C      1  0.5287200000000  0.5732290000000  0.4175250000000 1.0
C      1  0.4613120000000  0.5792180000000  0.4381160000000 1.0
C      1  0.4156880000000  0.5728660000000  0.4983940000000 1.0
C      1  0.5778090000000  0.5286330000000  0.5658080000000 1.0
C      1  0.6126880000000  0.5259560000000  0.4729960000000 1.0
C      1  0.5479610000000  0.5231450000000  0.3980270000000 1.0
C      1  0.4643410000000  0.5164450000000  0.3949250000000 1.0
C      1  0.3899370000000  0.5258960000000  0.4909960000000 1.0
C      1  0.4105420000000  0.5288320000000  0.5646890000000 1.0
C      1  0.4981690000000  0.5268560000000  0.6098240000000 1.0
C      1  0.5220510000000  0.5243510000000  0.5198260000000 1.0
C      1  0.5320080000000  0.5242880000000  0.4895700000000 1.0
C      1  0.5139850000000  0.5148760000000  0.4686820000000 1.0
C      1  0.4845630000000  0.5199020000000  0.4691250000000 1.0
C      1  0.4654540000000  0.5040280000000  0.4901020000000 1.0
C      1  0.4691540000000  0.5177620000000  0.5186430000000 1.0
C      1  0.4963270000000  0.5105280000000  0.5294600000000 1.0
C      1  0.4784830000000  0.4744380000000  0.4145050000000 1.0
C      1  0.4022320000000  0.4822120000000  0.4622170000000 1.0
C      1  0.4113860000000  0.4814660000000  0.5483520000000 1.0
C      1  0.4795130000000  0.4819620000000  0.5955710000000 1.0
C      1  0.5606660000000  0.4817220000000  0.5695850000000 1.0
C      1  0.5972270000000  0.4825770000000  0.4960420000000 1.0
C      1  0.5520170000000  0.4754140000000  0.4186980000000 1.0
C      1  0.5700700000000  0.5046810000000  0.5246970000000 1.0
C      1  0.5720750000000  0.5005750000000  0.4549370000000 1.0
C      1  0.5114230000000  0.5004120000000  0.4210880000000 1.0
C      1  0.4412300000000  0.5060790000000  0.4378540000000 1.0
C      1  0.4204720000000  0.4985230000000  0.5062010000000 1.0
C      1  0.4513480000000  0.5036660000000  0.5667500000000 1.0
C      1  0.5194220000000  0.5017810000000  0.5740090000000 1.0
C      1  0.4552760000000  0.5544990000000  0.4866600000000 1.0
C      1  0.4702180000000  0.5472040000000  0.5154390000000 1.0
C      1  0.4867210000000  0.5575320000000  0.5412910000000 1.0
C      1  0.5128180000000  0.5541420000000  0.5236230000000 1.0
C      1  0.5458570000000  0.5518730000000  0.4835870000000 1.0
C      1  0.5395040000000  0.5549770000000  0.4558600000000 1.0
C      1  0.4828300000000  0.5482940000000  0.4758940000000 1.0
C      1  0.4615440000000  0.4034280000000  0.4591210000000 1.0
C      1  0.4397850000000  0.3972180000000  0.5153040000000 1.0
C      1  0.4718360000000  0.3977100000000  0.5649820000000 1.0
C      1  0.5351280000000  0.3993140000000  0.5375370000000 1.0
C      1  0.5507570000000  0.4002160000000  0.5137210000000 1.0
C      1  0.5532710000000  0.3967520000000  0.4544650000000 1.0
C      1  0.4850570000000  0.4013100000000  0.4431290000000 1.0
C      1  0.4413840000000  0.4829660000000  0.4193420000000 1.0
C      1  0.3981980000000  0.4808910000000  0.4994340000000 1.0
C      1  0.4296940000000  0.4860950000000  0.5775470000000 1.0
C      1  0.5125970000000  0.4815840000000  0.5947050000000 1.0
C      1  0.5875850000000  0.4882190000000  0.5420810000000 1.0
C      1  0.5954220000000  0.4824600000000  0.4585970000000 1.0
C      1  0.5258490000000  0.4792340000000  0.4034030000000 1.0
C      1  0.6095030000000  0.4997810000000  0.4765110000000 1.0
C      1  0.5498330000000  0.4969980000000  0.3982540000000 1.0
C      1  0.4601060000000  0.4905860000000  0.3999360000000 1.0
C      1  0.3866780000000  0.4982350000000  0.4804060000000 1.0
C      1  0.4076350000000  0.5013500000000  0.5689920000000 1.0
C      1  0.4958520000000  0.5007050000000  0.6102640000000 1.0
C      1  0.5816910000000  0.5007650000000  0.5667080000000 1.0
C      1  0.4811180000000  0.4676570000000  0.5447790000000 1.0
C      1  0.5137850000000  0.4670830000000  0.5409540000000 1.0
C      1  0.5450980000000  0.4678020000000  0.4942330000000 1.0
C      1  0.5358760000000  0.4669700000000  0.4636310000000 1.0
C      1  0.5042310000000  0.4699890000000  0.4610930000000 1.0
C      1  0.4697610000000  0.4731150000000  0.4936000000000 1.0
C      1  0.4593560000000  0.4688110000000  0.5215100000000 1.0
C      1  0.5043850000000  0.5836970000000  0.4188010000000 1.0
C      1  0.4443860000000  0.5865340000000  0.4577150000000 1.0
C      1  0.4141630000000  0.5814650000000  0.5237020000000 1.0
C      1  0.4566480000000  0.5883470000000  0.5843090000000 1.0
C      1  0.5305170000000  0.5848320000000  0.5692620000000 1.0
C      1  0.5845080000000  0.5861060000000  0.5167530000000 1.0
C      1  0.5712820000000  0.5833140000000  0.4458540000000 1.0
C      1  0.5497590000000  0.4353100000000  0.5639390000000 1.0
C      1  0.5825950000000  0.4413380000000  0.5167270000000 1.0
C      1  0.5754460000000  0.4367520000000  0.4525660000000 1.0
C      1  0.4968260000000  0.4312550000000  0.4069690000000 1.0
C      1  0.4369820000000  0.4442220000000  0.4557220000000 1.0
C      1  0.4179150000000  0.4393320000000  0.5246200000000 1.0
C      1  0.4567590000000  0.4402960000000  0.5799680000000 1.0
C      1  0.4380190000000  0.5363760000000  0.4422310000000 1.0
C      1  0.4055130000000  0.5225630000000  0.5147320000000 1.0
C      1  0.4558750000000  0.5313750000000  0.5749720000000 1.0
C      1  0.5295050000000  0.5283340000000  0.5808650000000 1.0
C      1  0.5813490000000  0.5314830000000  0.5186460000000 1.0
C      1  0.5739120000000  0.5277050000000  0.4446840000000 1.0
C      1  0.5052160000000  0.5274190000000  0.4107070000000 1.0
C      1  0.4764480000000  0.5317470000000  0.4163890000000 1.0
C      1  0.4343450000000  0.5380110000000  0.4736140000000 1.0
C      1  0.4200430000000  0.5300400000000  0.5384740000000 1.0
C      1  0.4839020000000  0.5383790000000  0.5662360000000 1.0
C      1  0.5503870000000  0.5310440000000  0.5623650000000 1.0
C      1  0.5731470000000  0.5379960000000  0.4904930000000 1.0
C      1  0.5455730000000  0.5342900000000  0.4378220000000 1.0
C      1  0.4881490000000  0.5912940000000  0.4390880000000 1.0
C      1  0.4425880000000  0.5820490000000  0.4856760000000 1.0
C      1  0.4338220000000  0.5886610000000  0.5414160000000 1.0
C      1  0.4819880000000  0.5887210000000  0.5747130000000 1.0
C      1  0.5455360000000  0.5833470000000  0.5462020000000 1.0
C      1  0.5732810000000  0.5856250000000  0.4925410000000 1.0
C      1  0.5424010000000  0.5817720000000  0.4446630000000 1.0
C      1  0.4257190000000  0.4970550000000  0.4590230000000 1.0
C      1  0.4347070000000  0.4873190000000  0.5280320000000 1.0
C      1  0.4758920000000  0.4894170000000  0.5661000000000 1.0
C      1  0.5347970000000  0.4888610000000  0.5538050000000 1.0
C      1  0.5667860000000  0.4898130000000  0.5001830000000 1.0
C      1  0.5484630000000  0.4871440000000  0.4456950000000 1.0
C      1  0.4906240000000  0.4881930000000  0.4367750000000 1.0
C      1  0.4820840000000  0.6085850000000  0.4850510000000 1.0
C      1  0.4982840000000  0.4717930000000  0.4906600000000 1.0
C      1  0.4947260000000  0.5547900000000  0.5005710000000 1.0
C      1  0.5180430000000  0.4321960000000  0.5124590000000 1.0
C      1  0.5183380000000  0.4616370000000  0.5107430000000 1.0
END
