TITL C-215407-2524-3 505.762057688693 125000 -1139.29168055151 0 0 163 (C1) n - 1
REM
REM in /rds/project/t2_vol4/rds-t2-cs072/BORA/CARBON/from-Arr/AIRSS/Generating-Clusters/GAP-ML-2020/Higher-Symm/SD-CG/HFTN-CG/C160-200
REM
REM
REM
REM
REM
REM ./C.cell (6b4489405718ea1b717e0baf1da4c2d9)
REM AIRSS Version 0.9.1 bugfix July 2018 build 013d7b7c2542+ Fri, 06 Jul 2018 19:26:36 +0100
REM compiler GCC version 9.3.0
REM options -cpp -mtune=generic -march=x86-64 -g -O0
REM seed -182341630 599659625 482334699 47415136 -1247940572 1445856820 -1236551370 -558073478 1490530154 1591016756 -812024735 -659295437 -1671933789 -48265305 1657037688 173482164 1938928896 -1577462515 1556306270 13631031 70239961 -181352210 -1574867195 -1029816315 -584372084 -2105515535 1047033119 -496121134 2143760081 1873436488 -360949919 -486464671 1676537347
REM
CELL 1.54180   50.00000   50.00000   50.00000   90.00000   90.00000   90.00000
LATT -1
SFAC C  
C      1  0.5880380000000  0.4613150000000  0.4683340000000 1.0
C      1  0.4891170000000  0.5869570000000  0.4608230000000 1.0
C      1  0.4253230000000  0.4470260000000  0.4754050000000 1.0
C      1  0.5846280000000  0.5347860000000  0.4661640000000 1.0
C      1  0.4886890000000  0.4081060000000  0.4743490000000 1.0
C      1  0.4234250000000  0.5591910000000  0.4801900000000 1.0
C      1  0.5454610000000  0.4411240000000  0.4154340000000 1.0
C      1  0.5251020000000  0.5639580000000  0.4076160000000 1.0
C      1  0.4251910000000  0.4868830000000  0.4206250000000 1.0
C      1  0.5521540000000  0.5535270000000  0.4080280000000 1.0
C      1  0.5204800000000  0.4278360000000  0.4176240000000 1.0
C      1  0.4248940000000  0.5153070000000  0.4192130000000 1.0
C      1  0.5285390000000  0.4867300000000  0.4760720000000 1.0
C      1  0.5031670000000  0.5339310000000  0.4746250000000 1.0
C      1  0.4755650000000  0.4864280000000  0.4772900000000 1.0
C      1  0.5311220000000  0.5189460000000  0.4755250000000 1.0
C      1  0.5018460000000  0.4710410000000  0.4772280000000 1.0
C      1  0.4763140000000  0.5167880000000  0.4751320000000 1.0
C      1  0.5250700000000  0.5670180000000  0.4378830000000 1.0
C      1  0.4281390000000  0.4870310000000  0.4509900000000 1.0
C      1  0.5484560000000  0.4449440000000  0.4461950000000 1.0
C      1  0.5212990000000  0.4301990000000  0.4482650000000 1.0
C      1  0.4286470000000  0.5181700000000  0.4504020000000 1.0
C      1  0.5532840000000  0.5552500000000  0.4391030000000 1.0
C      1  0.5433270000000  0.4757770000000  0.4499770000000 1.0
C      1  0.5029470000000  0.5461870000000  0.4448450000000 1.0
C      1  0.4573340000000  0.4765160000000  0.4527450000000 1.0
C      1  0.5493210000000  0.5256130000000  0.4477850000000 1.0
C      1  0.4993940000000  0.4510690000000  0.4520770000000 1.0
C      1  0.4587570000000  0.5249750000000  0.4493030000000 1.0
C      1  0.4704940000000  0.5137600000000  0.4235760000000 1.0
C      1  0.4967120000000  0.4660560000000  0.4259790000000 1.0
C      1  0.5431110000000  0.5173670000000  0.4212280000000 1.0
C      1  0.4705770000000  0.4827410000000  0.4260790000000 1.0
C      1  0.4975870000000  0.5265970000000  0.4209600000000 1.0
C      1  0.5238290000000  0.4808130000000  0.4234510000000 1.0
C      1  0.5765870000000  0.4803900000000  0.5383680000000 1.0
C      1  0.4740980000000  0.5717300000000  0.5431100000000 1.0
C      1  0.4420500000000  0.4464570000000  0.5379830000000 1.0
C      1  0.5729950000000  0.5256820000000  0.5440590000000 1.0
C      1  0.4827410000000  0.4219430000000  0.5374410000000 1.0
C      1  0.4453060000000  0.5573970000000  0.5428570000000 1.0
C      1  0.5229790000000  0.5750520000000  0.5056090000000 1.0
C      1  0.4383180000000  0.4901940000000  0.5103790000000 1.0
C      1  0.5491970000000  0.4484740000000  0.5035420000000 1.0
C      1  0.5233380000000  0.4387530000000  0.5103320000000 1.0
C      1  0.4431030000000  0.5182010000000  0.5144840000000 1.0
C      1  0.5508060000000  0.5603410000000  0.5066780000000 1.0
C      1  0.5362350000000  0.4072610000000  0.4896330000000 1.0
C      1  0.5587820000000  0.5744550000000  0.4812670000000 1.0
C      1  0.4027070000000  0.5178980000000  0.4943790000000 1.0
C      1  0.5334970000000  0.5876950000000  0.4801590000000 1.0
C      1  0.5594340000000  0.4252290000000  0.4876700000000 1.0
C      1  0.4042880000000  0.4892290000000  0.4939860000000 1.0
C      1  0.5443020000000  0.4670870000000  0.4026880000000 1.0
C      1  0.5021740000000  0.5485970000000  0.3983370000000 1.0
C      1  0.4473930000000  0.4723240000000  0.4085190000000 1.0
C      1  0.5581220000000  0.5273680000000  0.3987960000000 1.0
C      1  0.4972500000000  0.4418610000000  0.4071900000000 1.0
C      1  0.4481140000000  0.5257180000000  0.4052700000000 1.0
C      1  0.4388610000000  0.5358600000000  0.5891270000000 1.0
C      1  0.4985000000000  0.4401710000000  0.5763880000000 1.0
C      1  0.5573710000000  0.5307040000000  0.5891630000000 1.0
C      1  0.4508710000000  0.4693250000000  0.5764860000000 1.0
C      1  0.4934600000000  0.5659290000000  0.5913280000000 1.0
C      1  0.5493190000000  0.4727520000000  0.5756910000000 1.0
C      1  0.4781220000000  0.4325970000000  0.4877660000000 1.0
C      1  0.5779630000000  0.5223910000000  0.4918180000000 1.0
C      1  0.4530120000000  0.5584930000000  0.4786230000000 1.0
C      1  0.4770260000000  0.5781300000000  0.4866250000000 1.0
C      1  0.5737500000000  0.4916270000000  0.4876970000000 1.0
C      1  0.4526970000000  0.4478780000000  0.4882140000000 1.0
C      1  0.4577920000000  0.5305130000000  0.4927030000000 1.0
C      1  0.4995590000000  0.4500320000000  0.4997900000000 1.0
C      1  0.5495550000000  0.5297890000000  0.5003340000000 1.0
C      1  0.4587160000000  0.4742570000000  0.5002190000000 1.0
C      1  0.4986480000000  0.5563090000000  0.4988550000000 1.0
C      1  0.5484940000000  0.4785550000000  0.4983660000000 1.0
C      1  0.4102780000000  0.4878990000000  0.5470510000000 1.0
C      1  0.5592340000000  0.4299590000000  0.5460490000000 1.0
C      1  0.5260580000000  0.5818260000000  0.5541560000000 1.0
C      1  0.4102300000000  0.5169980000000  0.5487760000000 1.0
C      1  0.5521470000000  0.5689870000000  0.5545270000000 1.0
C      1  0.5341600000000  0.4140330000000  0.5449930000000 1.0
C      1  0.4240790000000  0.5160240000000  0.5741470000000 1.0
C      1  0.5248670000000  0.4275390000000  0.5689540000000 1.0
C      1  0.5460460000000  0.5558670000000  0.5798130000000 1.0
C      1  0.4264560000000  0.4866150000000  0.5709750000000 1.0
C      1  0.5197210000000  0.5699200000000  0.5801100000000 1.0
C      1  0.5493630000000  0.4434950000000  0.5693580000000 1.0
C      1  0.5885080000000  0.5446840000000  0.5316410000000 1.0
C      1  0.4207330000000  0.5572600000000  0.5256470000000 1.0
C      1  0.4945210000000  0.4016890000000  0.5212200000000 1.0
C      1  0.5885770000000  0.4601340000000  0.5216840000000 1.0
C      1  0.4184000000000  0.4478070000000  0.5224510000000 1.0
C      1  0.4860980000000  0.5945030000000  0.5300770000000 1.0
C      1  0.4883150000000  0.4498030000000  0.6017040000000 1.0
C      1  0.5443550000000  0.5126750000000  0.6061340000000 1.0
C      1  0.4593990000000  0.5316000000000  0.6088530000000 1.0
C      1  0.4846900000000  0.5461980000000  0.6099450000000 1.0
C      1  0.5430270000000  0.4839890000000  0.6018770000000 1.0
C      1  0.4630690000000  0.4641480000000  0.6021150000000 1.0
C      1  0.4716990000000  0.5096790000000  0.6242480000000 1.0
C      1  0.4980670000000  0.4674320000000  0.6224790000000 1.0
C      1  0.5216240000000  0.5113160000000  0.6246160000000 1.0
C      1  0.4722150000000  0.4818820000000  0.6232500000000 1.0
C      1  0.4970920000000  0.5246530000000  0.6253640000000 1.0
C      1  0.5215090000000  0.4819540000000  0.6213330000000 1.0
C      1  0.5244920000000  0.5129540000000  0.5462610000000 1.0
C      1  0.4772820000000  0.5124950000000  0.5528840000000 1.0
C      1  0.5007870000000  0.4676430000000  0.5525500000000 1.0
C      1  0.5267890000000  0.4837440000000  0.5508700000000 1.0
C      1  0.4743190000000  0.4834350000000  0.5538830000000 1.0
C      1  0.5008210000000  0.5261970000000  0.5452810000000 1.0
C      1  0.4809140000000  0.5665270000000  0.4431520000000 1.0
C      1  0.4521810000000  0.4483850000000  0.4582390000000 1.0
C      1  0.5729100000000  0.4855220000000  0.4572910000000 1.0
C      1  0.4770780000000  0.4333600000000  0.4580370000000 1.0
C      1  0.4581930000000  0.5536940000000  0.4504750000000 1.0
C      1  0.5763690000000  0.5139350000000  0.4490490000000 1.0
C      1  0.4747320000000  0.4276210000000  0.5638410000000 1.0
C      1  0.5730470000000  0.5154740000000  0.5698540000000 1.0
C      1  0.4466700000000  0.5580980000000  0.5726770000000 1.0
C      1  0.4724790000000  0.5698420000000  0.5725530000000 1.0
C      1  0.5731240000000  0.4875690000000  0.5658770000000 1.0
C      1  0.4506850000000  0.4419790000000  0.5641630000000 1.0
C      1  0.5491950000000  0.4870260000000  0.5267140000000 1.0
C      1  0.4877870000000  0.5466340000000  0.5274760000000 1.0
C      1  0.4640240000000  0.4666390000000  0.5285900000000 1.0
C      1  0.5477910000000  0.5170500000000  0.5281340000000 1.0
C      1  0.4902610000000  0.4511300000000  0.5281980000000 1.0
C      1  0.4603780000000  0.5305130000000  0.5344880000000 1.0
C      1  0.4713730000000  0.5999580000000  0.5067270000000 1.0
C      1  0.4200600000000  0.4307950000000  0.4990950000000 1.0
C      1  0.5972280000000  0.4721760000000  0.4958100000000 1.0
C      1  0.4778550000000  0.3954500000000  0.4982240000000 1.0
C      1  0.4161940000000  0.5743060000000  0.5037160000000 1.0
C      1  0.5999600000000  0.5310670000000  0.5101550000000 1.0
C      1  0.5589390000000  0.4823650000000  0.3854480000000 1.0
C      1  0.4805360000000  0.5522880000000  0.3824100000000 1.0
C      1  0.4531300000000  0.4516100000000  0.3920790000000 1.0
C      1  0.5658120000000  0.5072330000000  0.3818530000000 1.0
C      1  0.4754800000000  0.4383660000000  0.3913880000000 1.0
C      1  0.4562470000000  0.5429530000000  0.3855220000000 1.0
C      1  0.5173490000000  0.5881420000000  0.4573250000000 1.0
C      1  0.4128480000000  0.4728270000000  0.4716000000000 1.0
C      1  0.5709930000000  0.4387700000000  0.4651810000000 1.0
C      1  0.5169530000000  0.4091020000000  0.4688190000000 1.0
C      1  0.4130260000000  0.5333130000000  0.4723780000000 1.0
C      1  0.5721370000000  0.5608130000000  0.4604690000000 1.0
C      1  0.4139690000000  0.5293150000000  0.5218270000000 1.0
C      1  0.5225780000000  0.4097760000000  0.5173680000000 1.0
C      1  0.5672500000000  0.5630640000000  0.5314900000000 1.0
C      1  0.4129730000000  0.4764080000000  0.5201020000000 1.0
C      1  0.5140640000000  0.5901700000000  0.5304250000000 1.0
C      1  0.5703040000000  0.4389890000000  0.5215990000000 1.0
C      1  0.6213060000000  0.4884130000000  0.5025720000000 1.0
C      1  0.4452490000000  0.6078980000000  0.5086920000000 1.0
C      1  0.4282000000000  0.4036710000000  0.5014610000000 1.0
C      1  0.6210230000000  0.5128450000000  0.5102760000000 1.0
C      1  0.4500900000000  0.3906970000000  0.5011970000000 1.0
C      1  0.4206640000000  0.6022390000000  0.5065150000000 1.0
C      1  0.5179920000000  0.5073990000000  0.4164240000000 1.0
END
