TITL C-214956-2963-7 -7.09483408448878 125000 -252.845267753827 0 0 38 (C2) n - 1
REM
REM in /rds/project/t2_vol4/rds-t2-cs072/BORA/CARBON/from-Arr/AIRSS/Generating-Clusters/GAP-ML-2020/Higher-Symm/SD-CG/HFTN-CG
REM
REM
REM
REM
REM
REM ./C.cell (b20cbc046b6831c77cfcea5457e17084)
REM AIRSS Version 0.9.1 bugfix July 2018 build 013d7b7c2542+ Fri, 06 Jul 2018 19:26:36 +0100
REM compiler GCC version 9.3.0
REM options -cpp -mtune=generic -march=x86-64 -g -O0
REM seed -1567866201 2066802587 -1407499614 1216704459 1550651734 -391841622 -9309172 -1939599982 -1752646989 -1750505931 583173315 -1359756860 966978750 -1947934970 272620809 -1036456184 -1649422452 -1682497373 1096201210 34128447 -1365335700 1450728987 245129629 -315675356 -1169160457 1686269680 -1854400175 2090493120 -1686023698 -1483160750 -759337404 122480121 1467031767
REM
CELL 1.54180   50.00000   50.00000   50.00000   90.00000   90.00000   90.00000
LATT -1
SFAC C  
C      1  0.5282400000000  0.4808040000000  0.4453100000000 1.0
C      1  0.5247770000000  0.5164460000000  0.5571980000000 1.0
C      1  0.4802110000000  0.4812830000000  0.4438490000000 1.0
C      1  0.4770360000000  0.5209620000000  0.5541030000000 1.0
C      1  0.5483290000000  0.5084640000000  0.4689230000000 1.0
C      1  0.5440310000000  0.4867330000000  0.5354560000000 1.0
C      1  0.4593360000000  0.5105390000000  0.4644390000000 1.0
C      1  0.4552800000000  0.4939300000000  0.5314860000000 1.0
C      1  0.4782720000000  0.5091390000000  0.4400150000000 1.0
C      1  0.4718620000000  0.4934770000000  0.5576000000000 1.0
C      1  0.5315490000000  0.5083670000000  0.4428660000000 1.0
C      1  0.5249610000000  0.4887010000000  0.5598080000000 1.0
C      1  0.4499480000000  0.4778840000000  0.5118420000000 1.0
C      1  0.4538630000000  0.5271490000000  0.4835690000000 1.0
C      1  0.5475500000000  0.4711000000000  0.5150060000000 1.0
C      1  0.5515000000000  0.5237480000000  0.4896920000000 1.0
C      1  0.4598150000000  0.4810740000000  0.4650620000000 1.0
C      1  0.4588730000000  0.5231830000000  0.5310560000000 1.0
C      1  0.5468600000000  0.4791980000000  0.4676010000000 1.0
C      1  0.5454890000000  0.5160000000000  0.5367780000000 1.0
C      1  0.4915740000000  0.5726920000000  0.4888700000000 1.0
C      1  0.4830600000000  0.4286460000000  0.5099090000000 1.0
C      1  0.5164410000000  0.5694580000000  0.4939420000000 1.0
C      1  0.5084960000000  0.4292560000000  0.5072310000000 1.0
C      1  0.5259000000000  0.5559970000000  0.5168650000000 1.0
C      1  0.5214280000000  0.4415490000000  0.4853730000000 1.0
C      1  0.4732230000000  0.5646940000000  0.5091680000000 1.0
C      1  0.4676420000000  0.4384050000000  0.4880060000000 1.0
C      1  0.4838060000000  0.5724760000000  0.5335370000000 1.0
C      1  0.4796190000000  0.4294470000000  0.4647090000000 1.0
C      1  0.5061480000000  0.5564470000000  0.5386170000000 1.0
C      1  0.5038840000000  0.4430440000000  0.4618460000000 1.0
C      1  0.4584060000000  0.5397160000000  0.5080500000000 1.0
C      1  0.4554590000000  0.4647920000000  0.4878390000000 1.0
C      1  0.5440430000000  0.5335620000000  0.5146860000000 1.0
C      1  0.5415140000000  0.4619900000000  0.4893700000000 1.0
C      1  0.5043910000000  0.4659420000000  0.4446740000000 1.0
C      1  0.5026470000000  0.5337060000000  0.5556470000000 1.0
END
