TITL C-214960-2946-3 -0.103328910558272 125000 -545.990910636235 0 0 82 (C1) n - 1
REM
REM in /rds/project/t2_vol4/rds-t2-cs072/BORA/CARBON/from-Arr/AIRSS/Generating-Clusters/GAP-ML-2020/Higher-Symm/SD-CG/HFTN-CG
REM
REM
REM
REM
REM
REM ./C.cell (b20cbc046b6831c77cfcea5457e17084)
REM AIRSS Version 0.9.1 bugfix July 2018 build 013d7b7c2542+ Fri, 06 Jul 2018 19:26:36 +0100
REM compiler GCC version 9.3.0
REM options -cpp -mtune=generic -march=x86-64 -g -O0
REM seed 1354200841 63035558 -1289480995 1892529342 -126363380 -247796822 -1856215251 139360576 -2051582445 1454554380 -1663543644 -140438347 -1269894139 1319312703 -1001114445 -463003648 325340015 522225854 -1798767454 504313399 -1531776920 1213007645 1207124598 1243140699 504698176 257385253 587013999 112197479 -780270548 864323531 92652747 -221449826 1599476759
REM
CELL 1.54180   50.00000   50.00000   50.00000   90.00000   90.00000   90.00000
LATT -1
SFAC C  
C      1  0.5389330000000  0.4725630000000  0.5358820000000 1.0
C      1  0.5412580000000  0.5331240000000  0.4708270000000 1.0
C      1  0.4992160000000  0.5439380000000  0.5479450000000 1.0
C      1  0.5277950000000  0.5203930000000  0.4507590000000 1.0
C      1  0.4755120000000  0.5303380000000  0.5384600000000 1.0
C      1  0.4587450000000  0.4807020000000  0.4519490000000 1.0
C      1  0.5398090000000  0.4628820000000  0.5097750000000 1.0
C      1  0.4517590000000  0.4669060000000  0.4746300000000 1.0
C      1  0.4707580000000  0.5410760000000  0.5116410000000 1.0
C      1  0.4720290000000  0.4572490000000  0.4583630000000 1.0
C      1  0.5181900000000  0.4567630000000  0.5255940000000 1.0
C      1  0.5207200000000  0.5463360000000  0.4572270000000 1.0
C      1  0.4604300000000  0.5238460000000  0.4921400000000 1.0
C      1  0.4917840000000  0.4602180000000  0.5172430000000 1.0
C      1  0.5131330000000  0.4965050000000  0.4506510000000 1.0
C      1  0.4491870000000  0.4772540000000  0.5027290000000 1.0
C      1  0.5394300000000  0.4762140000000  0.4846280000000 1.0
C      1  0.5485270000000  0.5222890000000  0.4976720000000 1.0
C      1  0.4934110000000  0.5502830000000  0.4702780000000 1.0
C      1  0.5105160000000  0.5382780000000  0.5207460000000 1.0
C      1  0.4988090000000  0.4494220000000  0.4692050000000 1.0
C      1  0.5314380000000  0.4997250000000  0.5443200000000 1.0
C      1  0.4668700000000  0.5080470000000  0.4451480000000 1.0
C      1  0.4816250000000  0.5017320000000  0.5378000000000 1.0
C      1  0.5752080000000  0.5179350000000  0.5558320000000 1.0
C      1  0.5552430000000  0.5658690000000  0.5185330000000 1.0
C      1  0.5174950000000  0.5498700000000  0.5689790000000 1.0
C      1  0.5816400000000  0.4653560000000  0.4492570000000 1.0
C      1  0.4275640000000  0.4833730000000  0.5626820000000 1.0
C      1  0.4258040000000  0.5308370000000  0.4581430000000 1.0
C      1  0.5586460000000  0.4159530000000  0.4841730000000 1.0
C      1  0.4440980000000  0.4344150000000  0.5256300000000 1.0
C      1  0.4398970000000  0.5840950000000  0.4898980000000 1.0
C      1  0.5292170000000  0.4360190000000  0.4347890000000 1.0
C      1  0.4786770000000  0.4474780000000  0.5753110000000 1.0
C      1  0.4659730000000  0.5706320000000  0.4347580000000 1.0
C      1  0.5179180000000  0.4285790000000  0.4575780000000 1.0
C      1  0.4448540000000  0.5287790000000  0.4385010000000 1.0
C      1  0.4339520000000  0.4590200000000  0.5212740000000 1.0
C      1  0.5270070000000  0.5712320000000  0.5543300000000 1.0
C      1  0.4770920000000  0.5734220000000  0.4606000000000 1.0
C      1  0.4763160000000  0.4281470000000  0.5590920000000 1.0
C      1  0.4470370000000  0.4830500000000  0.5787230000000 1.0
C      1  0.5656830000000  0.4639700000000  0.4299410000000 1.0
C      1  0.5498050000000  0.5140030000000  0.5647320000000 1.0
C      1  0.4215240000000  0.5663970000000  0.4903350000000 1.0
C      1  0.5663180000000  0.5415650000000  0.5137290000000 1.0
C      1  0.5772380000000  0.4333490000000  0.4841200000000 1.0
C      1  0.5317970000000  0.5785660000000  0.5274730000000 1.0
C      1  0.5305600000000  0.5275160000000  0.5841070000000 1.0
C      1  0.5845750000000  0.5205600000000  0.5295530000000 1.0
C      1  0.5299670000000  0.4109450000000  0.4805060000000 1.0
C      1  0.4680280000000  0.4209850000000  0.5323800000000 1.0
C      1  0.4674280000000  0.5907950000000  0.4832670000000 1.0
C      1  0.5399160000000  0.4556790000000  0.4190040000000 1.0
C      1  0.4738560000000  0.4744080000000  0.5849070000000 1.0
C      1  0.4540340000000  0.5514560000000  0.4221700000000 1.0
C      1  0.5859850000000  0.4601970000000  0.4770950000000 1.0
C      1  0.4163700000000  0.4800850000000  0.5369340000000 1.0
C      1  0.4149600000000  0.5389420000000  0.4826790000000 1.0
C      1  0.4974880000000  0.4939230000000  0.5832720000000 1.0
C      1  0.5849790000000  0.4853640000000  0.4949400000000 1.0
C      1  0.4884260000000  0.6001040000000  0.4995620000000 1.0
C      1  0.5013370000000  0.4873470000000  0.4078480000000 1.0
C      1  0.5128860000000  0.5113190000000  0.5976230000000 1.0
C      1  0.5220600000000  0.4727550000000  0.4037480000000 1.0
C      1  0.5969960000000  0.5003720000000  0.5142580000000 1.0
C      1  0.4141150000000  0.5147760000000  0.5025020000000 1.0
C      1  0.4024460000000  0.4998250000000  0.5223100000000 1.0
C      1  0.4889320000000  0.4147310000000  0.5086810000000 1.0
C      1  0.5109220000000  0.4023320000000  0.4992740000000 1.0
C      1  0.5060900000000  0.5819360000000  0.5087710000000 1.0
C      1  0.4958310000000  0.5542260000000  0.5012290000000 1.0
C      1  0.5036720000000  0.4959620000000  0.5556920000000 1.0
C      1  0.5595730000000  0.4964220000000  0.4880480000000 1.0
C      1  0.4887680000000  0.4405020000000  0.4965080000000 1.0
C      1  0.4918150000000  0.4990030000000  0.4309420000000 1.0
C      1  0.4400990000000  0.5048610000000  0.4988840000000 1.0
C      1  0.4769930000000  0.5233330000000  0.4701120000000 1.0
C      1  0.4770000000000  0.4833510000000  0.5168370000000 1.0
C      1  0.5156700000000  0.4770950000000  0.4703360000000 1.0
C      1  0.5249410000000  0.5147990000000  0.5162020000000 1.0
END
