TITL C-21839-7407-5 140.400166977436 125000 -573.438633989735 0 0 86 (C4h) n - 1
REM
REM in /rds/project/t2_vol4/rds-t2-cs072/BORA/CARBON/from-Arr/AIRSS/Generating-Clusters/GAP-ML-2020/Higher-Symm/SD-CG/HFTN-CG
REM
REM
REM
REM
REM
REM ./C.cell (b20cbc046b6831c77cfcea5457e17084)
REM AIRSS Version 0.9.1 bugfix July 2018 build 013d7b7c2542+ Fri, 06 Jul 2018 19:26:36 +0100
REM compiler GCC version 9.3.0
REM options -cpp -mtune=generic -march=x86-64 -g -O0
REM seed -1554825939 1031234018 -460334755 -145679117 1615831083 753905363 1125087352 -153008891 73402334 -1655730825 -297657371 237393506 -1250686424 654692047 -762698532 -1329816975 1334826584 -786365047 -623191156 1542596024 1868333752 -2028919169 -1400215096 2119128943 -1613161591 572627180 1462547647 -973748920 -1876320891 926120672 186871777 1182679661 1562249460
REM
CELL 1.54180   50.00000   50.00000   50.00000   90.00000   90.00000   90.00000
LATT -1
SFAC C  
C      1  0.4747260000000  0.4336290000000  0.4578580000000 1.0
C      1  0.4747370000000  0.4577980000000  0.5659840000000 1.0
C      1  0.4746330000000  0.5659240000000  0.5418160000000 1.0
C      1  0.4746220000000  0.5417560000000  0.4336890000000 1.0
C      1  0.5273760000000  0.4336760000000  0.4578420000000 1.0
C      1  0.5273860000000  0.4578450000000  0.5659690000000 1.0
C      1  0.5272830000000  0.5659710000000  0.5418000000000 1.0
C      1  0.5272720000000  0.5418030000000  0.4336730000000 1.0
C      1  0.5384110000000  0.4415890000000  0.5436800000000 1.0
C      1  0.5383240000000  0.5436960000000  0.5580620000000 1.0
C      1  0.5382810000000  0.5580790000000  0.4559550000000 1.0
C      1  0.5383680000000  0.4559720000000  0.4415730000000 1.0
C      1  0.4637280000000  0.4415220000000  0.5437020000000 1.0
C      1  0.4636410000000  0.5436290000000  0.5580850000000 1.0
C      1  0.4635970000000  0.5580120000000  0.4559780000000 1.0
C      1  0.4636840000000  0.4559050000000  0.4415950000000 1.0
C      1  0.4863630000000  0.4978730000000  0.4187930000000 1.0
C      1  0.4864590000000  0.4187470000000  0.5017480000000 1.0
C      1  0.4864090000000  0.5017020000000  0.5808730000000 1.0
C      1  0.4863130000000  0.5808270000000  0.4979190000000 1.0
C      1  0.5156000000000  0.4978990000000  0.4187850000000 1.0
C      1  0.5156960000000  0.4187740000000  0.5017390000000 1.0
C      1  0.5156450000000  0.5017280000000  0.5808640000000 1.0
C      1  0.5155500000000  0.5808530000000  0.4979100000000 1.0
C      1  0.5587030000000  0.4512750000000  0.5248600000000 1.0
C      1  0.5586440000000  0.5249000000000  0.5483880000000 1.0
C      1  0.5586010000000  0.5484280000000  0.4747630000000 1.0
C      1  0.5586600000000  0.4748040000000  0.4512350000000 1.0
C      1  0.4434070000000  0.4511720000000  0.5248940000000 1.0
C      1  0.4433490000000  0.5247970000000  0.5484230000000 1.0
C      1  0.4433060000000  0.5483250000000  0.4747980000000 1.0
C      1  0.4433640000000  0.4747010000000  0.4512700000000 1.0
C      1  0.4855180000000  0.4733970000000  0.4353220000000 1.0
C      1  0.4855800000000  0.4352750000000  0.5262230000000 1.0
C      1  0.4855100000000  0.5261760000000  0.5643450000000 1.0
C      1  0.4854480000000  0.5642990000000  0.4734440000000 1.0
C      1  0.5164990000000  0.4734250000000  0.4353120000000 1.0
C      1  0.5165600000000  0.4353020000000  0.5262140000000 1.0
C      1  0.5164900000000  0.5262040000000  0.5643360000000 1.0
C      1  0.5164290000000  0.5643260000000  0.4734350000000 1.0
C      1  0.4726290000000  0.4737490000000  0.4866160000000 1.0
C      1  0.4726300000000  0.4865530000000  0.5258630000000 1.0
C      1  0.4725910000000  0.5258010000000  0.5130590000000 1.0
C      1  0.4725910000000  0.5129970000000  0.4738110000000 1.0
C      1  0.5294180000000  0.4738000000000  0.4865990000000 1.0
C      1  0.5294180000000  0.4866040000000  0.5258460000000 1.0
C      1  0.5293790000000  0.5258520000000  0.5130420000000 1.0
C      1  0.5293790000000  0.5130470000000  0.4737940000000 1.0
C      1  0.4868340000000  0.5111560000000  0.5345430000000 1.0
C      1  0.4868000000000  0.5344980000000  0.4884650000000 1.0
C      1  0.4868340000000  0.4884200000000  0.4651230000000 1.0
C      1  0.4868680000000  0.4650770000000  0.5112010000000 1.0
C      1  0.5151750000000  0.5111810000000  0.5345350000000 1.0
C      1  0.5151400000000  0.5345230000000  0.4884560000000 1.0
C      1  0.5151740000000  0.4884450000000  0.4651140000000 1.0
C      1  0.5152090000000  0.4651030000000  0.5111930000000 1.0
C      1  0.5573560000000  0.5336090000000  0.5213860000000 1.0
C      1  0.5573510000000  0.5214250000000  0.4660540000000 1.0
C      1  0.5574040000000  0.4660930000000  0.4782380000000 1.0
C      1  0.5574090000000  0.4782770000000  0.5335700000000 1.0
C      1  0.4446050000000  0.5335080000000  0.5214200000000 1.0
C      1  0.4445990000000  0.5213240000000  0.4660880000000 1.0
C      1  0.4446520000000  0.4659920000000  0.4782720000000 1.0
C      1  0.4446580000000  0.4781760000000  0.5336040000000 1.0
C      1  0.5573620000000  0.4442590000000  0.4963550000000 1.0
C      1  0.5573330000000  0.4963930000000  0.5554030000000 1.0
C      1  0.5572640000000  0.5554420000000  0.5032690000000 1.0
C      1  0.5572930000000  0.5033080000000  0.4442200000000 1.0
C      1  0.4447440000000  0.4441590000000  0.4963880000000 1.0
C      1  0.4447150000000  0.4962930000000  0.5554370000000 1.0
C      1  0.4446470000000  0.5553420000000  0.5033030000000 1.0
C      1  0.4446760000000  0.5032070000000  0.4442540000000 1.0
C      1  0.5367880000000  0.4842740000000  0.5739930000000 1.0
C      1  0.5366900000000  0.5740080000000  0.5153770000000 1.0
C      1  0.5367160000000  0.5153910000000  0.4256430000000 1.0
C      1  0.5368130000000  0.4256570000000  0.4842600000000 1.0
C      1  0.4652930000000  0.4842100000000  0.5740150000000 1.0
C      1  0.4651950000000  0.5739440000000  0.5153980000000 1.0
C      1  0.4652210000000  0.5153270000000  0.4256640000000 1.0
C      1  0.4653180000000  0.4255930000000  0.4842810000000 1.0
C      1  0.5009420000000  0.5455800000000  0.4289540000000 1.0
C      1  0.5010540000000  0.4289260000000  0.4540490000000 1.0
C      1  0.5010660000000  0.4540210000000  0.5707040000000 1.0
C      1  0.5009550000000  0.5706750000000  0.5456090000000 1.0
C      1  0.5378840000000  0.4998330000000  0.4998180000000 1.0
C      1  0.4641240000000  0.4997670000000  0.4998400000000 1.0
END
