TITL C-214963-2984-7 -407.078150913873 125000 -648.912156990313 0 0 97 (C1) n - 1
REM
REM in /rds/project/t2_vol4/rds-t2-cs072/BORA/CARBON/from-Arr/AIRSS/Generating-Clusters/GAP-ML-2020/Higher-Symm/SD-CG/HFTN-CG
REM
REM
REM
REM
REM
REM ./C.cell (b20cbc046b6831c77cfcea5457e17084)
REM AIRSS Version 0.9.1 bugfix July 2018 build 013d7b7c2542+ Fri, 06 Jul 2018 19:26:36 +0100
REM compiler GCC version 9.3.0
REM options -cpp -mtune=generic -march=x86-64 -g -O0
REM seed -1930375458 2084075794 1021155850 -29546041 1833872507 941235782 -1636234975 -18530655 -782093301 701625643 1062851523 1144213576 827499611 -1806527192 -765858989 1827516496 418332011 1686690239 97896465 2043476130 2046935460 -1917484303 991457831 -1298734343 1558168862 27890989 -873022823 -1910553941 1437064973 1121915730 1550720129 -503972939 -1251665232
REM
CELL 1.54180   50.00000   50.00000   50.00000   90.00000   90.00000   90.00000
LATT -1
SFAC C  
C      1  0.5129550000000  0.4618480000000  0.5109710000000 1.0
C      1  0.5181970000000  0.5423450000000  0.4845400000000 1.0
C      1  0.4834780000000  0.4604080000000  0.5115800000000 1.0
C      1  0.4852470000000  0.5421150000000  0.4848340000000 1.0
C      1  0.4447300000000  0.4317810000000  0.4733380000000 1.0
C      1  0.4643470000000  0.5664920000000  0.5241630000000 1.0
C      1  0.5543550000000  0.4309500000000  0.4743200000000 1.0
C      1  0.5402030000000  0.5664980000000  0.5249110000000 1.0
C      1  0.5157710000000  0.5869170000000  0.4852150000000 1.0
C      1  0.5144170000000  0.4175630000000  0.5039500000000 1.0
C      1  0.4877400000000  0.5868670000000  0.4853430000000 1.0
C      1  0.4844540000000  0.4173500000000  0.5029240000000 1.0
C      1  0.5624630000000  0.5445040000000  0.4483690000000 1.0
C      1  0.5601740000000  0.4547940000000  0.5494910000000 1.0
C      1  0.4403100000000  0.5455350000000  0.4477100000000 1.0
C      1  0.4360880000000  0.4366970000000  0.5519330000000 1.0
C      1  0.4654430000000  0.4753590000000  0.5587460000000 1.0
C      1  0.4747220000000  0.5215140000000  0.4423450000000 1.0
C      1  0.5255600000000  0.4772960000000  0.5563820000000 1.0
C      1  0.5274960000000  0.5213190000000  0.4421570000000 1.0
C      1  0.4636250000000  0.5430030000000  0.5058730000000 1.0
C      1  0.4413440000000  0.4536040000000  0.4915320000000 1.0
C      1  0.5410670000000  0.5443730000000  0.5050770000000 1.0
C      1  0.5557990000000  0.4532670000000  0.4917480000000 1.0
C      1  0.5692840000000  0.5362420000000  0.4930630000000 1.0
C      1  0.5769680000000  0.4636350000000  0.5087310000000 1.0
C      1  0.4342290000000  0.5366830000000  0.4929490000000 1.0
C      1  0.4223830000000  0.4641450000000  0.5110540000000 1.0
C      1  0.5654360000000  0.5277480000000  0.5504410000000 1.0
C      1  0.5701290000000  0.4736910000000  0.4495340000000 1.0
C      1  0.4336960000000  0.5322940000000  0.5486580000000 1.0
C      1  0.4310900000000  0.4748830000000  0.4481590000000 1.0
C      1  0.5343530000000  0.4150250000000  0.4849500000000 1.0
C      1  0.5180490000000  0.5819880000000  0.5148950000000 1.0
C      1  0.4649840000000  0.4148860000000  0.4829440000000 1.0
C      1  0.4861120000000  0.5823200000000  0.5148240000000 1.0
C      1  0.4279190000000  0.5520630000000  0.4711570000000 1.0
C      1  0.4203520000000  0.4490960000000  0.5352720000000 1.0
C      1  0.5769690000000  0.5508420000000  0.4707160000000 1.0
C      1  0.5809210000000  0.4494040000000  0.5327660000000 1.0
C      1  0.4826720000000  0.4930020000000  0.5782210000000 1.0
C      1  0.4870620000000  0.5021910000000  0.4212980000000 1.0
C      1  0.5111900000000  0.4935290000000  0.5778410000000 1.0
C      1  0.5149880000000  0.5020170000000  0.4213180000000 1.0
C      1  0.4866330000000  0.5320110000000  0.5488410000000 1.0
C      1  0.4859450000000  0.4585180000000  0.4609210000000 1.0
C      1  0.5136990000000  0.5348050000000  0.5477070000000 1.0
C      1  0.5134480000000  0.4585400000000  0.4609280000000 1.0
C      1  0.4586000000000  0.4998990000000  0.5170400000000 1.0
C      1  0.4643890000000  0.4956570000000  0.4853700000000 1.0
C      1  0.5413010000000  0.5007030000000  0.5156500000000 1.0
C      1  0.5365250000000  0.4954230000000  0.4849000000000 1.0
C      1  0.5563090000000  0.4849000000000  0.5567520000000 1.0
C      1  0.5572820000000  0.5147260000000  0.4435870000000 1.0
C      1  0.4392550000000  0.4915540000000  0.5586650000000 1.0
C      1  0.4447160000000  0.5156770000000  0.4433160000000 1.0
C      1  0.5510180000000  0.5529790000000  0.5495530000000 1.0
C      1  0.5566330000000  0.4481680000000  0.4502400000000 1.0
C      1  0.4515400000000  0.5549620000000  0.5483080000000 1.0
C      1  0.4434350000000  0.4486930000000  0.4483470000000 1.0
C      1  0.5255150000000  0.5249730000000  0.5220120000000 1.0
C      1  0.5283260000000  0.4671330000000  0.4855630000000 1.0
C      1  0.4761200000000  0.5209730000000  0.5239470000000 1.0
C      1  0.4701320000000  0.4669480000000  0.4853350000000 1.0
C      1  0.4836120000000  0.4353030000000  0.5289590000000 1.0
C      1  0.4858160000000  0.5641880000000  0.4636930000000 1.0
C      1  0.5143080000000  0.4361660000000  0.5289060000000 1.0
C      1  0.5170450000000  0.5644610000000  0.4632150000000 1.0
C      1  0.4850900000000  0.5150170000000  0.4713930000000 1.0
C      1  0.4698640000000  0.4776630000000  0.5301320000000 1.0
C      1  0.5170630000000  0.5151770000000  0.4711610000000 1.0
C      1  0.5189440000000  0.4846200000000  0.5274310000000 1.0
C      1  0.5303750000000  0.5441090000000  0.5678470000000 1.0
C      1  0.5313500000000  0.4565500000000  0.4385080000000 1.0
C      1  0.4701540000000  0.5437590000000  0.5677720000000 1.0
C      1  0.4691880000000  0.4568560000000  0.4376050000000 1.0
C      1  0.5348580000000  0.5516810000000  0.4440740000000 1.0
C      1  0.5322540000000  0.4475370000000  0.5504710000000 1.0
C      1  0.4681390000000  0.5521070000000  0.4439180000000 1.0
C      1  0.4634010000000  0.4443120000000  0.5518240000000 1.0
C      1  0.5668970000000  0.5027650000000  0.5329030000000 1.0
C      1  0.5636810000000  0.4974460000000  0.4682440000000 1.0
C      1  0.4312670000000  0.5057300000000  0.5331770000000 1.0
C      1  0.4373000000000  0.4984030000000  0.4675660000000 1.0
C      1  0.4165320000000  0.4938530000000  0.5112880000000 1.0
C      1  0.4211720000000  0.5102950000000  0.4888890000000 1.0
C      1  0.5828800000000  0.4923760000000  0.5110940000000 1.0
C      1  0.5799670000000  0.5092480000000  0.4893860000000 1.0
C      1  0.5344010000000  0.4798520000000  0.4210470000000 1.0
C      1  0.5298430000000  0.5173150000000  0.5798910000000 1.0
C      1  0.4672500000000  0.4805160000000  0.4203240000000 1.0
C      1  0.4667840000000  0.5181280000000  0.5808170000000 1.0
C      1  0.5605630000000  0.4901540000000  0.4272430000000 1.0
C      1  0.5561010000000  0.5098800000000  0.5720830000000 1.0
C      1  0.4413100000000  0.4914030000000  0.4263280000000 1.0
C      1  0.4402910000000  0.5155230000000  0.5729930000000 1.0
C      1  0.5013420000000  0.5088790000000  0.5153290000000 1.0
END
