TITL C-215423-2499-3 438.832074526704 125000 -1247.34541140303 0 0 180 (C2) n - 1
REM
REM in /rds/project/t2_vol4/rds-t2-cs072/BORA/CARBON/from-Arr/AIRSS/Generating-Clusters/GAP-ML-2020/Higher-Symm/SD-CG/HFTN-CG/C160-200
REM
REM
REM
REM
REM
REM ./C.cell (6b4489405718ea1b717e0baf1da4c2d9)
REM AIRSS Version 0.9.1 bugfix July 2018 build 013d7b7c2542+ Fri, 06 Jul 2018 19:26:36 +0100
REM compiler GCC version 9.3.0
REM options -cpp -mtune=generic -march=x86-64 -g -O0
REM seed 1990065309 1991553016 -473463464 -1595105017 -1679882871 -332302275 -228344301 -1453536109 491995108 490381150 23385234 221512750 968184421 -857677297 -1969864022 1987383217 -1855810574 -223810508 -1053943469 -278962448 -2024038374 -948714159 -267007373 302944274 1078725405 2021113771 286456983 1964031764 1328356503 -187551052 -419882603 1824406533 -936269362
REM
CELL 1.54180   50.00000   50.00000   50.00000   90.00000   90.00000   90.00000
LATT -1
SFAC C  
C      1  0.5719120000000  0.5891290000000  0.5015200000000 1.0
C      1  0.6090830000000  0.4594480000000  0.5065660000000 1.0
C      1  0.4934600000000  0.3852800000000  0.5016250000000 1.0
C      1  0.3876460000000  0.4685040000000  0.4958480000000 1.0
C      1  0.4377020000000  0.5962430000000  0.4956640000000 1.0
C      1  0.5734550000000  0.4120000000000  0.5047680000000 1.0
C      1  0.6062310000000  0.5424700000000  0.5053840000000 1.0
C      1  0.4935270000000  0.6163530000000  0.4974110000000 1.0
C      1  0.3886210000000  0.5276090000000  0.4938040000000 1.0
C      1  0.4368380000000  0.4018360000000  0.4973490000000 1.0
C      1  0.5756020000000  0.5026290000000  0.4259740000000 1.0
C      1  0.5307600000000  0.4257610000000  0.4268350000000 1.0
C      1  0.4454970000000  0.4537930000000  0.4184570000000 1.0
C      1  0.4377390000000  0.5435810000000  0.4178170000000 1.0
C      1  0.5246750000000  0.5785900000000  0.4218030000000 1.0
C      1  0.5783500000000  0.4975180000000  0.5821900000000 1.0
C      1  0.5209260000000  0.5686800000000  0.5777670000000 1.0
C      1  0.4344440000000  0.5485340000000  0.5718160000000 1.0
C      1  0.4358420000000  0.4585480000000  0.5769450000000 1.0
C      1  0.5192790000000  0.4246670000000  0.5805180000000 1.0
C      1  0.4973050000000  0.5861380000000  0.4295920000000 1.0
C      1  0.5791120000000  0.5294570000000  0.4357380000000 1.0
C      1  0.5559840000000  0.4376270000000  0.4342480000000 1.0
C      1  0.4574320000000  0.4305820000000  0.4299960000000 1.0
C      1  0.4238030000000  0.5191870000000  0.4257410000000 1.0
C      1  0.4923040000000  0.4188380000000  0.5710080000000 1.0
C      1  0.5779380000000  0.4694460000000  0.5733240000000 1.0
C      1  0.5480600000000  0.5644890000000  0.5691910000000 1.0
C      1  0.4535280000000  0.5694000000000  0.5661210000000 1.0
C      1  0.4177480000000  0.4772100000000  0.5651670000000 1.0
C      1  0.4427110000000  0.4227510000000  0.5408300000000 1.0
C      1  0.4089800000000  0.5234990000000  0.5413580000000 1.0
C      1  0.4970200000000  0.5949760000000  0.5405810000000 1.0
C      1  0.5831190000000  0.5330880000000  0.5514800000000 1.0
C      1  0.5557940000000  0.4296250000000  0.5513520000000 1.0
C      1  0.4516980000000  0.5759100000000  0.4489380000000 1.0
C      1  0.4115150000000  0.4695610000000  0.4535210000000 1.0
C      1  0.4978760000000  0.4076920000000  0.4550320000000 1.0
C      1  0.5918540000000  0.4706780000000  0.4628630000000 1.0
C      1  0.5584980000000  0.5715290000000  0.4540090000000 1.0
C      1  0.4347720000000  0.5286560000000  0.5231530000000 1.0
C      1  0.5053010000000  0.5701320000000  0.5250180000000 1.0
C      1  0.5652900000000  0.5141420000000  0.5317830000000 1.0
C      1  0.5325230000000  0.4408940000000  0.5318770000000 1.0
C      1  0.4506040000000  0.4475890000000  0.5252690000000 1.0
C      1  0.4367630000000  0.4692060000000  0.4703650000000 1.0
C      1  0.5094360000000  0.4301290000000  0.4746850000000 1.0
C      1  0.5697740000000  0.4853290000000  0.4778920000000 1.0
C      1  0.5342030000000  0.5593570000000  0.4720730000000 1.0
C      1  0.4546740000000  0.5496470000000  0.4676270000000 1.0
C      1  0.5631120000000  0.5405100000000  0.5735020000000 1.0
C      1  0.5579180000000  0.4493750000000  0.5752780000000 1.0
C      1  0.4700730000000  0.4343000000000  0.5798930000000 1.0
C      1  0.4203260000000  0.5052660000000  0.5637910000000 1.0
C      1  0.4790700000000  0.5704470000000  0.5789800000000 1.0
C      1  0.5651030000000  0.4621840000000  0.4227320000000 1.0
C      1  0.5608350000000  0.5510540000000  0.4313020000000 1.0
C      1  0.4723780000000  0.5730060000000  0.4258970000000 1.0
C      1  0.4325070000000  0.4937330000000  0.4163320000000 1.0
C      1  0.4849080000000  0.4247280000000  0.4325370000000 1.0
C      1  0.5363920000000  0.5528040000000  0.4146800000000 1.0
C      1  0.5501330000000  0.4892120000000  0.4166390000000 1.0
C      1  0.5066380000000  0.4414020000000  0.4231850000000 1.0
C      1  0.4596740000000  0.4814880000000  0.4115370000000 1.0
C      1  0.4660220000000  0.5491130000000  0.4107370000000 1.0
C      1  0.5324840000000  0.4497830000000  0.5892050000000 1.0
C      1  0.5567980000000  0.5160390000000  0.5889310000000 1.0
C      1  0.5001930000000  0.5479650000000  0.5853110000000 1.0
C      1  0.4421380000000  0.5207580000000  0.5748300000000 1.0
C      1  0.4660900000000  0.4636710000000  0.5855860000000 1.0
C      1  0.5979500000000  0.5541740000000  0.4790800000000 1.0
C      1  0.5841110000000  0.4254990000000  0.4802530000000 1.0
C      1  0.4537620000000  0.3972040000000  0.4728950000000 1.0
C      1  0.3901290000000  0.5109740000000  0.4691920000000 1.0
C      1  0.4786690000000  0.6111620000000  0.4723260000000 1.0
C      1  0.5985210000000  0.4458610000000  0.5306660000000 1.0
C      1  0.5793470000000  0.5768010000000  0.5277910000000 1.0
C      1  0.4524830000000  0.6015340000000  0.5211650000000 1.0
C      1  0.3869500000000  0.4851250000000  0.5209310000000 1.0
C      1  0.4767830000000  0.3907100000000  0.5256500000000 1.0
C      1  0.5388500000000  0.5065310000000  0.5405240000000 1.0
C      1  0.5154410000000  0.4626370000000  0.5402950000000 1.0
C      1  0.4660050000000  0.4697790000000  0.5361860000000 1.0
C      1  0.4588300000000  0.5190650000000  0.5342700000000 1.0
C      1  0.5015150000000  0.5432570000000  0.5357690000000 1.0
C      1  0.5435420000000  0.4900280000000  0.4659780000000 1.0
C      1  0.5196350000000  0.5366740000000  0.4617430000000 1.0
C      1  0.4708590000000  0.5272430000000  0.4591740000000 1.0
C      1  0.4630060000000  0.4777800000000  0.4610630000000 1.0
C      1  0.5078750000000  0.4563380000000  0.4644400000000 1.0
C      1  0.4813320000000  0.3896580000000  0.4748980000000 1.0
C      1  0.3899730000000  0.4820610000000  0.4700210000000 1.0
C      1  0.4522190000000  0.5998670000000  0.4704530000000 1.0
C      1  0.5806010000000  0.5765980000000  0.4763880000000 1.0
C      1  0.6011690000000  0.4488400000000  0.4808570000000 1.0
C      1  0.4797930000000  0.6109700000000  0.5222810000000 1.0
C      1  0.3879130000000  0.5137490000000  0.5200350000000 1.0
C      1  0.4491700000000  0.3991090000000  0.5237450000000 1.0
C      1  0.5799010000000  0.4238610000000  0.5307920000000 1.0
C      1  0.5955480000000  0.5535290000000  0.5304390000000 1.0
C      1  0.4852070000000  0.5138550000000  0.4367470000000 1.0
C      1  0.5155770000000  0.5177130000000  0.4387650000000 1.0
C      1  0.5297010000000  0.4902150000000  0.4397140000000 1.0
C      1  0.5058450000000  0.4680280000000  0.4377280000000 1.0
C      1  0.4781370000000  0.4838020000000  0.4362430000000 1.0
C      1  0.4749410000000  0.4815340000000  0.5619390000000 1.0
C      1  0.5057330000000  0.4794510000000  0.5629020000000 1.0
C      1  0.5184050000000  0.5073910000000  0.5625520000000 1.0
C      1  0.4963280000000  0.5290130000000  0.5612950000000 1.0
C      1  0.4680600000000  0.5126950000000  0.5612610000000 1.0
C      1  0.5060340000000  0.4892590000000  0.3889370000000 1.0
C      1  0.4811260000000  0.4984440000000  0.3942650000000 1.0
C      1  0.4857880000000  0.5258370000000  0.4080320000000 1.0
C      1  0.5184670000000  0.5282230000000  0.4098850000000 1.0
C      1  0.5286910000000  0.5021260000000  0.3972490000000 1.0
C      1  0.5052780000000  0.5229690000000  0.6040670000000 1.0
C      1  0.4859450000000  0.5048160000000  0.6107520000000 1.0
C      1  0.4876940000000  0.4785220000000  0.6045270000000 1.0
C      1  0.5159060000000  0.4754140000000  0.5920330000000 1.0
C      1  0.5278400000000  0.5059860000000  0.5919100000000 1.0
C      1  0.6071570000000  0.4887090000000  0.5128310000000 1.0
C      1  0.5209940000000  0.3951170000000  0.5089950000000 1.0
C      1  0.4048500000000  0.4454490000000  0.5023060000000 1.0
C      1  0.4207150000000  0.5720570000000  0.5011590000000 1.0
C      1  0.5440370000000  0.5980200000000  0.5055500000000 1.0
C      1  0.6067650000000  0.5133820000000  0.5002940000000 1.0
C      1  0.5212190000000  0.6061260000000  0.4921440000000 1.0
C      1  0.4064410000000  0.5512760000000  0.4881930000000 1.0
C      1  0.4201810000000  0.4252950000000  0.4909130000000 1.0
C      1  0.5456640000000  0.4031060000000  0.4975380000000 1.0
C      1  0.4928110000000  0.4309790000000  0.5001570000000 1.0
C      1  0.4319520000000  0.4847400000000  0.4958980000000 1.0
C      1  0.4657050000000  0.5585760000000  0.4946560000000 1.0
C      1  0.5448670000000  0.5506420000000  0.4995070000000 1.0
C      1  0.5636620000000  0.4718790000000  0.5044500000000 1.0
C      1  0.4920000000000  0.5692400000000  0.4977070000000 1.0
C      1  0.4319960000000  0.5134730000000  0.4969290000000 1.0
C      1  0.4653090000000  0.4393640000000  0.5001200000000 1.0
C      1  0.5456320000000  0.4497980000000  0.5057830000000 1.0
C      1  0.5614630000000  0.5279070000000  0.5046140000000 1.0
C      1  0.4986060000000  0.5978680000000  0.4557990000000 1.0
C      1  0.5904380000000  0.5314430000000  0.4623350000000 1.0
C      1  0.5615590000000  0.4285030000000  0.4617450000000 1.0
C      1  0.4481370000000  0.4204610000000  0.4554670000000 1.0
C      1  0.4109200000000  0.5230140000000  0.4520170000000 1.0
C      1  0.4935040000000  0.4063820000000  0.5442790000000 1.0
C      1  0.5908330000000  0.4682040000000  0.5476680000000 1.0
C      1  0.5546030000000  0.5757040000000  0.5432860000000 1.0
C      1  0.4478240000000  0.5784290000000  0.5386190000000 1.0
C      1  0.4066390000000  0.4722580000000  0.5389040000000 1.0
C      1  0.4120460000000  0.5481330000000  0.5565950000000 1.0
C      1  0.5001110000000  0.5870580000000  0.5679760000000 1.0
C      1  0.5957430000000  0.5118170000000  0.5665560000000 1.0
C      1  0.5374680000000  0.4117350000000  0.5649700000000 1.0
C      1  0.4436970000000  0.4316460000000  0.5680530000000 1.0
C      1  0.4216610000000  0.4688900000000  0.4267280000000 1.0
C      1  0.5230600000000  0.4039280000000  0.4408900000000 1.0
C      1  0.5865700000000  0.4769770000000  0.4353830000000 1.0
C      1  0.5426370000000  0.5904090000000  0.4388070000000 1.0
C      1  0.4299340000000  0.5641840000000  0.4337670000000 1.0
C      1  0.5801550000000  0.4867230000000  0.5266630000000 1.0
C      1  0.5108700000000  0.4191320000000  0.5243330000000 1.0
C      1  0.4247280000000  0.4622060000000  0.5184090000000 1.0
C      1  0.4419940000000  0.5582940000000  0.5173660000000 1.0
C      1  0.5356950000000  0.5728460000000  0.5211230000000 1.0
C      1  0.5810650000000  0.5134090000000  0.4834030000000 1.0
C      1  0.5121140000000  0.5814390000000  0.4769130000000 1.0
C      1  0.4271780000000  0.5351020000000  0.4732660000000 1.0
C      1  0.4428060000000  0.4399360000000  0.4764570000000 1.0
C      1  0.5395610000000  0.4280800000000  0.4819190000000 1.0
C      1  0.4791470000000  0.4847440000000  0.4834100000000 1.0
C      1  0.4801580000000  0.5140760000000  0.4826450000000 1.0
C      1  0.5082850000000  0.5229230000000  0.4838990000000 1.0
C      1  0.5252280000000  0.4985860000000  0.4858340000000 1.0
C      1  0.5070070000000  0.4755170000000  0.4850190000000 1.0
C      1  0.4779210000000  0.5133490000000  0.5143970000000 1.0
C      1  0.4784980000000  0.4839670000000  0.5149480000000 1.0
C      1  0.5067650000000  0.4762640000000  0.5168480000000 1.0
C      1  0.5235080000000  0.5005630000000  0.5173330000000 1.0
C      1  0.5053230000000  0.5239830000000  0.5153500000000 1.0
END
