TITL C-21982-5527-7 366.501227464279 125000 -747.548570416482 0 0 109 (C1) n - 1
REM
REM in /rds/project/t2_vol4/rds-t2-cs072/BORA/CARBON/from-Arr/AIRSS/Generating-Clusters/GAP-ML-2020/Higher-Symm/SD-CG/HFTN-CG
REM
REM
REM
REM
REM
REM ./C.cell (b20cbc046b6831c77cfcea5457e17084)
REM AIRSS Version 0.9.1 bugfix July 2018 build 013d7b7c2542+ Fri, 06 Jul 2018 19:26:36 +0100
REM compiler GCC version 9.3.0
REM options -cpp -mtune=generic -march=x86-64 -g -O0
REM seed 1151926236 158897176 580823952 384087304 891489875 752597955 -1152941835 -1374974141 -56169025 -309338959 1676586427 574177055 -356341637 1381408630 489368222 1896240326 -1838844079 287835808 1194285453 1930038219 -527816033 -1640486132 1356036600 1675885691 1737149792 -2063905276 -244325792 1233688657 -466995560 -160049592 936982955 2126806182 1216987144
REM
CELL 1.54180   50.00000   50.00000   50.00000   90.00000   90.00000   90.00000
LATT -1
SFAC C  
C      1  0.4710820000000  0.5856430000000  0.4912520000000 1.0
C      1  0.4632670000000  0.4113700000000  0.5059190000000 1.0
C      1  0.5408410000000  0.5883790000000  0.4919290000000 1.0
C      1  0.5320710000000  0.4116260000000  0.5089270000000 1.0
C      1  0.4712500000000  0.5757560000000  0.4642500000000 1.0
C      1  0.4695490000000  0.4263530000000  0.5292820000000 1.0
C      1  0.5309980000000  0.5755890000000  0.4687620000000 1.0
C      1  0.5280750000000  0.4281680000000  0.5317570000000 1.0
C      1  0.5901830000000  0.4823200000000  0.5157790000000 1.0
C      1  0.5930820000000  0.5112750000000  0.4847040000000 1.0
C      1  0.4081960000000  0.4845020000000  0.5124730000000 1.0
C      1  0.4097920000000  0.5150540000000  0.4830720000000 1.0
C      1  0.5500970000000  0.4758960000000  0.5476970000000 1.0
C      1  0.5542430000000  0.5255410000000  0.4555410000000 1.0
C      1  0.4438330000000  0.4715580000000  0.5443420000000 1.0
C      1  0.4474300000000  0.5263510000000  0.4527150000000 1.0
C      1  0.4606170000000  0.4931470000000  0.4184450000000 1.0
C      1  0.4535670000000  0.4985900000000  0.5819610000000 1.0
C      1  0.5408160000000  0.4931470000000  0.4206370000000 1.0
C      1  0.5318190000000  0.5118740000000  0.5777760000000 1.0
C      1  0.5077730000000  0.5051330000000  0.5300760000000 1.0
C      1  0.5146530000000  0.5006720000000  0.4611570000000 1.0
C      1  0.4829620000000  0.5034770000000  0.5458040000000 1.0
C      1  0.4859950000000  0.5000520000000  0.4591850000000 1.0
C      1  0.5528130000000  0.4705420000000  0.4574770000000 1.0
C      1  0.5640200000000  0.5273250000000  0.5478300000000 1.0
C      1  0.4464820000000  0.4718340000000  0.4558630000000 1.0
C      1  0.4401730000000  0.5233460000000  0.5455810000000 1.0
C      1  0.5288300000000  0.5255540000000  0.4741430000000 1.0
C      1  0.5269410000000  0.4813020000000  0.5269760000000 1.0
C      1  0.4733480000000  0.5260200000000  0.4688540000000 1.0
C      1  0.4680170000000  0.4808910000000  0.5284880000000 1.0
C      1  0.4877110000000  0.5513740000000  0.4659410000000 1.0
C      1  0.4828340000000  0.4546390000000  0.5198590000000 1.0
C      1  0.5124510000000  0.5513790000000  0.4798270000000 1.0
C      1  0.5136960000000  0.4550860000000  0.5202020000000 1.0
C      1  0.5412540000000  0.5453990000000  0.5475290000000 1.0
C      1  0.5370920000000  0.4469670000000  0.4458010000000 1.0
C      1  0.4786840000000  0.5565150000000  0.5586070000000 1.0
C      1  0.4618400000000  0.4478240000000  0.4444360000000 1.0
C      1  0.4848210000000  0.5034560000000  0.4273980000000 1.0
C      1  0.4817580000000  0.4947960000000  0.5753510000000 1.0
C      1  0.5165950000000  0.5035800000000  0.4290070000000 1.0
C      1  0.5113080000000  0.4942580000000  0.5856010000000 1.0
C      1  0.5497120000000  0.4254930000000  0.4905650000000 1.0
C      1  0.5569410000000  0.5718930000000  0.5097920000000 1.0
C      1  0.4462800000000  0.4255510000000  0.4872920000000 1.0
C      1  0.4582530000000  0.5671040000000  0.5112430000000 1.0
C      1  0.4762500000000  0.5429240000000  0.5157120000000 1.0
C      1  0.4844730000000  0.4563490000000  0.4881570000000 1.0
C      1  0.5055930000000  0.5508630000000  0.5106020000000 1.0
C      1  0.5125490000000  0.4563980000000  0.4883740000000 1.0
C      1  0.5121880000000  0.4510900000000  0.4335300000000 1.0
C      1  0.5248190000000  0.5392110000000  0.5714300000000 1.0
C      1  0.4871610000000  0.4512160000000  0.4332270000000 1.0
C      1  0.5022110000000  0.5538950000000  0.5712220000000 1.0
C      1  0.5370770000000  0.4246820000000  0.4637880000000 1.0
C      1  0.5430780000000  0.5722880000000  0.5353190000000 1.0
C      1  0.4604500000000  0.4249910000000  0.4613790000000 1.0
C      1  0.4709080000000  0.5772320000000  0.5395900000000 1.0
C      1  0.5155230000000  0.5324720000000  0.4231300000000 1.0
C      1  0.5127260000000  0.4663790000000  0.5796560000000 1.0
C      1  0.4853700000000  0.5324950000000  0.4214430000000 1.0
C      1  0.4824580000000  0.4649540000000  0.5759570000000 1.0
C      1  0.5731750000000  0.5491780000000  0.5027180000000 1.0
C      1  0.5658070000000  0.4474210000000  0.4991280000000 1.0
C      1  0.4340810000000  0.5500110000000  0.5026700000000 1.0
C      1  0.4294000000000  0.4472980000000  0.4953550000000 1.0
C      1  0.5401750000000  0.4907930000000  0.5020150000000 1.0
C      1  0.5392830000000  0.5187600000000  0.5008930000000 1.0
C      1  0.4645470000000  0.4939540000000  0.5021260000000 1.0
C      1  0.4729650000000  0.5209810000000  0.4974630000000 1.0
C      1  0.4688400000000  0.5310140000000  0.5436260000000 1.0
C      1  0.4698230000000  0.4793510000000  0.4763400000000 1.0
C      1  0.5228200000000  0.5305850000000  0.5233620000000 1.0
C      1  0.5286370000000  0.4786920000000  0.4769390000000 1.0
C      1  0.4082220000000  0.4862280000000  0.4828830000000 1.0
C      1  0.4075120000000  0.5131540000000  0.5124610000000 1.0
C      1  0.5916020000000  0.4827090000000  0.4857650000000 1.0
C      1  0.5948660000000  0.5101290000000  0.5145540000000 1.0
C      1  0.5740850000000  0.4635810000000  0.4767700000000 1.0
C      1  0.5808780000000  0.5315510000000  0.5251490000000 1.0
C      1  0.4237810000000  0.4652490000000  0.4734540000000 1.0
C      1  0.4249360000000  0.5321220000000  0.5233730000000 1.0
C      1  0.5364730000000  0.4558190000000  0.5669420000000 1.0
C      1  0.5382020000000  0.5459010000000  0.4341620000000 1.0
C      1  0.4606490000000  0.4517850000000  0.5644100000000 1.0
C      1  0.4607000000000  0.5463370000000  0.4307830000000 1.0
C      1  0.5573730000000  0.4967440000000  0.4424380000000 1.0
C      1  0.5545300000000  0.5030710000000  0.5605710000000 1.0
C      1  0.4437290000000  0.4975270000000  0.4396170000000 1.0
C      1  0.4381450000000  0.4974350000000  0.5595990000000 1.0
C      1  0.5121090000000  0.3983900000000  0.4942520000000 1.0
C      1  0.5203240000000  0.6013460000000  0.5064200000000 1.0
C      1  0.4834420000000  0.3975420000000  0.4921250000000 1.0
C      1  0.4915960000000  0.5996770000000  0.5041350000000 1.0
C      1  0.5767690000000  0.5326880000000  0.4761910000000 1.0
C      1  0.5707330000000  0.4640820000000  0.5250970000000 1.0
C      1  0.4283330000000  0.5349940000000  0.4757860000000 1.0
C      1  0.4245210000000  0.4629560000000  0.5211840000000 1.0
C      1  0.5380070000000  0.5719040000000  0.4426400000000 1.0
C      1  0.5381790000000  0.4307480000000  0.5565600000000 1.0
C      1  0.4597060000000  0.5726400000000  0.4396500000000 1.0
C      1  0.4625620000000  0.4259520000000  0.5554480000000 1.0
C      1  0.4842240000000  0.4082720000000  0.4647230000000 1.0
C      1  0.4915700000000  0.5937360000000  0.5333910000000 1.0
C      1  0.5132980000000  0.4083300000000  0.4662090000000 1.0
C      1  0.5210640000000  0.5915060000000  0.5339630000000 1.0
C      1  0.4946300000000  0.5045190000000  0.5042490000000 1.0
END
