TITL C-21992-5696-1 -0.092136288646913 125000 -783.115600899298 0 0 108 (Cs) n - 1
REM
REM in /rds/project/t2_vol4/rds-t2-cs072/BORA/CARBON/from-Arr/AIRSS/Generating-Clusters/GAP-ML-2020/Higher-Symm/SD-CG/HFTN-CG
REM
REM
REM
REM
REM
REM ./C.cell (b20cbc046b6831c77cfcea5457e17084)
REM AIRSS Version 0.9.1 bugfix July 2018 build 013d7b7c2542+ Fri, 06 Jul 2018 19:26:36 +0100
REM compiler GCC version 9.3.0
REM options -cpp -mtune=generic -march=x86-64 -g -O0
REM seed 1825879058 1273471401 -2118388009 109125670 134075222 -388294469 1888876022 -1877940719 1504133981 -777005091 -2004951580 2042360787 644600928 -84278779 1402892869 -1079975694 -754094536 427633382 1395143252 27798199 -1646279097 1830255707 485376435 872518237 -1513130090 -512277322 803289264 -1387119255 -127620970 -655038019 -1620844609 1516234824 1294823316
REM
CELL 1.54180   50.00000   50.00000   50.00000   90.00000   90.00000   90.00000
LATT -1
SFAC C  
C      1  0.5778630000000  0.5267270000000  0.5353020000000 1.0
C      1  0.5789490000000  0.4530820000000  0.4993060000000 1.0
C      1  0.5770580000000  0.5166940000000  0.4660600000000 1.0
C      1  0.4219120000000  0.5267340000000  0.5347940000000 1.0
C      1  0.4210530000000  0.4530890000000  0.4987920000000 1.0
C      1  0.4231660000000  0.5167010000000  0.4655590000000 1.0
C      1  0.5801350000000  0.4751350000000  0.4828620000000 1.0
C      1  0.5830810000000  0.5019600000000  0.4911490000000 1.0
C      1  0.5785390000000  0.5036120000000  0.5196490000000 1.0
C      1  0.4199760000000  0.4751420000000  0.4823400000000 1.0
C      1  0.4169790000000  0.5019670000000  0.4906080000000 1.0
C      1  0.4213350000000  0.5036190000000  0.5191370000000 1.0
C      1  0.5556040000000  0.5637600000000  0.4745050000000 1.0
C      1  0.5557350000000  0.4943350000000  0.5632690000000 1.0
C      1  0.5556070000000  0.4425920000000  0.4591250000000 1.0
C      1  0.4445690000000  0.5637650000000  0.4741440000000 1.0
C      1  0.4438540000000  0.4943400000000  0.5629050000000 1.0
C      1  0.4446550000000  0.4425970000000  0.4587640000000 1.0
C      1  0.4861060000000  0.5654600000000  0.5680970000000 1.0
C      1  0.4862230000000  0.4097670000000  0.5220630000000 1.0
C      1  0.4864240000000  0.5262610000000  0.4134870000000 1.0
C      1  0.5134560000000  0.5654590000000  0.5681860000000 1.0
C      1  0.5136250000000  0.4097660000000  0.5221520000000 1.0
C      1  0.5141420000000  0.5262600000000  0.4135770000000 1.0
C      1  0.5606560000000  0.4820400000000  0.5344230000000 1.0
C      1  0.5613180000000  0.4724360000000  0.4602360000000 1.0
C      1  0.5554270000000  0.5550930000000  0.5017780000000 1.0
C      1  0.4391190000000  0.4820460000000  0.5340270000000 1.0
C      1  0.4389400000000  0.4724420000000  0.4598370000000 1.0
C      1  0.4445680000000  0.5550980000000  0.5014170000000 1.0
C      1  0.5147660000000  0.4760670000000  0.4177840000000 1.0
C      1  0.5143700000000  0.5862950000000  0.5218090000000 1.0
C      1  0.5142600000000  0.4400370000000  0.5623120000000 1.0
C      1  0.4857680000000  0.4760680000000  0.4176900000000 1.0
C      1  0.4854960000000  0.5862960000000  0.5217150000000 1.0
C      1  0.4853290000000  0.4400380000000  0.5622180000000 1.0
C      1  0.4306340000000  0.5533610000000  0.5264870000000 1.0
C      1  0.4304710000000  0.4535350000000  0.5257890000000 1.0
C      1  0.4306770000000  0.4973020000000  0.4451120000000 1.0
C      1  0.5691970000000  0.5533540000000  0.5269380000000 1.0
C      1  0.5693560000000  0.4535280000000  0.5262410000000 1.0
C      1  0.5696790000000  0.4972960000000  0.4455650000000 1.0
C      1  0.4854020000000  0.5040310000000  0.5303320000000 1.0
C      1  0.4848490000000  0.4648920000000  0.4850850000000 1.0
C      1  0.4849270000000  0.5289990000000  0.4820460000000 1.0
C      1  0.5144010000000  0.5040290000000  0.5304270000000 1.0
C      1  0.5152440000000  0.4648910000000  0.4851840000000 1.0
C      1  0.5151920000000  0.5289980000000  0.4821450000000 1.0
C      1  0.5518670000000  0.4177400000000  0.5020130000000 1.0
C      1  0.5528460000000  0.5379400000000  0.4332270000000 1.0
C      1  0.5520890000000  0.5433700000000  0.5690110000000 1.0
C      1  0.4481140000000  0.4177440000000  0.5016750000000 1.0
C      1  0.4475930000000  0.5379450000000  0.4328840000000 1.0
C      1  0.4474670000000  0.5433750000000  0.5686700000000 1.0
C      1  0.4856310000000  0.5679740000000  0.4444910000000 1.0
C      1  0.4851930000000  0.5154910000000  0.5842410000000 1.0
C      1  0.4857910000000  0.4157320000000  0.4696520000000 1.0
C      1  0.5147370000000  0.5679730000000  0.4445860000000 1.0
C      1  0.5142600000000  0.5154900000000  0.5843360000000 1.0
C      1  0.5143980000000  0.4157310000000  0.4697450000000 1.0
C      1  0.5661170000000  0.5430000000000  0.4579920000000 1.0
C      1  0.5661780000000  0.5201130000000  0.5610990000000 1.0
C      1  0.5660430000000  0.4327700000000  0.4832470000000 1.0
C      1  0.4341620000000  0.5430060000000  0.4575620000000 1.0
C      1  0.4334270000000  0.5201190000000  0.5606670000000 1.0
C      1  0.4340620000000  0.4327760000000  0.4828170000000 1.0
C      1  0.4858280000000  0.4494430000000  0.4321720000000 1.0
C      1  0.4856850000000  0.5859080000000  0.4910530000000 1.0
C      1  0.4852220000000  0.4670140000000  0.5755370000000 1.0
C      1  0.5146090000000  0.4494410000000  0.4322660000000 1.0
C      1  0.5143810000000  0.5859060000000  0.4911460000000 1.0
C      1  0.5142820000000  0.4670120000000  0.5756320000000 1.0
C      1  0.5306970000000  0.4829210000000  0.4714700000000 1.0
C      1  0.5302630000000  0.5383650000000  0.5037650000000 1.0
C      1  0.5305880000000  0.4827950000000  0.5253510000000 1.0
C      1  0.4694880000000  0.4829240000000  0.4712710000000 1.0
C      1  0.4697160000000  0.5383670000000  0.5035680000000 1.0
C      1  0.4692460000000  0.4827980000000  0.5251510000000 1.0
C      1  0.5285540000000  0.5775360000000  0.5458280000000 1.0
C      1  0.5290700000000  0.4242570000000  0.5429730000000 1.0
C      1  0.5292600000000  0.5010930000000  0.4143350000000 1.0
C      1  0.4711560000000  0.5775380000000  0.5456410000000 1.0
C      1  0.4706440000000  0.4242600000000  0.5427820000000 1.0
C      1  0.4712980000000  0.5010950000000  0.4141460000000 1.0
C      1  0.4847240000000  0.4633380000000  0.5131480000000 1.0
C      1  0.4845100000000  0.5050890000000  0.4674740000000 1.0
C      1  0.4834450000000  0.5317140000000  0.5265330000000 1.0
C      1  0.5151870000000  0.4633360000000  0.5132470000000 1.0
C      1  0.5157020000000  0.5050880000000  0.4675750000000 1.0
C      1  0.5163850000000  0.5317120000000  0.5266410000000 1.0
C      1  0.5535130000000  0.5633400000000  0.5483030000000 1.0
C      1  0.5534140000000  0.4300960000000  0.5285130000000 1.0
C      1  0.5541890000000  0.5099200000000  0.4258640000000 1.0
C      1  0.4461800000000  0.5633450000000  0.5479540000000 1.0
C      1  0.4463950000000  0.4301010000000  0.5281640000000 1.0
C      1  0.4462950000000  0.5099250000000  0.4255120000000 1.0
C      1  0.4733420000000  0.5415310000000  0.5792620000000 1.0
C      1  0.4740530000000  0.4092270000000  0.4956340000000 1.0
C      1  0.4732220000000  0.5483250000000  0.4270460000000 1.0
C      1  0.5261460000000  0.5415290000000  0.5794340000000 1.0
C      1  0.5259670000000  0.4092250000000  0.4958030000000 1.0
C      1  0.5272570000000  0.5483230000000  0.4272220000000 1.0
C      1  0.5302830000000  0.4910570000000  0.5780650000000 1.0
C      1  0.5299380000000  0.4326380000000  0.4501830000000 1.0
C      1  0.5298970000000  0.5767400000000  0.4681660000000 1.0
C      1  0.4692090000000  0.4910590000000  0.5778660000000 1.0
C      1  0.4703810000000  0.4326400000000  0.4499900000000 1.0
C      1  0.4703180000000  0.5767420000000  0.4679720000000 1.0
END
