TITL C-21985-5626-4 -0.0149356191622147 125000 -178.190259097676 0 0 28 (C1) n - 1
REM
REM in /rds/project/t2_vol4/rds-t2-cs072/BORA/CARBON/from-Arr/AIRSS/Generating-Clusters/GAP-ML-2020/Higher-Symm/SD-CG/HFTN-CG
REM
REM
REM
REM
REM
REM ./C.cell (b20cbc046b6831c77cfcea5457e17084)
REM AIRSS Version 0.9.1 bugfix July 2018 build 013d7b7c2542+ Fri, 06 Jul 2018 19:26:36 +0100
REM compiler GCC version 9.3.0
REM options -cpp -mtune=generic -march=x86-64 -g -O0
REM seed 1080234913 -683957497 -2028920471 -1833411460 600668778 -1369539614 -932969996 804857014 -1229569102 -2147233217 -637915449 331336248 -1063584873 -157989350 603535798 -1884630037 -950035636 -1790027376 -740492481 -1647415340 699284212 731223962 -487733049 -668665501 2046533017 -1577421833 1941805052 -481310178 892878424 352959141 1293113206 -861435580 -1161267734
REM
CELL 1.54180   50.00000   50.00000   50.00000   90.00000   90.00000   90.00000
LATT -1
SFAC C  
C      1  0.4655080000000  0.5031710000000  0.4538220000000 1.0
C      1  0.4719820000000  0.5343360000000  0.5323660000000 1.0
C      1  0.4603840000000  0.4612830000000  0.5174300000000 1.0
C      1  0.5300880000000  0.4742620000000  0.5096400000000 1.0
C      1  0.5297860000000  0.5148280000000  0.4767880000000 1.0
C      1  0.5450140000000  0.5263360000000  0.5314270000000 1.0
C      1  0.4898110000000  0.4903970000000  0.5211610000000 1.0
C      1  0.4941750000000  0.4797150000000  0.4763990000000 1.0
C      1  0.4887400000000  0.5254370000000  0.4943530000000 1.0
C      1  0.5539820000000  0.4820100000000  0.5156490000000 1.0
C      1  0.5538460000000  0.5194700000000  0.4853760000000 1.0
C      1  0.5563120000000  0.5100530000000  0.5118870000000 1.0
C      1  0.4892420000000  0.5350450000000  0.4673990000000 1.0
C      1  0.4978890000000  0.5076780000000  0.5424880000000 1.0
C      1  0.4938470000000  0.4532040000000  0.4880210000000 1.0
C      1  0.4653530000000  0.4880110000000  0.4779550000000 1.0
C      1  0.4632710000000  0.5182430000000  0.5087270000000 1.0
C      1  0.4616860000000  0.4906300000000  0.5065200000000 1.0
C      1  0.4650320000000  0.5309730000000  0.4534850000000 1.0
C      1  0.4776920000000  0.5218810000000  0.5561060000000 1.0
C      1  0.4678490000000  0.4450680000000  0.4956610000000 1.0
C      1  0.5096010000000  0.4541980000000  0.5122800000000 1.0
C      1  0.5102780000000  0.5177510000000  0.4560900000000 1.0
C      1  0.5185110000000  0.5257690000000  0.5305560000000 1.0
C      1  0.4948350000000  0.4939180000000  0.4507260000000 1.0
C      1  0.4972260000000  0.5408620000000  0.5170840000000 1.0
C      1  0.4878330000000  0.4627280000000  0.5287880000000 1.0
C      1  0.5072910000000  0.4974550000000  0.4965010000000 1.0
END
