TITL C-215432-2796-1 -181.966271650143 125000 -1232.86887065363 0 0 177 (C2) n - 1
REM
REM in /rds/project/t2_vol4/rds-t2-cs072/BORA/CARBON/from-Arr/AIRSS/Generating-Clusters/GAP-ML-2020/Higher-Symm/SD-CG/HFTN-CG/C160-200
REM
REM
REM
REM
REM
REM ./C.cell (6b4489405718ea1b717e0baf1da4c2d9)
REM AIRSS Version 0.9.1 bugfix July 2018 build 013d7b7c2542+ Fri, 06 Jul 2018 19:26:36 +0100
REM compiler GCC version 9.3.0
REM options -cpp -mtune=generic -march=x86-64 -g -O0
REM seed -1725033908 -116204110 1911363503 535269095 18830775 -1382804037 1510995071 1678898308 1630455208 252966195 -1811442546 -1393432228 -1784194617 -1020162716 -699208683 -1687916964 1990032546 1193590878 -2057636982 1927113331 -1173886639 482227482 281806614 -14304291 873584955 1200093572 -411648959 766564664 572521486 594042927 1718104887 2032346311 -87421869
REM
CELL 1.54180   50.00000   50.00000   50.00000   90.00000   90.00000   90.00000
LATT -1
SFAC C  
C      1  0.4483510000000  0.4501480000000  0.5706590000000 1.0
C      1  0.4483360000000  0.5502090000000  0.4289260000000 1.0
C      1  0.4483770000000  0.4498990000000  0.4291430000000 1.0
C      1  0.4483840000000  0.5504580000000  0.5704410000000 1.0
C      1  0.5489810000000  0.4736890000000  0.4838130000000 1.0
C      1  0.5489810000000  0.5266770000000  0.5157550000000 1.0
C      1  0.5488580000000  0.4730320000000  0.5153240000000 1.0
C      1  0.5488530000000  0.5273330000000  0.4842450000000 1.0
C      1  0.4932430000000  0.5509790000000  0.3739810000000 1.0
C      1  0.4932670000000  0.4493820000000  0.6255970000000 1.0
C      1  0.4938080000000  0.5513680000000  0.6248170000000 1.0
C      1  0.4937930000000  0.4489930000000  0.3747610000000 1.0
C      1  0.4905940000000  0.3897470000000  0.4867550000000 1.0
C      1  0.4905860000000  0.6106140000000  0.5128230000000 1.0
C      1  0.4898880000000  0.3888520000000  0.5158970000000 1.0
C      1  0.4898760000000  0.6115090000000  0.4836810000000 1.0
C      1  0.4266120000000  0.4479240000000  0.4462720000000 1.0
C      1  0.4266160000000  0.5524310000000  0.5533160000000 1.0
C      1  0.4265200000000  0.4482200000000  0.5535800000000 1.0
C      1  0.4265070000000  0.5521350000000  0.4460080000000 1.0
C      1  0.4603590000000  0.5223490000000  0.5130840000000 1.0
C      1  0.4603590000000  0.4780090000000  0.4864980000000 1.0
C      1  0.4604320000000  0.5224990000000  0.4863200000000 1.0
C      1  0.4604360000000  0.4778590000000  0.5132630000000 1.0
C      1  0.5084560000000  0.5642370000000  0.3900760000000 1.0
C      1  0.5084780000000  0.4361250000000  0.6094990000000 1.0
C      1  0.5090640000000  0.5645140000000  0.6086600000000 1.0
C      1  0.5090530000000  0.4358480000000  0.3909150000000 1.0
C      1  0.5982750000000  0.5148100000000  0.4855960000000 1.0
C      1  0.5982790000000  0.4855600000000  0.5139640000000 1.0
C      1  0.5982130000000  0.5143780000000  0.5141390000000 1.0
C      1  0.5982120000000  0.4859920000000  0.4854220000000 1.0
C      1  0.5423680000000  0.5429060000000  0.4167690000000 1.0
C      1  0.5423850000000  0.4574600000000  0.5828010000000 1.0
C      1  0.5428750000000  0.5420580000000  0.5825750000000 1.0
C      1  0.5428660000000  0.4583080000000  0.4169950000000 1.0
C      1  0.4587060000000  0.5143440000000  0.3877030000000 1.0
C      1  0.4587250000000  0.4860140000000  0.6118800000000 1.0
C      1  0.4588360000000  0.5148430000000  0.6117390000000 1.0
C      1  0.4588200000000  0.4855140000000  0.3878440000000 1.0
C      1  0.4864790000000  0.4202950000000  0.4456060000000 1.0
C      1  0.4864810000000  0.5800650000000  0.5539730000000 1.0
C      1  0.4860340000000  0.4200160000000  0.5549680000000 1.0
C      1  0.4860180000000  0.5803440000000  0.4446100000000 1.0
C      1  0.4449450000000  0.5258270000000  0.5871100000000 1.0
C      1  0.4449330000000  0.4745300000000  0.4124750000000 1.0
C      1  0.4448460000000  0.5255300000000  0.4122700000000 1.0
C      1  0.4448610000000  0.4748270000000  0.5873150000000 1.0
C      1  0.5022800000000  0.5157560000000  0.5927010000000 1.0
C      1  0.5022670000000  0.4846060000000  0.4068750000000 1.0
C      1  0.5021360000000  0.5159220000000  0.4066350000000 1.0
C      1  0.5021520000000  0.4844390000000  0.5929420000000 1.0
C      1  0.4193710000000  0.5142680000000  0.5795070000000 1.0
C      1  0.4193590000000  0.4860860000000  0.4200820000000 1.0
C      1  0.4193570000000  0.5138760000000  0.4200330000000 1.0
C      1  0.4193710000000  0.4864780000000  0.5795560000000 1.0
C      1  0.5507380000000  0.5563980000000  0.5159090000000 1.0
C      1  0.5507400000000  0.4439680000000  0.4836590000000 1.0
C      1  0.5504760000000  0.5570690000000  0.4864690000000 1.0
C      1  0.5504820000000  0.4432970000000  0.5130990000000 1.0
C      1  0.5817180000000  0.5280900000000  0.5567080000000 1.0
C      1  0.5817120000000  0.4722780000000  0.4428550000000 1.0
C      1  0.5813880000000  0.5288380000000  0.4429080000000 1.0
C      1  0.5813990000000  0.4715310000000  0.5566560000000 1.0
C      1  0.5326840000000  0.5150350000000  0.5907690000000 1.0
C      1  0.5326710000000  0.4853290000000  0.4088020000000 1.0
C      1  0.5324840000000  0.5156890000000  0.4085890000000 1.0
C      1  0.5324990000000  0.4846760000000  0.5909820000000 1.0
C      1  0.4298290000000  0.5675740000000  0.5294100000000 1.0
C      1  0.4298300000000  0.4327810000000  0.4701780000000 1.0
C      1  0.4296180000000  0.5673850000000  0.4697760000000 1.0
C      1  0.4296280000000  0.4329700000000  0.5298110000000 1.0
C      1  0.4736210000000  0.5474990000000  0.4742810000000 1.0
C      1  0.4736290000000  0.4528600000000  0.5253000000000 1.0
C      1  0.4735070000000  0.5472470000000  0.5253580000000 1.0
C      1  0.4735070000000  0.4531120000000  0.4742230000000 1.0
C      1  0.4850110000000  0.5268170000000  0.6155950000000 1.0
C      1  0.4849950000000  0.4735430000000  0.3839840000000 1.0
C      1  0.4847280000000  0.5264950000000  0.3835990000000 1.0
C      1  0.4847490000000  0.4738650000000  0.6159800000000 1.0
C      1  0.4751640000000  0.5922120000000  0.4686560000000 1.0
C      1  0.4751760000000  0.4081470000000  0.5309240000000 1.0
C      1  0.4763880000000  0.5919360000000  0.5294890000000 1.0
C      1  0.4763910000000  0.4084240000000  0.4700910000000 1.0
C      1  0.5046670000000  0.4514340000000  0.4838840000000 1.0
C      1  0.5046650000000  0.5489280000000  0.5156920000000 1.0
C      1  0.5047380000000  0.4506690000000  0.5142030000000 1.0
C      1  0.5047320000000  0.5496930000000  0.4853730000000 1.0
C      1  0.5134580000000  0.4189750000000  0.4368310000000 1.0
C      1  0.5134610000000  0.5813890000000  0.5627440000000 1.0
C      1  0.5123880000000  0.4170240000000  0.5643950000000 1.0
C      1  0.5123710000000  0.5833380000000  0.4351790000000 1.0
C      1  0.3982750000000  0.4858270000000  0.5356980000000 1.0
C      1  0.3982680000000  0.5145260000000  0.4638940000000 1.0
C      1  0.3982980000000  0.4856220000000  0.4639470000000 1.0
C      1  0.3983030000000  0.5147310000000  0.5356450000000 1.0
C      1  0.5690680000000  0.4265500000000  0.5512470000000 1.0
C      1  0.5690540000000  0.5738170000000  0.4483180000000 1.0
C      1  0.5695370000000  0.4265120000000  0.4469930000000 1.0
C      1  0.5695390000000  0.5738550000000  0.5525720000000 1.0
C      1  0.5565380000000  0.5983290000000  0.4590350000000 1.0
C      1  0.5565520000000  0.4020370000000  0.5405320000000 1.0
C      1  0.5571690000000  0.5980970000000  0.5407110000000 1.0
C      1  0.5571710000000  0.4022690000000  0.4588560000000 1.0
C      1  0.4571040000000  0.4274660000000  0.5163760000000 1.0
C      1  0.4570950000000  0.5728920000000  0.4832070000000 1.0
C      1  0.4572610000000  0.4274960000000  0.4837410000000 1.0
C      1  0.4572570000000  0.5728610000000  0.5158420000000 1.0
C      1  0.4899220000000  0.5268760000000  0.4337930000000 1.0
C      1  0.4899340000000  0.4734850000000  0.5657850000000 1.0
C      1  0.4899340000000  0.5265470000000  0.5655120000000 1.0
C      1  0.4899260000000  0.4738140000000  0.4340660000000 1.0
C      1  0.4085830000000  0.4412640000000  0.5142420000000 1.0
C      1  0.4085760000000  0.5590890000000  0.4853490000000 1.0
C      1  0.4086740000000  0.4411610000000  0.4856190000000 1.0
C      1  0.4086710000000  0.5591930000000  0.5139720000000 1.0
C      1  0.5731770000000  0.5152560000000  0.5311850000000 1.0
C      1  0.5731740000000  0.4851120000000  0.4683800000000 1.0
C      1  0.5732240000000  0.5163230000000  0.4685710000000 1.0
C      1  0.5732300000000  0.4840450000000  0.5309940000000 1.0
C      1  0.5231120000000  0.5650400000000  0.5850680000000 1.0
C      1  0.5231040000000  0.4353240000000  0.4145050000000 1.0
C      1  0.5222960000000  0.5657220000000  0.4137320000000 1.0
C      1  0.5223150000000  0.4346410000000  0.5858400000000 1.0
C      1  0.5187510000000  0.5225820000000  0.5217100000000 1.0
C      1  0.5187500000000  0.4777810000000  0.4778630000000 1.0
C      1  0.5187030000000  0.5232970000000  0.4778570000000 1.0
C      1  0.5187080000000  0.4770660000000  0.5217160000000 1.0
C      1  0.4101380000000  0.4720270000000  0.5573730000000 1.0
C      1  0.4101260000000  0.5283270000000  0.4422170000000 1.0
C      1  0.4101880000000  0.4717060000000  0.4423620000000 1.0
C      1  0.4101950000000  0.5286480000000  0.5572290000000 1.0
C      1  0.5113760000000  0.6167850000000  0.4681130000000 1.0
C      1  0.5113910000000  0.3835770000000  0.5314610000000 1.0
C      1  0.5120560000000  0.6134470000000  0.5282620000000 1.0
C      1  0.5120620000000  0.3869160000000  0.4713130000000 1.0
C      1  0.4638240000000  0.5135220000000  0.5666210000000 1.0
C      1  0.4638150000000  0.4868360000000  0.4329610000000 1.0
C      1  0.4638550000000  0.5135900000000  0.4326700000000 1.0
C      1  0.4638670000000  0.4867680000000  0.5669120000000 1.0
C      1  0.5685660000000  0.5978190000000  0.4859360000000 1.0
C      1  0.5685770000000  0.4025480000000  0.5136290000000 1.0
C      1  0.5695930000000  0.5981190000000  0.5140220000000 1.0
C      1  0.5696000000000  0.4022480000000  0.4855440000000 1.0
C      1  0.5749020000000  0.4298020000000  0.5231910000000 1.0
C      1  0.5748930000000  0.5705670000000  0.4763740000000 1.0
C      1  0.5751810000000  0.4295070000000  0.4749260000000 1.0
C      1  0.5751790000000  0.5708610000000  0.5246380000000 1.0
C      1  0.5660380000000  0.5499600000000  0.5675330000000 1.0
C      1  0.5660320000000  0.4504070000000  0.4320330000000 1.0
C      1  0.5654480000000  0.5505900000000  0.4322380000000 1.0
C      1  0.5654630000000  0.4497770000000  0.5673280000000 1.0
C      1  0.5283830000000  0.5956150000000  0.5420110000000 1.0
C      1  0.5283850000000  0.4047480000000  0.4575610000000 1.0
C      1  0.5275480000000  0.5962470000000  0.4569640000000 1.0
C      1  0.5275630000000  0.4041170000000  0.5426080000000 1.0
C      1  0.5259150000000  0.5654290000000  0.5283030000000 1.0
C      1  0.5259160000000  0.4349350000000  0.4712690000000 1.0
C      1  0.5253970000000  0.5680500000000  0.4769780000000 1.0
C      1  0.5254060000000  0.4323140000000  0.5225940000000 1.0
C      1  0.5083620000000  0.4868460000000  0.4524500000000 1.0
C      1  0.5083690000000  0.5135160000000  0.5471250000000 1.0
C      1  0.5083380000000  0.4861390000000  0.5471340000000 1.0
C      1  0.5083290000000  0.5142240000000  0.4524410000000 1.0
C      1  0.6017770000000  0.4879320000000  0.4310440000000 1.0
C      1  0.6017870000000  0.5124380000000  0.5685160000000 1.0
C      1  0.6015600000000  0.4870160000000  0.5685420000000 1.0
C      1  0.6015490000000  0.5133550000000  0.4310180000000 1.0
C      1  0.3968800000000  0.5323310000000  0.5140810000000 1.0
C      1  0.3968810000000  0.4680220000000  0.4855120000000 1.0
C      1  0.3968230000000  0.5322300000000  0.4853900000000 1.0
C      1  0.3968280000000  0.4681230000000  0.5142030000000 1.0
C      1  0.4749280000000  0.4471930000000  0.5566300000000 1.0
C      1  0.4749150000000  0.5531660000000  0.4429500000000 1.0
C      1  0.4748060000000  0.4471440000000  0.4431770000000 1.0
C      1  0.4748110000000  0.5532160000000  0.5564040000000 1.0
C      1  0.5120230000000  0.5001810000000  0.4997870000000 1.0
END
