TITL C-21977-5543-4 -56.4259098611465 125000 -729.637836602027 0 0 102 (C3) n - 1
REM
REM in /rds/project/t2_vol4/rds-t2-cs072/BORA/CARBON/from-Arr/AIRSS/Generating-Clusters/GAP-ML-2020/Higher-Symm/SD-CG/HFTN-CG
REM
REM
REM
REM
REM
REM ./C.cell (b20cbc046b6831c77cfcea5457e17084)
REM AIRSS Version 0.9.1 bugfix July 2018 build 013d7b7c2542+ Fri, 06 Jul 2018 19:26:36 +0100
REM compiler GCC version 9.3.0
REM options -cpp -mtune=generic -march=x86-64 -g -O0
REM seed -2014361003 -1076585546 -966958836 1626392899 296773489 -1911392869 1439693329 341238726 724695269 -2046213823 1229868785 -1836073521 1272273412 1614128420 -715708549 -1678932832 1879789003 406292760 1497533834 1839955148 -1531545868 261335185 -1101754016 -630105838 -509126318 -1119093641 1227621908 384344453 -378617174 -335371684 -1615482344 1241572723 1660212344
REM
CELL 1.54180   50.00000   50.00000   50.00000   90.00000   90.00000   90.00000
LATT -1
SFAC C  
C      1  0.4321010000000  0.4531620000000  0.5105110000000 1.0
C      1  0.4942520000000  0.5817380000000  0.5141580000000 1.0
C      1  0.5745200000000  0.4637790000000  0.5070330000000 1.0
C      1  0.4716710000000  0.4966370000000  0.4859040000000 1.0
C      1  0.5101410000000  0.5267670000000  0.4861000000000 1.0
C      1  0.5169740000000  0.4784330000000  0.4838980000000 1.0
C      1  0.5135580000000  0.4215470000000  0.5109280000000 1.0
C      1  0.4263570000000  0.5268510000000  0.5177160000000 1.0
C      1  0.5612850000000  0.5497850000000  0.5149580000000 1.0
C      1  0.5515640000000  0.5088240000000  0.4248730000000 1.0
C      1  0.4760920000000  0.4538180000000  0.4246580000000 1.0
C      1  0.4662430000000  0.5465950000000  0.4287950000000 1.0
C      1  0.4827310000000  0.5750780000000  0.5397880000000 1.0
C      1  0.5764970000000  0.4760890000000  0.5330820000000 1.0
C      1  0.4437520000000  0.4443210000000  0.5354120000000 1.0
C      1  0.4689840000000  0.5698000000000  0.4703190000000 1.0
C      1  0.5734350000000  0.4933060000000  0.4642570000000 1.0
C      1  0.4548270000000  0.4410640000000  0.4653440000000 1.0
C      1  0.4617530000000  0.4619570000000  0.5765420000000 1.0
C      1  0.4921510000000  0.5491210000000  0.5793370000000 1.0
C      1  0.5524450000000  0.4793120000000  0.5747690000000 1.0
C      1  0.4900950000000  0.4751540000000  0.5253010000000 1.0
C      1  0.4854470000000  0.5199680000000  0.5272960000000 1.0
C      1  0.5266050000000  0.5016290000000  0.5253990000000 1.0
C      1  0.5489730000000  0.4480800000000  0.4559880000000 1.0
C      1  0.4273510000000  0.4850790000000  0.4608770000000 1.0
C      1  0.5203400000000  0.5718920000000  0.4619350000000 1.0
C      1  0.5548090000000  0.5511060000000  0.4869070000000 1.0
C      1  0.5157630000000  0.4275830000000  0.4828350000000 1.0
C      1  0.4282980000000  0.5230200000000  0.4892190000000 1.0
C      1  0.5810750000000  0.5022510000000  0.5193560000000 1.0
C      1  0.4629920000000  0.4278700000000  0.5195070000000 1.0
C      1  0.4577030000000  0.5671990000000  0.5254580000000 1.0
C      1  0.4407810000000  0.4621000000000  0.5577420000000 1.0
C      1  0.5012850000000  0.5679490000000  0.5604870000000 1.0
C      1  0.5626860000000  0.4627570000000  0.5544140000000 1.0
C      1  0.5654030000000  0.5170350000000  0.4491530000000 1.0
C      1  0.4781510000000  0.4368040000000  0.4482120000000 1.0
C      1  0.4523480000000  0.5523660000000  0.4537370000000 1.0
C      1  0.5206400000000  0.5735510000000  0.5100850000000 1.0
C      1  0.5539740000000  0.4451390000000  0.5038160000000 1.0
C      1  0.4260110000000  0.4803640000000  0.5088060000000 1.0
C      1  0.5049400000000  0.4288440000000  0.4558200000000 1.0
C      1  0.4327000000000  0.5328140000000  0.4621410000000 1.0
C      1  0.5589760000000  0.5434640000000  0.4591090000000 1.0
C      1  0.5085470000000  0.4885950000000  0.4580350000000 1.0
C      1  0.4826500000000  0.4998830000000  0.4592180000000 1.0
C      1  0.5054050000000  0.5166660000000  0.4592910000000 1.0
C      1  0.5638380000000  0.5289090000000  0.5578210000000 1.0
C      1  0.4975730000000  0.4280660000000  0.5554430000000 1.0
C      1  0.4433960000000  0.5357470000000  0.5614210000000 1.0
C      1  0.5393860000000  0.4308920000000  0.5228740000000 1.0
C      1  0.4224620000000  0.4993580000000  0.5289450000000 1.0
C      1  0.5403620000000  0.5664030000000  0.5284930000000 1.0
C      1  0.5217990000000  0.5496630000000  0.4237400000000 1.0
C      1  0.5261070000000  0.4593450000000  0.4198580000000 1.0
C      1  0.4456920000000  0.5006850000000  0.4237940000000 1.0
C      1  0.4615230000000  0.5225080000000  0.4138520000000 1.0
C      1  0.5319720000000  0.5254720000000  0.4120370000000 1.0
C      1  0.4992460000000  0.4630120000000  0.4103350000000 1.0
C      1  0.4297960000000  0.5084430000000  0.4451690000000 1.0
C      1  0.5380770000000  0.5587570000000  0.4442850000000 1.0
C      1  0.5274230000000  0.4399220000000  0.4396270000000 1.0
C      1  0.4402930000000  0.4620760000000  0.4504660000000 1.0
C      1  0.4932230000000  0.5725180000000  0.4536110000000 1.0
C      1  0.5623980000000  0.4715900000000  0.4475010000000 1.0
C      1  0.5468890000000  0.5486490000000  0.5656590000000 1.0
C      1  0.5236740000000  0.4326340000000  0.5614630000000 1.0
C      1  0.4347840000000  0.5106210000000  0.5671600000000 1.0
C      1  0.5251710000000  0.5572640000000  0.4868920000000 1.0
C      1  0.5358630000000  0.4502080000000  0.4821370000000 1.0
C      1  0.4377480000000  0.4943740000000  0.4866780000000 1.0
C      1  0.4743060000000  0.4957700000000  0.5356930000000 1.0
C      1  0.5119230000000  0.5229960000000  0.5357920000000 1.0
C      1  0.5166670000000  0.4768490000000  0.5337390000000 1.0
C      1  0.5536790000000  0.5085140000000  0.5753540000000 1.0
C      1  0.4863900000000  0.4463400000000  0.5746160000000 1.0
C      1  0.4662300000000  0.5356100000000  0.5788900000000 1.0
C      1  0.4837330000000  0.5131460000000  0.3998860000000 1.0
C      1  0.5117320000000  0.5114180000000  0.3990430000000 1.0
C      1  0.4962070000000  0.4880440000000  0.3984960000000 1.0
C      1  0.5740990000000  0.5281230000000  0.5301460000000 1.0
C      1  0.4896390000000  0.4206310000000  0.5279910000000 1.0
C      1  0.4388170000000  0.5473790000000  0.5346710000000 1.0
C      1  0.4279910000000  0.4881350000000  0.5542800000000 1.0
C      1  0.5298720000000  0.5662170000000  0.5547290000000 1.0
C      1  0.5464850000000  0.4390650000000  0.5489740000000 1.0
C      1  0.5281930000000  0.5091540000000  0.5899110000000 1.0
C      1  0.5007810000000  0.4675480000000  0.5889320000000 1.0
C      1  0.4784640000000  0.5120370000000  0.5914000000000 1.0
C      1  0.5481730000000  0.4799850000000  0.4247590000000 1.0
C      1  0.4528800000000  0.4711060000000  0.4270120000000 1.0
C      1  0.4929280000000  0.5580220000000  0.4295320000000 1.0
C      1  0.5263120000000  0.5032060000000  0.4970250000000 1.0
C      1  0.4894120000000  0.4757170000000  0.4968950000000 1.0
C      1  0.4840800000000  0.5213750000000  0.4989440000000 1.0
C      1  0.4500970000000  0.4366930000000  0.4938300000000 1.0
C      1  0.4697700000000  0.5749760000000  0.4990510000000 1.0
C      1  0.5797290000000  0.4889420000000  0.4924400000000 1.0
C      1  0.5047550000000  0.5251360000000  0.5912010000000 1.0
C      1  0.5263690000000  0.4798620000000  0.5887200000000 1.0
C      1  0.4763130000000  0.4837450000000  0.5902590000000 1.0
END
