TITL C-21832-7473-2 0.0955945128876201 125000 -526.622391454841 0 0 75 (C1) n - 1
REM
REM in /rds/project/t2_vol4/rds-t2-cs072/BORA/CARBON/from-Arr/AIRSS/Generating-Clusters/GAP-ML-2020/Higher-Symm/SD-CG/HFTN-CG
REM
REM
REM
REM
REM
REM ./C.cell (b20cbc046b6831c77cfcea5457e17084)
REM AIRSS Version 0.9.1 bugfix July 2018 build 013d7b7c2542+ Fri, 06 Jul 2018 19:26:36 +0100
REM compiler GCC version 9.3.0
REM options -cpp -mtune=generic -march=x86-64 -g -O0
REM seed 1396502894 375825304 1472309025 -17181366 1117570851 -659231406 -506248860 1112371861 1740623908 -1323555201 1979949073 -62075286 1368826764 1246868512 -1143925610 -1372908922 1332098972 -730341986 -1686339125 972558964 555800774 -1683823706 -1264763534 1430414289 -1444053448 -275519123 1086221643 904418985 1278976739 201283828 1768965990 1228359568 1194020260
REM
CELL 1.54180   50.00000   50.00000   50.00000   90.00000   90.00000   90.00000
LATT -1
SFAC C  
C      1  0.4485230000000  0.5123360000000  0.5649010000000 1.0
C      1  0.4802000000000  0.5085310000000  0.4778870000000 1.0
C      1  0.4784530000000  0.5051110000000  0.5035440000000 1.0
C      1  0.5378580000000  0.5180960000000  0.5001510000000 1.0
C      1  0.5559980000000  0.5400930000000  0.4642830000000 1.0
C      1  0.5291830000000  0.4892640000000  0.4955380000000 1.0
C      1  0.5322170000000  0.5206100000000  0.5722090000000 1.0
C      1  0.5267220000000  0.5421160000000  0.4237560000000 1.0
C      1  0.5323480000000  0.4254550000000  0.4930620000000 1.0
C      1  0.4712310000000  0.5272070000000  0.5738750000000 1.0
C      1  0.4613010000000  0.5410580000000  0.4341510000000 1.0
C      1  0.4726900000000  0.4303650000000  0.4989140000000 1.0
C      1  0.5657140000000  0.4909420000000  0.4741920000000 1.0
C      1  0.5619140000000  0.4798090000000  0.5289260000000 1.0
C      1  0.5660560000000  0.5242610000000  0.5123220000000 1.0
C      1  0.4340690000000  0.4863290000000  0.4723700000000 1.0
C      1  0.4290610000000  0.4846320000000  0.5211740000000 1.0
C      1  0.4353410000000  0.5296450000000  0.4980250000000 1.0
C      1  0.4793670000000  0.4316950000000  0.5279730000000 1.0
C      1  0.4760240000000  0.5478670000000  0.5541020000000 1.0
C      1  0.4705510000000  0.5155720000000  0.4203200000000 1.0
C      1  0.5261000000000  0.4232490000000  0.5218250000000 1.0
C      1  0.5243920000000  0.5468780000000  0.5601830000000 1.0
C      1  0.5205070000000  0.5133900000000  0.4198670000000 1.0
C      1  0.4930940000000  0.4930740000000  0.4575790000000 1.0
C      1  0.4938870000000  0.4951080000000  0.5213100000000 1.0
C      1  0.5041150000000  0.5580600000000  0.5155720000000 1.0
C      1  0.5173380000000  0.4829560000000  0.4696240000000 1.0
C      1  0.5080050000000  0.4768990000000  0.5083670000000 1.0
C      1  0.5304010000000  0.5490750000000  0.5035310000000 1.0
C      1  0.5546330000000  0.4439890000000  0.4994490000000 1.0
C      1  0.5572440000000  0.5213740000000  0.5574940000000 1.0
C      1  0.5511740000000  0.5335700000000  0.4374070000000 1.0
C      1  0.4489140000000  0.4471090000000  0.5031260000000 1.0
C      1  0.4366160000000  0.5260410000000  0.5437180000000 1.0
C      1  0.4395540000000  0.5253730000000  0.4464540000000 1.0
C      1  0.5167290000000  0.4418080000000  0.4496690000000 1.0
C      1  0.5075630000000  0.4719860000000  0.5750310000000 1.0
C      1  0.5158130000000  0.5685090000000  0.4628100000000 1.0
C      1  0.4870380000000  0.4441620000000  0.4522560000000 1.0
C      1  0.4789690000000  0.4805190000000  0.5789580000000 1.0
C      1  0.4880760000000  0.5671760000000  0.4718100000000 1.0
C      1  0.5567400000000  0.4742210000000  0.4982070000000 1.0
C      1  0.5676960000000  0.5066040000000  0.5353180000000 1.0
C      1  0.5638450000000  0.5186720000000  0.4825620000000 1.0
C      1  0.4334980000000  0.4709710000000  0.4963450000000 1.0
C      1  0.4273230000000  0.5132950000000  0.5205080000000 1.0
C      1  0.4324060000000  0.5162160000000  0.4730070000000 1.0
C      1  0.5525090000000  0.4841970000000  0.4488190000000 1.0
C      1  0.5478480000000  0.4583950000000  0.5442790000000 1.0
C      1  0.5549520000000  0.5501380000000  0.5214450000000 1.0
C      1  0.4481560000000  0.4790720000000  0.4477650000000 1.0
C      1  0.4421720000000  0.4703960000000  0.5432100000000 1.0
C      1  0.4543020000000  0.5509850000000  0.5082580000000 1.0
C      1  0.4534670000000  0.4842660000000  0.5653330000000 1.0
C      1  0.4804910000000  0.5617330000000  0.4986550000000 1.0
C      1  0.4745540000000  0.4683830000000  0.4499520000000 1.0
C      1  0.5202250000000  0.4535640000000  0.5573880000000 1.0
C      1  0.5371510000000  0.5578260000000  0.4766510000000 1.0
C      1  0.5312980000000  0.4649370000000  0.4522900000000 1.0
C      1  0.4881120000000  0.5077970000000  0.5856720000000 1.0
C      1  0.4802110000000  0.5589840000000  0.4443610000000 1.0
C      1  0.4866670000000  0.4258960000000  0.4749260000000 1.0
C      1  0.5157900000000  0.5003320000000  0.5818850000000 1.0
C      1  0.5087980000000  0.5596330000000  0.4360830000000 1.0
C      1  0.5157690000000  0.4223580000000  0.4717690000000 1.0
C      1  0.5465920000000  0.5052490000000  0.4309930000000 1.0
C      1  0.5509530000000  0.4366640000000  0.5271040000000 1.0
C      1  0.5508290000000  0.5487540000000  0.5484970000000 1.0
C      1  0.4476320000000  0.5020160000000  0.4312940000000 1.0
C      1  0.4542240000000  0.4470700000000  0.5320130000000 1.0
C      1  0.4536280000000  0.5480160000000  0.5363550000000 1.0
C      1  0.4955270000000  0.5046800000000  0.4280640000000 1.0
C      1  0.5059250000000  0.4335490000000  0.5394860000000 1.0
C      1  0.5018000000000  0.5538340000000  0.5437880000000 1.0
END
