TITL C-214965-2992-9 -0.0743438081337951 125000 -337.856281526006 0 0 51 (C2v) n - 1
REM
REM in /rds/project/t2_vol4/rds-t2-cs072/BORA/CARBON/from-Arr/AIRSS/Generating-Clusters/GAP-ML-2020/Higher-Symm/SD-CG/HFTN-CG
REM
REM
REM
REM
REM
REM ./C.cell (b20cbc046b6831c77cfcea5457e17084)
REM AIRSS Version 0.9.1 bugfix July 2018 build 013d7b7c2542+ Fri, 06 Jul 2018 19:26:36 +0100
REM compiler GCC version 9.3.0
REM options -cpp -mtune=generic -march=x86-64 -g -O0
REM seed -1240869460 659735002 -223459007 1414248393 1877364168 797273186 1357129935 -449326430 -1897218301 175141647 369660296 1492285361 -953025260 1962028305 -952100652 480952445 1506459158 1778528167 -955913753 1000693687 -727039271 -598075489 -685533971 1370514169 811184548 1887474286 -924265735 -35016115 -587740807 -38540721 -7663071 -2133179626 -673146613
REM
CELL 1.54180   50.00000   50.00000   50.00000   90.00000   90.00000   90.00000
LATT -1
SFAC C  
C      1  0.4498360000000  0.4650210000000  0.5264260000000 1.0
C      1  0.4490790000000  0.4866620000000  0.5439040000000 1.0
C      1  0.4504070000000  0.5165790000000  0.5439820000000 1.0
C      1  0.4530820000000  0.5381590000000  0.5266180000000 1.0
C      1  0.4474020000000  0.5464470000000  0.4993230000000 1.0
C      1  0.4532250000000  0.5382960000000  0.4720170000000 1.0
C      1  0.4506400000000  0.5168040000000  0.4545300000000 1.0
C      1  0.4493120000000  0.4868870000000  0.4544510000000 1.0
C      1  0.4499780000000  0.4651580000000  0.4718240000000 1.0
C      1  0.4434490000000  0.4574120000000  0.4990890000000 1.0
C      1  0.5046650000000  0.5363920000000  0.4715320000000 1.0
C      1  0.5008280000000  0.5151590000000  0.4493290000000 1.0
C      1  0.4994500000000  0.4841050000000  0.4492470000000 1.0
C      1  0.5013850000000  0.4625000000000  0.4713370000000 1.0
C      1  0.5087910000000  0.4740040000000  0.4993000000000 1.0
C      1  0.5012400000000  0.4623590000000  0.5271670000000 1.0
C      1  0.4991890000000  0.4838530000000  0.5493550000000 1.0
C      1  0.5005680000000  0.5149070000000  0.5494360000000 1.0
C      1  0.5045200000000  0.5362510000000  0.5273610000000 1.0
C      1  0.5110160000000  0.5241290000000  0.4994320000000 1.0
C      1  0.5228330000000  0.4422030000000  0.4576380000000 1.0
C      1  0.5333220000000  0.4175840000000  0.4992220000000 1.0
C      1  0.5226160000000  0.4419930000000  0.5408750000000 1.0
C      1  0.5190170000000  0.4759780000000  0.5714220000000 1.0
C      1  0.5210100000000  0.5208790000000  0.5715400000000 1.0
C      1  0.5276140000000  0.5545710000000  0.5411710000000 1.0
C      1  0.5404500000000  0.5781530000000  0.4996450000000 1.0
C      1  0.5278300000000  0.5547800000000  0.4579340000000 1.0
C      1  0.5213850000000  0.5212420000000  0.4273630000000 1.0
C      1  0.5193920000000  0.4763400000000  0.4272440000000 1.0
C      1  0.5321190000000  0.4224190000000  0.5243960000000 1.0
C      1  0.5280450000000  0.4503810000000  0.5667080000000 1.0
C      1  0.5279390000000  0.4980390000000  0.5855330000000 1.0
C      1  0.5322720000000  0.5455990000000  0.5669590000000 1.0
C      1  0.5388170000000  0.5733120000000  0.5247930000000 1.0
C      1  0.5389480000000  0.5734390000000  0.4744640000000 1.0
C      1  0.5326220000000  0.5459390000000  0.4321260000000 1.0
C      1  0.5283870000000  0.4984730000000  0.4132910000000 1.0
C      1  0.5283950000000  0.4507200000000  0.4318760000000 1.0
C      1  0.5322500000000  0.4225460000000  0.4740670000000 1.0
C      1  0.4749280000000  0.4485930000000  0.4735950000000 1.0
C      1  0.4677880000000  0.4391190000000  0.4991060000000 1.0
C      1  0.4747950000000  0.4484640000000  0.5247010000000 1.0
C      1  0.4716870000000  0.4863380000000  0.5621550000000 1.0
C      1  0.4729500000000  0.5148020000000  0.5622300000000 1.0
C      1  0.4794110000000  0.5524470000000  0.5249750000000 1.0
C      1  0.4732660000000  0.5625110000000  0.4994310000000 1.0
C      1  0.4795440000000  0.5525760000000  0.4738690000000 1.0
C      1  0.4732780000000  0.5151180000000  0.4363920000000 1.0
C      1  0.4720140000000  0.4866550000000  0.4363170000000 1.0
C      1  0.5181030000000  0.4987030000000  0.4993870000000 1.0
END
