TITL C-214962-2964-4 -301.333747810803 125000 -812.860644140682 0 0 118 (Cs) n - 1
REM
REM in /rds/project/t2_vol4/rds-t2-cs072/BORA/CARBON/from-Arr/AIRSS/Generating-Clusters/GAP-ML-2020/Higher-Symm/SD-CG/HFTN-CG
REM
REM
REM
REM
REM
REM ./C.cell (b20cbc046b6831c77cfcea5457e17084)
REM AIRSS Version 0.9.1 bugfix July 2018 build 013d7b7c2542+ Fri, 06 Jul 2018 19:26:36 +0100
REM compiler GCC version 9.3.0
REM options -cpp -mtune=generic -march=x86-64 -g -O0
REM seed -409066128 -1954818642 -1609507130 2010242907 2013852057 508285585 -1416193868 1483953515 -1461402108 -650461361 -1984419276 -571198014 1592270929 663791504 -1279986811 862137670 -1776517639 253098604 1425390558 -1272997877 -953171505 749284264 1025636206 1684734182 -1762033664 718066681 -348798508 -451586983 -1360414696 -1605548026 1960747631 -1008960817 895650586
REM
CELL 1.54180   50.00000   50.00000   50.00000   90.00000   90.00000   90.00000
LATT -1
SFAC C  
C      1  0.5804110000000  0.4439270000000  0.5196380000000 1.0
C      1  0.5804010000000  0.5560920000000  0.5196240000000 1.0
C      1  0.5716110000000  0.5148450000000  0.5014260000000 1.0
C      1  0.5716140000000  0.4851670000000  0.5014300000000 1.0
C      1  0.4606510000000  0.5768300000000  0.5139540000000 1.0
C      1  0.4606640000000  0.4231670000000  0.5139740000000 1.0
C      1  0.4724000000000  0.5279250000000  0.5555920000000 1.0
C      1  0.4724050000000  0.4720850000000  0.5555990000000 1.0
C      1  0.4578520000000  0.5635430000000  0.4381780000000 1.0
C      1  0.4578630000000  0.4364340000000  0.4381950000000 1.0
C      1  0.5593720000000  0.4715520000000  0.4538260000000 1.0
C      1  0.5593670000000  0.5284460000000  0.4538190000000 1.0
C      1  0.5157790000000  0.4539510000000  0.4531140000000 1.0
C      1  0.5157710000000  0.5460390000000  0.4531020000000 1.0
C      1  0.5312680000000  0.5668180000000  0.4668860000000 1.0
C      1  0.5312800000000  0.4331780000000  0.4669040000000 1.0
C      1  0.5004490000000  0.5298790000000  0.4720000000000 1.0
C      1  0.5004540000000  0.4701140000000  0.4720080000000 1.0
C      1  0.4410980000000  0.5290440000000  0.5216800000000 1.0
C      1  0.4411030000000  0.4709510000000  0.5216880000000 1.0
C      1  0.4918860000000  0.4664760000000  0.5771790000000 1.0
C      1  0.4918810000000  0.5335430000000  0.5771700000000 1.0
C      1  0.5592670000000  0.5611590000000  0.4564940000000 1.0
C      1  0.5592780000000  0.4388400000000  0.4565110000000 1.0
C      1  0.4861870000000  0.4528610000000  0.4929200000000 1.0
C      1  0.4861790000000  0.5471340000000  0.4929070000000 1.0
C      1  0.4602320000000  0.4863660000000  0.4830340000000 1.0
C      1  0.4602300000000  0.5136230000000  0.4830300000000 1.0
C      1  0.4803130000000  0.4403460000000  0.4221830000000 1.0
C      1  0.4803020000000  0.5596310000000  0.4221670000000 1.0
C      1  0.5639150000000  0.5151340000000  0.5489220000000 1.0
C      1  0.5639170000000  0.4848900000000  0.5489260000000 1.0
C      1  0.5883810000000  0.5541470000000  0.4907730000000 1.0
C      1  0.5883910000000  0.4458660000000  0.4907880000000 1.0
C      1  0.4865390000000  0.4147290000000  0.4698520000000 1.0
C      1  0.4865240000000  0.5852610000000  0.4698290000000 1.0
C      1  0.5744420000000  0.4713710000000  0.5266300000000 1.0
C      1  0.5744370000000  0.5286490000000  0.5266220000000 1.0
C      1  0.5125850000000  0.4178260000000  0.5147610000000 1.0
C      1  0.5125710000000  0.5821800000000  0.5147390000000 1.0
C      1  0.4246810000000  0.4696840000000  0.5644920000000 1.0
C      1  0.4246760000000  0.5303200000000  0.5644840000000 1.0
C      1  0.5924850000000  0.5269290000000  0.4840960000000 1.0
C      1  0.5924900000000  0.4730830000000  0.4841030000000 1.0
C      1  0.4281010000000  0.4850740000000  0.4406000000000 1.0
C      1  0.4280980000000  0.5148980000000  0.4405960000000 1.0
C      1  0.5373060000000  0.5523350000000  0.4913970000000 1.0
C      1  0.5373160000000  0.4476700000000  0.4914110000000 1.0
C      1  0.5132270000000  0.4755010000000  0.5188180000000 1.0
C      1  0.5132230000000  0.5245060000000  0.5188110000000 1.0
C      1  0.4616990000000  0.5560900000000  0.5554200000000 1.0
C      1  0.4617090000000  0.4439180000000  0.5554350000000 1.0
C      1  0.5122220000000  0.5871430000000  0.4821160000000 1.0
C      1  0.5122380000000  0.4128550000000  0.4821400000000 1.0
C      1  0.4652900000000  0.4306290000000  0.4845020000000 1.0
C      1  0.4652790000000  0.5693600000000  0.4844840000000 1.0
C      1  0.4240850000000  0.4624220000000  0.4608780000000 1.0
C      1  0.4240780000000  0.5375550000000  0.4608680000000 1.0
C      1  0.4172170000000  0.5151760000000  0.5070440000000 1.0
C      1  0.4172190000000  0.4848120000000  0.5070480000000 1.0
C      1  0.4454160000000  0.5583840000000  0.4623930000000 1.0
C      1  0.4454260000000  0.4415960000000  0.4624080000000 1.0
C      1  0.5120410000000  0.5527580000000  0.5085200000000 1.0
C      1  0.5120500000000  0.4472460000000  0.5085340000000 1.0
C      1  0.5809070000000  0.5703940000000  0.4702790000000 1.0
C      1  0.5809190000000  0.4296120000000  0.4702980000000 1.0
C      1  0.4335690000000  0.5579310000000  0.5577820000000 1.0
C      1  0.4335780000000  0.4420730000000  0.5577980000000 1.0
C      1  0.5198320000000  0.5321120000000  0.4277480000000 1.0
C      1  0.5198380000000  0.4678730000000  0.4277570000000 1.0
C      1  0.4425530000000  0.5583840000000  0.5301360000000 1.0
C      1  0.4425630000000  0.4416140000000  0.5301510000000 1.0
C      1  0.4459540000000  0.4850460000000  0.4176090000000 1.0
C      1  0.4459520000000  0.5149230000000  0.4176050000000 1.0
C      1  0.5208240000000  0.5143780000000  0.4908890000000 1.0
C      1  0.5208270000000  0.4856230000000  0.4908920000000 1.0
C      1  0.4456460000000  0.4850160000000  0.5490930000000 1.0
C      1  0.4456430000000  0.5149870000000  0.5490890000000 1.0
C      1  0.4821610000000  0.5797500000000  0.4420520000000 1.0
C      1  0.4821760000000  0.4202330000000  0.4420740000000 1.0
C      1  0.5656220000000  0.4236870000000  0.5313350000000 1.0
C      1  0.5656090000000  0.5763330000000  0.5313150000000 1.0
C      1  0.4740180000000  0.5145650000000  0.4080650000000 1.0
C      1  0.4740210000000  0.4854070000000  0.4080690000000 1.0
C      1  0.4855870000000  0.5843840000000  0.5273680000000 1.0
C      1  0.4856020000000  0.4156210000000  0.5273900000000 1.0
C      1  0.5424630000000  0.4852210000000  0.4325760000000 1.0
C      1  0.5424610000000  0.5147690000000  0.4325730000000 1.0
C      1  0.5468340000000  0.5312000000000  0.5658100000000 1.0
C      1  0.5468390000000  0.4688250000000  0.5658180000000 1.0
C      1  0.5321960000000  0.5573290000000  0.5594030000000 1.0
C      1  0.5322060000000  0.4426910000000  0.5594180000000 1.0
C      1  0.4123670000000  0.5279740000000  0.4835880000000 1.0
C      1  0.4123720000000  0.4720070000000  0.4835950000000 1.0
C      1  0.5051610000000  0.5577680000000  0.5671700000000 1.0
C      1  0.5051700000000  0.4422500000000  0.5671850000000 1.0
C      1  0.5471830000000  0.4741860000000  0.4848290000000 1.0
C      1  0.5471780000000  0.5258180000000  0.4848230000000 1.0
C      1  0.5069100000000  0.5145640000000  0.5905870000000 1.0
C      1  0.5069130000000  0.4854610000000  0.5905910000000 1.0
C      1  0.5351080000000  0.4854510000000  0.5844050000000 1.0
C      1  0.5351050000000  0.5145770000000  0.5844010000000 1.0
C      1  0.5848210000000  0.5140770000000  0.4592470000000 1.0
C      1  0.5848240000000  0.4859270000000  0.4592500000000 1.0
C      1  0.4874470000000  0.4848740000000  0.5292560000000 1.0
C      1  0.4874440000000  0.5151310000000  0.5292520000000 1.0
C      1  0.4081680000000  0.4866100000000  0.5774700000000 1.0
C      1  0.4081660000000  0.5133950000000  0.5774660000000 1.0
C      1  0.4938360000000  0.4648870000000  0.4143640000000 1.0
C      1  0.4938300000000  0.5350900000000  0.4143550000000 1.0
C      1  0.4848820000000  0.4273430000000  0.5534180000000 1.0
C      1  0.4848690000000  0.5726680000000  0.5533980000000 1.0
C      1  0.4797530000000  0.4857060000000  0.4607750000000 1.0
C      1  0.4797500000000  0.5142800000000  0.4607720000000 1.0
C      1  0.5392270000000  0.4234230000000  0.5380140000000 1.0
C      1  0.5392140000000  0.5765940000000  0.5379950000000 1.0
C      1  0.4685330000000  0.4737770000000  0.5073700000000 1.0
C      1  0.4685280000000  0.5262200000000  0.5073630000000 1.0
END
