TITL C-21846-7451-7 -130.264440267294 125000 -478.948776932611 0 0 71 (C2) n - 1
REM
REM in /rds/project/t2_vol4/rds-t2-cs072/BORA/CARBON/from-Arr/AIRSS/Generating-Clusters/GAP-ML-2020/Higher-Symm/SD-CG/HFTN-CG
REM
REM
REM
REM
REM
REM ./C.cell (b20cbc046b6831c77cfcea5457e17084)
REM AIRSS Version 0.9.1 bugfix July 2018 build 013d7b7c2542+ Fri, 06 Jul 2018 19:26:36 +0100
REM compiler GCC version 9.3.0
REM options -cpp -mtune=generic -march=x86-64 -g -O0
REM seed -1458755580 2022154126 -1956111369 854398442 823303613 -1216789868 1865223664 -1136201301 -224481918 -631528209 85141694 -892778811 -716313760 1967490742 655745105 724042640 846857863 384774158 1826237262 1166604886 -1939384519 -2095977897 -1072525431 1479108531 1913034839 -1916065324 1441888595 -709072130 -1139308514 1847837515 645438743 776050660 -108716409
REM
CELL 1.54180   50.00000   50.00000   50.00000   90.00000   90.00000   90.00000
LATT -1
SFAC C  
C      1  0.5155900000000  0.4179880000000  0.4823750000000 1.0
C      1  0.5156460000000  0.5812420000000  0.5177440000000 1.0
C      1  0.4757960000000  0.5597280000000  0.4643940000000 1.0
C      1  0.4751970000000  0.4396290000000  0.5352640000000 1.0
C      1  0.4922630000000  0.5001310000000  0.4745470000000 1.0
C      1  0.4919690000000  0.4991740000000  0.5253020000000 1.0
C      1  0.5195840000000  0.5336710000000  0.5067730000000 1.0
C      1  0.5195530000000  0.4655460000000  0.4933920000000 1.0
C      1  0.5375760000000  0.4257800000000  0.4995840000000 1.0
C      1  0.5378030000000  0.5733800000000  0.5007900000000 1.0
C      1  0.4431730000000  0.5403670000000  0.5363580000000 1.0
C      1  0.4434670000000  0.4590930000000  0.4629300000000 1.0
C      1  0.4934050000000  0.5290490000000  0.5235530000000 1.0
C      1  0.4935840000000  0.4702510000000  0.4763120000000 1.0
C      1  0.5247170000000  0.4458300000000  0.5171140000000 1.0
C      1  0.5250830000000  0.5533710000000  0.4831120000000 1.0
C      1  0.4614620000000  0.4547970000000  0.5540000000000 1.0
C      1  0.4622290000000  0.5446040000000  0.4455010000000 1.0
C      1  0.5350570000000  0.5274950000000  0.4672060000000 1.0
C      1  0.5345890000000  0.4716750000000  0.5331340000000 1.0
C      1  0.5611320000000  0.5143080000000  0.4650200000000 1.0
C      1  0.5606780000000  0.4847790000000  0.5356200000000 1.0
C      1  0.4996200000000  0.4808920000000  0.5700740000000 1.0
C      1  0.5004860000000  0.5183880000000  0.4298660000000 1.0
C      1  0.5045440000000  0.5562400000000  0.4613400000000 1.0
C      1  0.5039190000000  0.4430260000000  0.5386480000000 1.0
C      1  0.4701620000000  0.5638340000000  0.4940920000000 1.0
C      1  0.4698920000000  0.4355410000000  0.5055030000000 1.0
C      1  0.5343540000000  0.5131980000000  0.5613840000000 1.0
C      1  0.5350150000000  0.4859720000000  0.4389550000000 1.0
C      1  0.5604800000000  0.5560380000000  0.5106250000000 1.0
C      1  0.5604190000000  0.4430500000000  0.4900110000000 1.0
C      1  0.4681480000000  0.4765280000000  0.4159480000000 1.0
C      1  0.4672570000000  0.5228550000000  0.5836200000000 1.0
C      1  0.5175410000000  0.4891150000000  0.5118420000000 1.0
C      1  0.5177100000000  0.5101080000000  0.4883010000000 1.0
C      1  0.4413210000000  0.4862640000000  0.4541820000000 1.0
C      1  0.4408410000000  0.5132030000000  0.5450800000000 1.0
C      1  0.4912480000000  0.4685330000000  0.4279550000000 1.0
C      1  0.4905190000000  0.5307750000000  0.5718810000000 1.0
C      1  0.5533000000000  0.4853300000000  0.4589600000000 1.0
C      1  0.5528700000000  0.5137810000000  0.5415910000000 1.0
C      1  0.4678280000000  0.5097320000000  0.4881450000000 1.0
C      1  0.4676620000000  0.4896500000000  0.5114230000000 1.0
C      1  0.5452230000000  0.5346660000000  0.5221300000000 1.0
C      1  0.5453630000000  0.4644690000000  0.4783310000000 1.0
C      1  0.5821480000000  0.5290810000000  0.4749460000000 1.0
C      1  0.5817610000000  0.4699380000000  0.5259370000000 1.0
C      1  0.4472190000000  0.5482570000000  0.5116220000000 1.0
C      1  0.4472030000000  0.4511900000000  0.4877100000000 1.0
C      1  0.5150980000000  0.4637230000000  0.5544790000000 1.0
C      1  0.5158380000000  0.5355070000000  0.4456390000000 1.0
C      1  0.4966180000000  0.5722690000000  0.5372020000000 1.0
C      1  0.4968160000000  0.4270220000000  0.4627000000000 1.0
C      1  0.4560240000000  0.4964510000000  0.4313280000000 1.0
C      1  0.4552480000000  0.5029690000000  0.5681010000000 1.0
C      1  0.5796370000000  0.5473640000000  0.4933470000000 1.0
C      1  0.5794040000000  0.4516630000000  0.5075080000000 1.0
C      1  0.4707600000000  0.5220120000000  0.4323680000000 1.0
C      1  0.4699130000000  0.4773610000000  0.5672310000000 1.0
C      1  0.4928380000000  0.5461500000000  0.5475980000000 1.0
C      1  0.4932390000000  0.4531510000000  0.4522620000000 1.0
C      1  0.5110490000000  0.4910760000000  0.4280710000000 1.0
C      1  0.5102480000000  0.5081700000000  0.5719910000000 1.0
C      1  0.4393230000000  0.4957430000000  0.5225760000000 1.0
C      1  0.4396000000000  0.5037290000000  0.4766680000000 1.0
C      1  0.4880040000000  0.4207640000000  0.4889420000000 1.0
C      1  0.4881290000000  0.5785540000000  0.5108610000000 1.0
C      1  0.4714180000000  0.4644290000000  0.4966440000000 1.0
C      1  0.4714940000000  0.5349410000000  0.5029670000000 1.0
C      1  0.4248870000000  0.4997590000000  0.4995380000000 1.0
END
