TITL C-22222-4065-6 38.5961022760144 125000 -215.116920671676 0 0 33 (C1) n - 1
REM
REM in /rds/project/t2_vol4/rds-t2-cs072/BORA/CARBON/from-Arr/AIRSS/Generating-Clusters/GAP-ML-2020/Higher-Symm/SD-CG/HFTN-CG
REM
REM
REM
REM
REM
REM ./C.cell (b20cbc046b6831c77cfcea5457e17084)
REM AIRSS Version 0.9.1 bugfix July 2018 build 013d7b7c2542+ Fri, 06 Jul 2018 19:26:36 +0100
REM compiler GCC version 9.3.0
REM options -cpp -mtune=generic -march=x86-64 -g -O0
REM seed -292173317 1647205460 483856610 1726809805 337165896 1842089471 2113072089 -1890574644 1724673180 -779627490 -1755544311 -1627706861 -1399427477 1166936268 -573355163 -1907648840 -1734909401 2123089926 -1800126717 -467822794 -2072264337 1547640022 1116530110 910624970 -79500642 195981766 -1958049619 427379104 -1511755167 720995512 1565175825 2028788020 2115839889
REM
CELL 1.54180   50.00000   50.00000   50.00000   90.00000   90.00000   90.00000
LATT -1
SFAC C  
C      1  0.5210540000000  0.5061710000000  0.5473620000000 1.0
C      1  0.5361180000000  0.4649770000000  0.4391000000000 1.0
C      1  0.4671040000000  0.5459990000000  0.4822840000000 1.0
C      1  0.4864890000000  0.4628810000000  0.4555160000000 1.0
C      1  0.4768530000000  0.5319450000000  0.5244870000000 1.0
C      1  0.5539890000000  0.4712290000000  0.4873980000000 1.0
C      1  0.4874460000000  0.5279050000000  0.5508870000000 1.0
C      1  0.5316320000000  0.5406560000000  0.5043080000000 1.0
C      1  0.4516090000000  0.5250620000000  0.4770850000000 1.0
C      1  0.5413720000000  0.4797360000000  0.4645320000000 1.0
C      1  0.4935060000000  0.5179690000000  0.5040690000000 1.0
C      1  0.4806500000000  0.4766380000000  0.5457350000000 1.0
C      1  0.4684880000000  0.4752970000000  0.5193760000000 1.0
C      1  0.4983300000000  0.5100700000000  0.4598130000000 1.0
C      1  0.5147310000000  0.5342320000000  0.5458250000000 1.0
C      1  0.4786500000000  0.4935050000000  0.4990980000000 1.0
C      1  0.5245740000000  0.5135380000000  0.5005160000000 1.0
C      1  0.4949310000000  0.4566900000000  0.5285220000000 1.0
C      1  0.5023500000000  0.4769460000000  0.4890730000000 1.0
C      1  0.4764460000000  0.4910250000000  0.4547610000000 1.0
C      1  0.4755840000000  0.4491520000000  0.5069480000000 1.0
C      1  0.4934630000000  0.4988390000000  0.5556670000000 1.0
C      1  0.4905210000000  0.5317710000000  0.4771210000000 1.0
C      1  0.5193250000000  0.5524860000000  0.5248940000000 1.0
C      1  0.5307880000000  0.4949230000000  0.5227930000000 1.0
C      1  0.4590940000000  0.4981210000000  0.4769680000000 1.0
C      1  0.5158950000000  0.4700150000000  0.5143930000000 1.0
C      1  0.4868360000000  0.4517250000000  0.4817270000000 1.0
C      1  0.5441100000000  0.4699580000000  0.5123460000000 1.0
C      1  0.4715190000000  0.5564190000000  0.5112240000000 1.0
C      1  0.5198840000000  0.4972910000000  0.4747590000000 1.0
C      1  0.4955430000000  0.5658700000000  0.5185350000000 1.0
C      1  0.5111170000000  0.4609580000000  0.4428760000000 1.0
END
