TITL C-22445-5570-3 -0.08886124845112 125000 -585.462386318116 0 0 84 (C1) n - 1
REM
REM in /rds/project/t2_vol4/rds-t2-cs072/BORA/CARBON/from-Arr/AIRSS/Generating-Clusters/GAP-ML-2020/Higher-Symm/SD-CG/HFTN-CG
REM
REM
REM
REM
REM
REM ./C.cell (b20cbc046b6831c77cfcea5457e17084)
REM AIRSS Version 0.9.1 bugfix July 2018 build 013d7b7c2542+ Fri, 06 Jul 2018 19:26:36 +0100
REM compiler GCC version 9.3.0
REM options -cpp -mtune=generic -march=x86-64 -g -O0
REM seed 1273257715 -1548977669 111223837 -2102418857 -127304712 -486080207 1546357882 -1812629288 -431168502 -1388075615 1938997071 1791528550 -441487649 -810762401 1424894912 -1288874267 -1951379888 1275223820 -812994664 1157048622 179875698 -1233042279 2058039752 931132122 -1054686942 -516290103 -1648101540 -659022848 -510029743 -1139266708 824823709 1612005915 1916109951
REM
CELL 1.54180   50.00000   50.00000   50.00000   90.00000   90.00000   90.00000
LATT -1
SFAC C  
C      1  0.5079590000000  0.5786080000000  0.4766410000000 1.0
C      1  0.5251800000000  0.5776590000000  0.4995880000000 1.0
C      1  0.5093940000000  0.5777970000000  0.5233260000000 1.0
C      1  0.4823200000000  0.5773110000000  0.5148690000000 1.0
C      1  0.4812840000000  0.5783070000000  0.4862790000000 1.0
C      1  0.4980120000000  0.5547030000000  0.5642170000000 1.0
C      1  0.4420850000000  0.5525890000000  0.5152700000000 1.0
C      1  0.4663190000000  0.5575870000000  0.4452770000000 1.0
C      1  0.5399790000000  0.5548380000000  0.4504050000000 1.0
C      1  0.5588220000000  0.5536160000000  0.5235060000000 1.0
C      1  0.5179800000000  0.5675260000000  0.5484510000000 1.0
C      1  0.4623520000000  0.5652820000000  0.5305850000000 1.0
C      1  0.4597440000000  0.5685750000000  0.4708350000000 1.0
C      1  0.5148000000000  0.5683380000000  0.4509210000000 1.0
C      1  0.5508090000000  0.5659890000000  0.4989260000000 1.0
C      1  0.5170570000000  0.4327070000000  0.5173540000000 1.0
C      1  0.4905000000000  0.4449870000000  0.5221540000000 1.0
C      1  0.4752570000000  0.4433390000000  0.4950380000000 1.0
C      1  0.4969780000000  0.4371200000000  0.4754380000000 1.0
C      1  0.5214070000000  0.4447590000000  0.4894000000000 1.0
C      1  0.5623220000000  0.5152050000000  0.5459740000000 1.0
C      1  0.4806140000000  0.5141030000000  0.5724230000000 1.0
C      1  0.4286690000000  0.5133390000000  0.4976640000000 1.0
C      1  0.4742700000000  0.5176900000000  0.4244230000000 1.0
C      1  0.5554030000000  0.5126160000000  0.4568850000000 1.0
C      1  0.4338580000000  0.5201390000000  0.4518730000000 1.0
C      1  0.5206980000000  0.5164450000000  0.4229350000000 1.0
C      1  0.5756640000000  0.5142880000000  0.4980180000000 1.0
C      1  0.5290560000000  0.5162100000000  0.5782780000000 1.0
C      1  0.4423340000000  0.5136310000000  0.5465750000000 1.0
C      1  0.5115480000000  0.4888440000000  0.4290210000000 1.0
C      1  0.5638900000000  0.4886050000000  0.4931200000000 1.0
C      1  0.5308980000000  0.4879370000000  0.5680100000000 1.0
C      1  0.4548550000000  0.4872120000000  0.5460660000000 1.0
C      1  0.4360900000000  0.4923820000000  0.4579740000000 1.0
C      1  0.5703360000000  0.5289900000000  0.4740090000000 1.0
C      1  0.5496630000000  0.5322960000000  0.5646740000000 1.0
C      1  0.4590170000000  0.5296520000000  0.5635290000000 1.0
C      1  0.4270060000000  0.5327240000000  0.4766510000000 1.0
C      1  0.4975440000000  0.5332970000000  0.4201860000000 1.0
C      1  0.5373860000000  0.4961820000000  0.4797460000000 1.0
C      1  0.5378580000000  0.4968820000000  0.5406950000000 1.0
C      1  0.4828240000000  0.4948080000000  0.5468710000000 1.0
C      1  0.4484630000000  0.4945610000000  0.4844460000000 1.0
C      1  0.4851290000000  0.4941390000000  0.4396720000000 1.0
C      1  0.5206320000000  0.5197820000000  0.5306770000000 1.0
C      1  0.4933920000000  0.5189820000000  0.5297900000000 1.0
C      1  0.4707690000000  0.5175210000000  0.4822400000000 1.0
C      1  0.4920120000000  0.5167800000000  0.4622090000000 1.0
C      1  0.5146840000000  0.5176860000000  0.4818400000000 1.0
C      1  0.4791650000000  0.4444630000000  0.5487080000000 1.0
C      1  0.4450380000000  0.4380350000000  0.4943840000000 1.0
C      1  0.4963390000000  0.4508910000000  0.4510960000000 1.0
C      1  0.5480780000000  0.4464110000000  0.4754930000000 1.0
C      1  0.5365150000000  0.4488520000000  0.5354550000000 1.0
C      1  0.4526320000000  0.4588200000000  0.5408110000000 1.0
C      1  0.4358050000000  0.4459380000000  0.4693220000000 1.0
C      1  0.5198920000000  0.4623860000000  0.4387280000000 1.0
C      1  0.5649480000000  0.4596770000000  0.4978350000000 1.0
C      1  0.5239630000000  0.4594940000000  0.5655680000000 1.0
C      1  0.5267670000000  0.4749810000000  0.5248100000000 1.0
C      1  0.4968240000000  0.4738510000000  0.5273990000000 1.0
C      1  0.4713130000000  0.4724190000000  0.4849450000000 1.0
C      1  0.4737610000000  0.4694700000000  0.4529220000000 1.0
C      1  0.5207930000000  0.4746450000000  0.4943840000000 1.0
C      1  0.4934440000000  0.5577500000000  0.4349630000000 1.0
C      1  0.5579350000000  0.5546590000000  0.4733790000000 1.0
C      1  0.5440510000000  0.5557130000000  0.5486680000000 1.0
C      1  0.4703650000000  0.5544940000000  0.5558410000000 1.0
C      1  0.4393300000000  0.5559680000000  0.4865630000000 1.0
C      1  0.5621090000000  0.4488310000000  0.5227040000000 1.0
C      1  0.4990140000000  0.4484160000000  0.5680720000000 1.0
C      1  0.4387930000000  0.4453260000000  0.5212390000000 1.0
C      1  0.4431890000000  0.4647910000000  0.4506360000000 1.0
C      1  0.5446620000000  0.4533090000000  0.4495090000000 1.0
C      1  0.4328860000000  0.5261740000000  0.5228300000000 1.0
C      1  0.4538610000000  0.5333410000000  0.4367050000000 1.0
C      1  0.5413810000000  0.5285420000000  0.4377440000000 1.0
C      1  0.5721530000000  0.5283810000000  0.5228960000000 1.0
C      1  0.5038500000000  0.5293620000000  0.5774910000000 1.0
C      1  0.4926550000000  0.5142470000000  0.5018820000000 1.0
C      1  0.5121730000000  0.4048270000000  0.5146350000000 1.0
C      1  0.4931250000000  0.4844560000000  0.4997550000000 1.0
C      1  0.5039800000000  0.3858450000000  0.5010330000000 1.0
END
