TITL C-22190-8129-1 0.272528776833801 125000 -1213.16601331875 0 0 175 (C1) n - 1
REM
REM in /rds/project/t2_vol4/rds-t2-cs072/BORA/CARBON/from-Arr/AIRSS/Generating-Clusters/GAP-ML-2020/Higher-Symm/SD-CG/HFTN-CG/C160-200
REM
REM
REM
REM
REM
REM ./C.cell (6b4489405718ea1b717e0baf1da4c2d9)
REM AIRSS Version 0.9.1 bugfix July 2018 build 013d7b7c2542+ Fri, 06 Jul 2018 19:26:36 +0100
REM compiler GCC version 9.3.0
REM options -cpp -mtune=generic -march=x86-64 -g -O0
REM seed -232909968 -1965529039 510913299 -156208389 333233865 -76650075 -46096786 711267502 -1384509077 -164418893 -1531664021 -1254188823 174507511 -638632944 1335705089 1287312424 -1749723709 416669707 -115718395 1949433785 877218378 1814883709 -1959065561 -663793440 81604731 -1471548017 1970281672 -1736527595 748914999 -630161667 700811045 -1946220055 -1857306098
REM
CELL 1.54180   50.00000   50.00000   50.00000   90.00000   90.00000   90.00000
LATT -1
SFAC C  
C      1  0.6039060000000  0.4887520000000  0.5356590000000 1.0
C      1  0.5194760000000  0.3972420000000  0.5343420000000 1.0
C      1  0.4081890000000  0.4499950000000  0.5347900000000 1.0
C      1  0.4239880000000  0.5720350000000  0.5346500000000 1.0
C      1  0.5446810000000  0.5949040000000  0.5351050000000 1.0
C      1  0.6038590000000  0.4874000000000  0.4643800000000 1.0
C      1  0.5219960000000  0.3977320000000  0.4630260000000 1.0
C      1  0.4096920000000  0.4471370000000  0.4635140000000 1.0
C      1  0.4218730000000  0.5693780000000  0.4633780000000 1.0
C      1  0.5420780000000  0.5953510000000  0.4638030000000 1.0
C      1  0.4594500000000  0.5800300000000  0.5641510000000 1.0
C      1  0.5632920000000  0.5640280000000  0.5651980000000 1.0
C      1  0.5787750000000  0.4605160000000  0.5628860000000 1.0
C      1  0.4860730000000  0.4116760000000  0.5639510000000 1.0
C      1  0.4117470000000  0.4862840000000  0.5642090000000 1.0
C      1  0.4581640000000  0.5776960000000  0.4354510000000 1.0
C      1  0.5611880000000  0.5630250000000  0.4365110000000 1.0
C      1  0.5805350000000  0.4602600000000  0.4341980000000 1.0
C      1  0.4877370000000  0.4122690000000  0.4352270000000 1.0
C      1  0.4127960000000  0.4841440000000  0.4355070000000 1.0
C      1  0.4956580000000  0.4348620000000  0.5249750000000 1.0
C      1  0.4365570000000  0.4843830000000  0.5252080000000 1.0
C      1  0.4655620000000  0.5557730000000  0.5251990000000 1.0
C      1  0.5431840000000  0.5503940000000  0.5256920000000 1.0
C      1  0.5624020000000  0.4768250000000  0.5219720000000 1.0
C      1  0.4967930000000  0.4333710000000  0.4766750000000 1.0
C      1  0.4358540000000  0.4820850000000  0.4769630000000 1.0
C      1  0.4631290000000  0.5552900000000  0.4769910000000 1.0
C      1  0.5405810000000  0.5519700000000  0.4774600000000 1.0
C      1  0.5606780000000  0.4752370000000  0.4737190000000 1.0
C      1  0.5464120000000  0.5008560000000  0.4681430000000 1.0
C      1  0.5151560000000  0.4553220000000  0.4684550000000 1.0
C      1  0.4624250000000  0.4710990000000  0.4687700000000 1.0
C      1  0.4608690000000  0.5265950000000  0.4687720000000 1.0
C      1  0.5128760000000  0.5452910000000  0.4687970000000 1.0
C      1  0.5476600000000  0.5009780000000  0.5310680000000 1.0
C      1  0.5156750000000  0.4559550000000  0.5314750000000 1.0
C      1  0.4628710000000  0.4722250000000  0.5316730000000 1.0
C      1  0.4621410000000  0.5270460000000  0.5316320000000 1.0
C      1  0.5144850000000  0.5447910000000  0.5315600000000 1.0
C      1  0.5892310000000  0.4613270000000  0.4626620000000 1.0
C      1  0.4925430000000  0.4046080000000  0.4638680000000 1.0
C      1  0.4071080000000  0.4773000000000  0.4641910000000 1.0
C      1  0.4497970000000  0.5810970000000  0.4640890000000 1.0
C      1  0.5617630000000  0.5721380000000  0.4650090000000 1.0
C      1  0.5878420000000  0.4628560000000  0.5343850000000 1.0
C      1  0.4900340000000  0.4036550000000  0.5355710000000 1.0
C      1  0.4052440000000  0.4799810000000  0.5358710000000 1.0
C      1  0.4515650000000  0.5841500000000  0.5357430000000 1.0
C      1  0.5647730000000  0.5726780000000  0.5366480000000 1.0
C      1  0.4460230000000  0.4251120000000  0.4435090000000 1.0
C      1  0.4120740000000  0.5279740000000  0.4435410000000 1.0
C      1  0.4997900000000  0.5919170000000  0.4435820000000 1.0
C      1  0.5869930000000  0.5273440000000  0.4456900000000 1.0
C      1  0.5542780000000  0.4251230000000  0.4426950000000 1.0
C      1  0.4446680000000  0.4271100000000  0.5542450000000 1.0
C      1  0.4135940000000  0.5303120000000  0.5542800000000 1.0
C      1  0.5017380000000  0.5918940000000  0.5543670000000 1.0
C      1  0.5881800000000  0.5278350000000  0.5564070000000 1.0
C      1  0.5522720000000  0.4253270000000  0.5534070000000 1.0
C      1  0.5097680000000  0.5260230000000  0.5568710000000 1.0
C      1  0.5282020000000  0.4993410000000  0.5566040000000 1.0
C      1  0.5083560000000  0.4736120000000  0.5568990000000 1.0
C      1  0.4776990000000  0.4844490000000  0.5570860000000 1.0
C      1  0.4785320000000  0.5169020000000  0.5570250000000 1.0
C      1  0.5087220000000  0.5261150000000  0.4432820000000 1.0
C      1  0.5271200000000  0.4992450000000  0.4429390000000 1.0
C      1  0.5074450000000  0.4733720000000  0.4431610000000 1.0
C      1  0.4768720000000  0.4841960000000  0.4433930000000 1.0
C      1  0.4776610000000  0.5167280000000  0.4433910000000 1.0
C      1  0.4859280000000  0.5771280000000  0.5727790000000 1.0
C      1  0.5687350000000  0.5379810000000  0.5742030000000 1.0
C      1  0.5562230000000  0.4466830000000  0.5716890000000 1.0
C      1  0.4662720000000  0.4296420000000  0.5724610000000 1.0
C      1  0.4227370000000  0.5106470000000  0.5726420000000 1.0
C      1  0.4844060000000  0.5760980000000  0.4259210000000 1.0
C      1  0.5677260000000  0.5374940000000  0.4274640000000 1.0
C      1  0.5576780000000  0.4468520000000  0.4249550000000 1.0
C      1  0.4675690000000  0.4289550000000  0.4255700000000 1.0
C      1  0.4223530000000  0.5085320000000  0.4257870000000 1.0
C      1  0.5469590000000  0.4937520000000  0.4194560000000 1.0
C      1  0.5088500000000  0.4537770000000  0.4191780000000 1.0
C      1  0.4586090000000  0.4770410000000  0.4193230000000 1.0
C      1  0.4653600000000  0.5319120000000  0.4193250000000 1.0
C      1  0.5199130000000  0.5424410000000  0.4194990000000 1.0
C      1  0.5470290000000  0.4937970000000  0.5802290000000 1.0
C      1  0.5082740000000  0.4529380000000  0.5800060000000 1.0
C      1  0.4580680000000  0.4777850000000  0.5800070000000 1.0
C      1  0.4659190000000  0.5333570000000  0.5799760000000 1.0
C      1  0.5208880000000  0.5430850000000  0.5801570000000 1.0
C      1  0.5357330000000  0.5677510000000  0.4258840000000 1.0
C      1  0.5764090000000  0.4866490000000  0.4256630000000 1.0
C      1  0.5110430000000  0.4238060000000  0.4250830000000 1.0
C      1  0.4309290000000  0.4654900000000  0.4253740000000 1.0
C      1  0.4459390000000  0.5547130000000  0.4253200000000 1.0
C      1  0.5370790000000  0.5686660000000  0.5739850000000 1.0
C      1  0.5758320000000  0.4861460000000  0.5737350000000 1.0
C      1  0.5100870000000  0.4229690000000  0.5732210000000 1.0
C      1  0.4299700000000  0.4669770000000  0.5734280000000 1.0
C      1  0.4468000000000  0.5567210000000  0.5733930000000 1.0
C      1  0.4917280000000  0.5508910000000  0.5844640000000 1.0
C      1  0.5454820000000  0.5239340000000  0.5849410000000 1.0
C      1  0.5360760000000  0.4641590000000  0.5841040000000 1.0
C      1  0.4770330000000  0.4542720000000  0.5840980000000 1.0
C      1  0.4494970000000  0.5079950000000  0.5842570000000 1.0
C      1  0.4909980000000  0.5498270000000  0.4147300000000 1.0
C      1  0.5449150000000  0.5235600000000  0.4152490000000 1.0
C      1  0.5369340000000  0.4645330000000  0.4144180000000 1.0
C      1  0.4776660000000  0.4541100000000  0.4143230000000 1.0
C      1  0.4493720000000  0.5067360000000  0.4145340000000 1.0
C      1  0.4692890000000  0.4453800000000  0.5169100000000 1.0
C      1  0.4384700000000  0.5125940000000  0.5169490000000 1.0
C      1  0.4930750000000  0.5626100000000  0.5169480000000 1.0
C      1  0.5582500000000  0.5263710000000  0.5176980000000 1.0
C      1  0.5433550000000  0.4543660000000  0.5154310000000 1.0
C      1  0.4694020000000  0.4442370000000  0.4829610000000 1.0
C      1  0.4376050000000  0.5116780000000  0.4830410000000 1.0
C      1  0.4917500000000  0.5628990000000  0.4830970000000 1.0
C      1  0.5564710000000  0.5270330000000  0.4838360000000 1.0
C      1  0.5427760000000  0.4531290000000  0.4815480000000 1.0
C      1  0.4239050000000  0.4384750000000  0.5113820000000 1.0
C      1  0.4179250000000  0.5534540000000  0.5113250000000 1.0
C      1  0.5253860000000  0.5946860000000  0.5115830000000 1.0
C      1  0.6047750000000  0.5098350000000  0.5161530000000 1.0
C      1  0.5351380000000  0.4087440000000  0.5108480000000 1.0
C      1  0.4214930000000  0.4301180000000  0.4833770000000 1.0
C      1  0.4093310000000  0.5529560000000  0.4833000000000 1.0
C      1  0.5224370000000  0.6024000000000  0.4834710000000 1.0
C      1  0.5974820000000  0.5053760000000  0.4880500000000 1.0
C      1  0.5419780000000  0.4035550000000  0.4827950000000 1.0
C      1  0.4666800000000  0.4012780000000  0.5140060000000 1.0
C      1  0.3957580000000  0.5012790000000  0.5141500000000 1.0
C      1  0.4689080000000  0.5996820000000  0.5139970000000 1.0
C      1  0.5855510000000  0.5613010000000  0.5150200000000 1.0
C      1  0.5836320000000  0.4383300000000  0.5130250000000 1.0
C      1  0.4675160000000  0.4003410000000  0.4851570000000 1.0
C      1  0.3952830000000  0.4999650000000  0.4853060000000 1.0
C      1  0.4676550000000  0.5994870000000  0.4851480000000 1.0
C      1  0.5841360000000  0.5605410000000  0.4861900000000 1.0
C      1  0.5847270000000  0.4378540000000  0.4841650000000 1.0
C      1  0.4968300000000  0.5918070000000  0.5247200000000 1.0
C      1  0.5887890000000  0.5332120000000  0.5268180000000 1.0
C      1  0.5566240000000  0.4282020000000  0.5238040000000 1.0
C      1  0.4488370000000  0.4241860000000  0.5246270000000 1.0
C      1  0.4120080000000  0.5254150000000  0.5246760000000 1.0
C      1  0.4950010000000  0.5941440000000  0.4731210000000 1.0
C      1  0.5854520000000  0.5319440000000  0.4752930000000 1.0
C      1  0.5591230000000  0.4262400000000  0.4722960000000 1.0
C      1  0.4485260000000  0.4207210000000  0.4730990000000 1.0
C      1  0.4087180000000  0.5242900000000  0.4731330000000 1.0
C      1  0.5083720000000  0.5234260000000  0.5149400000000 1.0
C      1  0.5249440000000  0.4999150000000  0.5148790000000 1.0
C      1  0.5076520000000  0.4767750000000  0.5150650000000 1.0
C      1  0.4803340000000  0.4860960000000  0.5151810000000 1.0
C      1  0.4808150000000  0.5148970000000  0.5151080000000 1.0
C      1  0.5073760000000  0.5231980000000  0.4848540000000 1.0
C      1  0.5243140000000  0.4997230000000  0.4847580000000 1.0
C      1  0.5072910000000  0.4764370000000  0.4849590000000 1.0
C      1  0.4799000000000  0.4854560000000  0.4850900000000 1.0
C      1  0.4799250000000  0.5143310000000  0.4850180000000 1.0
C      1  0.5310700000000  0.4103030000000  0.4391100000000 1.0
C      1  0.4245790000000  0.4423340000000  0.4396830000000 1.0
C      1  0.4219220000000  0.5536440000000  0.4396100000000 1.0
C      1  0.5273040000000  0.5903480000000  0.4399690000000 1.0
C      1  0.5949540000000  0.5011590000000  0.4414170000000 1.0
C      1  0.5296500000000  0.4098040000000  0.5574510000000 1.0
C      1  0.4231500000000  0.4442180000000  0.5579890000000 1.0
C      1  0.4230950000000  0.5561190000000  0.5579160000000 1.0
C      1  0.5291510000000  0.5909270000000  0.5583060000000 1.0
C      1  0.5948510000000  0.5010490000000  0.5596930000000 1.0
C      1  0.5752150000000  0.4851010000000  0.4964750000000 1.0
C      1  0.4479200000000  0.5563350000000  0.5024330000000 1.0
C      1  0.5374470000000  0.5669610000000  0.5028140000000 1.0
C      1  0.5090280000000  0.4237290000000  0.5021050000000 1.0
C      1  0.4303290000000  0.4678800000000  0.5024530000000 1.0
END
