TITL C-22227-3607-2 87.721549887462 125000 -695.849924651558 0 0 100 (C1) n - 1
REM
REM in /rds/project/t2_vol4/rds-t2-cs072/BORA/CARBON/from-Arr/AIRSS/Generating-Clusters/GAP-ML-2020/Higher-Symm/SD-CG/HFTN-CG
REM
REM
REM
REM
REM
REM ./C.cell (b20cbc046b6831c77cfcea5457e17084)
REM AIRSS Version 0.9.1 bugfix July 2018 build 013d7b7c2542+ Fri, 06 Jul 2018 19:26:36 +0100
REM compiler GCC version 9.3.0
REM options -cpp -mtune=generic -march=x86-64 -g -O0
REM seed -582999136 1600110056 237521717 1362677290 1859911882 2106173613 1595214494 1513318918 -234066070 -1805468028 -1326593342 -1492325514 -489559002 -1124769912 -56746483 562443090 1659266175 2005452419 -2083554389 848916823 654309961 -1378920792 602579888 232424202 1103398598 1247366575 -1035610772 426339392 -1213762799 -680349996 -82503499 -856071808 1025810697
REM
CELL 1.54180   50.00000   50.00000   50.00000   90.00000   90.00000   90.00000
LATT -1
SFAC C  
C      1  0.4855610000000  0.4340760000000  0.5330540000000 1.0
C      1  0.4565050000000  0.4326670000000  0.4886020000000 1.0
C      1  0.5207710000000  0.4104660000000  0.4879260000000 1.0
C      1  0.4729770000000  0.4203060000000  0.4677650000000 1.0
C      1  0.4759610000000  0.4237260000000  0.5087090000000 1.0
C      1  0.5441790000000  0.4191760000000  0.4934360000000 1.0
C      1  0.5021900000000  0.5184580000000  0.4765270000000 1.0
C      1  0.5248200000000  0.5022330000000  0.5142720000000 1.0
C      1  0.4796130000000  0.5052580000000  0.5154240000000 1.0
C      1  0.5039270000000  0.5167580000000  0.5252070000000 1.0
C      1  0.5243130000000  0.5043060000000  0.4858910000000 1.0
C      1  0.4784940000000  0.5063790000000  0.4860790000000 1.0
C      1  0.5266690000000  0.4729370000000  0.4842020000000 1.0
C      1  0.5009000000000  0.4616120000000  0.5316310000000 1.0
C      1  0.4772470000000  0.4754930000000  0.4846230000000 1.0
C      1  0.5258620000000  0.4719260000000  0.5174090000000 1.0
C      1  0.5024370000000  0.4664650000000  0.4707350000000 1.0
C      1  0.4760920000000  0.4757890000000  0.5173250000000 1.0
C      1  0.4486090000000  0.4614610000000  0.4768220000000 1.0
C      1  0.5516090000000  0.4684170000000  0.4671340000000 1.0
C      1  0.5051160000000  0.4665020000000  0.5615830000000 1.0
C      1  0.4483950000000  0.4686920000000  0.5277870000000 1.0
C      1  0.5506860000000  0.4671520000000  0.5344600000000 1.0
C      1  0.5056380000000  0.4666240000000  0.4415940000000 1.0
C      1  0.4357310000000  0.5653840000000  0.5155030000000 1.0
C      1  0.5226870000000  0.5634810000000  0.4356800000000 1.0
C      1  0.5436010000000  0.5534910000000  0.5621400000000 1.0
C      1  0.4247660000000  0.5504610000000  0.4955240000000 1.0
C      1  0.5189210000000  0.5642880000000  0.5617840000000 1.0
C      1  0.5468100000000  0.5532360000000  0.4401190000000 1.0
C      1  0.4438150000000  0.5144110000000  0.4328920000000 1.0
C      1  0.5890170000000  0.5160100000000  0.4869530000000 1.0
C      1  0.4685490000000  0.5164460000000  0.5829590000000 1.0
C      1  0.4436010000000  0.5157490000000  0.5677140000000 1.0
C      1  0.5882310000000  0.5160920000000  0.5165290000000 1.0
C      1  0.4694780000000  0.5149250000000  0.4185170000000 1.0
C      1  0.4508000000000  0.5523050000000  0.5342270000000 1.0
C      1  0.4977650000000  0.5537420000000  0.4323340000000 1.0
C      1  0.5547610000000  0.5511210000000  0.5360510000000 1.0
C      1  0.4386730000000  0.5487310000000  0.4710310000000 1.0
C      1  0.4944070000000  0.5535760000000  0.5634220000000 1.0
C      1  0.5578880000000  0.5515030000000  0.4666030000000 1.0
C      1  0.4835420000000  0.4541560000000  0.5752880000000 1.0
C      1  0.4461860000000  0.4518380000000  0.4488130000000 1.0
C      1  0.5736790000000  0.4544920000000  0.4775670000000 1.0
C      1  0.4852940000000  0.4521690000000  0.4275960000000 1.0
C      1  0.4460510000000  0.4544800000000  0.5518580000000 1.0
C      1  0.5717390000000  0.4527000000000  0.5226930000000 1.0
C      1  0.5501390000000  0.4853490000000  0.4444960000000 1.0
C      1  0.5239880000000  0.4855730000000  0.5705800000000 1.0
C      1  0.4286430000000  0.4805660000000  0.4872060000000 1.0
C      1  0.5492570000000  0.4852910000000  0.5570620000000 1.0
C      1  0.5248370000000  0.4851120000000  0.4309660000000 1.0
C      1  0.4290590000000  0.4852870000000  0.5153160000000 1.0
C      1  0.4182540000000  0.5039140000000  0.4725920000000 1.0
C      1  0.5639410000000  0.5106170000000  0.4441540000000 1.0
C      1  0.5169180000000  0.5116200000000  0.5842150000000 1.0
C      1  0.4222900000000  0.5120340000000  0.5242790000000 1.0
C      1  0.5622320000000  0.5108120000000  0.5581150000000 1.0
C      1  0.5180010000000  0.5105030000000  0.4169270000000 1.0
C      1  0.6062960000000  0.4930220000000  0.4855070000000 1.0
C      1  0.4609620000000  0.4938940000000  0.5995360000000 1.0
C      1  0.4341360000000  0.4915650000000  0.4178310000000 1.0
C      1  0.6050480000000  0.4924890000000  0.5185500000000 1.0
C      1  0.4627470000000  0.4918790000000  0.4022300000000 1.0
C      1  0.4325630000000  0.4934720000000  0.5823210000000 1.0
C      1  0.5052200000000  0.5444720000000  0.5220490000000 1.0
C      1  0.4603400000000  0.5671690000000  0.4698820000000 1.0
C      1  0.5435750000000  0.5656650000000  0.4865850000000 1.0
C      1  0.4837930000000  0.5696830000000  0.4521200000000 1.0
C      1  0.4799760000000  0.5593360000000  0.5366790000000 1.0
C      1  0.5334830000000  0.5600590000000  0.5157820000000 1.0
C      1  0.5193160000000  0.5875270000000  0.5129730000000 1.0
C      1  0.4824030000000  0.5840330000000  0.5201540000000 1.0
C      1  0.4974280000000  0.5852280000000  0.4726470000000 1.0
C      1  0.5234580000000  0.5860730000000  0.4836850000000 1.0
C      1  0.4750500000000  0.5811430000000  0.4916300000000 1.0
C      1  0.5016110000000  0.6041520000000  0.5246850000000 1.0
C      1  0.5968660000000  0.4657400000000  0.5162260000000 1.0
C      1  0.4389300000000  0.4668120000000  0.5765060000000 1.0
C      1  0.4666680000000  0.4655600000000  0.4104550000000 1.0
C      1  0.5980620000000  0.4664480000000  0.4864590000000 1.0
C      1  0.4402380000000  0.4652520000000  0.4246780000000 1.0
C      1  0.4642450000000  0.4671150000000  0.5921350000000 1.0
C      1  0.4928810000000  0.5287570000000  0.5784710000000 1.0
C      1  0.4335740000000  0.5240600000000  0.4565600000000 1.0
C      1  0.5731610000000  0.5265670000000  0.4664640000000 1.0
C      1  0.4940000000000  0.5270660000000  0.4215690000000 1.0
C      1  0.4367740000000  0.5275460000000  0.5433760000000 1.0
C      1  0.5714550000000  0.5272530000000  0.5361560000000 1.0
C      1  0.4112570000000  0.5262540000000  0.5022720000000 1.0
C      1  0.5398220000000  0.5213700000000  0.4026540000000 1.0
C      1  0.5484430000000  0.5290920000000  0.5761320000000 1.0
C      1  0.3948370000000  0.5133490000000  0.4847170000000 1.0
C      1  0.5377640000000  0.5225220000000  0.6001980000000 1.0
C      1  0.5507520000000  0.5287540000000  0.4262850000000 1.0
C      1  0.5641520000000  0.4366980000000  0.4988720000000 1.0
C      1  0.4696710000000  0.4386380000000  0.5555720000000 1.0
C      1  0.4689080000000  0.4346050000000  0.4441530000000 1.0
C      1  0.4931990000000  0.4118060000000  0.4873290000000 1.0
END
