TITL C-22434-4666-12 -0.141977979110016 125000 -651.054627901876 0 0 91 (C1) n - 1
REM
REM in /rds/project/t2_vol4/rds-t2-cs072/BORA/CARBON/from-Arr/AIRSS/Generating-Clusters/GAP-ML-2020/Higher-Symm/SD-CG/HFTN-CG
REM
REM
REM
REM
REM
REM ./C.cell (b20cbc046b6831c77cfcea5457e17084)
REM AIRSS Version 0.9.1 bugfix July 2018 build 013d7b7c2542+ Fri, 06 Jul 2018 19:26:36 +0100
REM compiler GCC version 9.3.0
REM options -cpp -mtune=generic -march=x86-64 -g -O0
REM seed -1747023492 1421088580 1078773507 -2000891328 -890614306 -445658974 -1322718557 1188230075 -1193811571 1460951600 -1160340760 1724559885 19420913 1319332764 -1885010495 1066486035 1095850526 -1667989793 195941177 162194555 112192160 723248878 1741260922 1988939457 -166263620 1495533775 97234935 -814487027 -1030861660 -1251796130 -1169942815 -218782318 1080088567
REM
CELL 1.54180   50.00000   50.00000   50.00000   90.00000   90.00000   90.00000
LATT -1
SFAC C  
C      1  0.5146810000000  0.4274580000000  0.4552380000000 1.0
C      1  0.4637220000000  0.4279460000000  0.4734030000000 1.0
C      1  0.4641490000000  0.4263390000000  0.5275110000000 1.0
C      1  0.5160880000000  0.4266730000000  0.5433700000000 1.0
C      1  0.5468800000000  0.4282300000000  0.4987820000000 1.0
C      1  0.4871740000000  0.4280200000000  0.4558800000000 1.0
C      1  0.5382680000000  0.4277010000000  0.4726500000000 1.0
C      1  0.5378640000000  0.4279770000000  0.5266570000000 1.0
C      1  0.4865260000000  0.4264130000000  0.5434960000000 1.0
C      1  0.4549350000000  0.4262800000000  0.4993870000000 1.0
C      1  0.5084160000000  0.5273300000000  0.5172260000000 1.0
C      1  0.5102150000000  0.4817070000000  0.5190330000000 1.0
C      1  0.5252230000000  0.5192830000000  0.4919400000000 1.0
C      1  0.5033270000000  0.4864830000000  0.4738410000000 1.0
C      1  0.4780830000000  0.5182630000000  0.4866740000000 1.0
C      1  0.5095860000000  0.5051990000000  0.5335540000000 1.0
C      1  0.4839280000000  0.5341430000000  0.5077780000000 1.0
C      1  0.4776440000000  0.4887640000000  0.4891250000000 1.0
C      1  0.5038100000000  0.5163280000000  0.4698770000000 1.0
C      1  0.5251240000000  0.4882920000000  0.4934300000000 1.0
C      1  0.4402980000000  0.5188290000000  0.4439520000000 1.0
C      1  0.4325930000000  0.5188850000000  0.5364650000000 1.0
C      1  0.5166250000000  0.5197150000000  0.5777400000000 1.0
C      1  0.5827320000000  0.5193900000000  0.5100680000000 1.0
C      1  0.5345260000000  0.5183620000000  0.4310010000000 1.0
C      1  0.5608260000000  0.5177100000000  0.4437680000000 1.0
C      1  0.5713420000000  0.5196050000000  0.5373460000000 1.0
C      1  0.4870070000000  0.5194260000000  0.5761180000000 1.0
C      1  0.4213720000000  0.5189820000000  0.5091470000000 1.0
C      1  0.4650490000000  0.5190900000000  0.4277950000000 1.0
C      1  0.5151210000000  0.4689140000000  0.4245650000000 1.0
C      1  0.4341050000000  0.4685530000000  0.4622660000000 1.0
C      1  0.4470750000000  0.4691640000000  0.5494350000000 1.0
C      1  0.5331690000000  0.4689460000000  0.5688490000000 1.0
C      1  0.5767850000000  0.4691920000000  0.4902090000000 1.0
C      1  0.4854380000000  0.4690860000000  0.4251050000000 1.0
C      1  0.5674370000000  0.4685340000000  0.4619320000000 1.0
C      1  0.5563710000000  0.4694930000000  0.5506580000000 1.0
C      1  0.4705760000000  0.4694210000000  0.5668740000000 1.0
C      1  0.4254540000000  0.4682390000000  0.4904200000000 1.0
C      1  0.5811490000000  0.4900510000000  0.5096610000000 1.0
C      1  0.5346970000000  0.4894180000000  0.4271970000000 1.0
C      1  0.4411280000000  0.4895510000000  0.4439850000000 1.0
C      1  0.4327210000000  0.4899840000000  0.5365550000000 1.0
C      1  0.5166920000000  0.4902080000000  0.5779410000000 1.0
C      1  0.4217580000000  0.4895330000000  0.5091470000000 1.0
C      1  0.4653700000000  0.4897770000000  0.4268280000000 1.0
C      1  0.5601050000000  0.4882000000000  0.4423330000000 1.0
C      1  0.5710310000000  0.4903100000000  0.5373310000000 1.0
C      1  0.4870370000000  0.4903920000000  0.5764150000000 1.0
C      1  0.4329350000000  0.5400100000000  0.4620160000000 1.0
C      1  0.4465570000000  0.5400670000000  0.5493210000000 1.0
C      1  0.5327600000000  0.5409410000000  0.5677000000000 1.0
C      1  0.5809430000000  0.5397030000000  0.4899110000000 1.0
C      1  0.5125460000000  0.5340090000000  0.4430870000000 1.0
C      1  0.5671580000000  0.5332900000000  0.4655110000000 1.0
C      1  0.5553850000000  0.5402930000000  0.5490060000000 1.0
C      1  0.4703690000000  0.5400960000000  0.5662340000000 1.0
C      1  0.4245250000000  0.5403850000000  0.4904550000000 1.0
C      1  0.4854810000000  0.5391330000000  0.4292730000000 1.0
C      1  0.5155110000000  0.5629370000000  0.5640960000000 1.0
C      1  0.5597440000000  0.5590310000000  0.5003570000000 1.0
C      1  0.5253300000000  0.5558120000000  0.4585370000000 1.0
C      1  0.4482880000000  0.5622660000000  0.4548870000000 1.0
C      1  0.4428220000000  0.5626700000000  0.5333680000000 1.0
C      1  0.4864780000000  0.5630170000000  0.5639460000000 1.0
C      1  0.4324120000000  0.5625170000000  0.5061800000000 1.0
C      1  0.4734190000000  0.5616000000000  0.4401020000000 1.0
C      1  0.5421340000000  0.5426390000000  0.4791160000000 1.0
C      1  0.5561690000000  0.5604960000000  0.5299530000000 1.0
C      1  0.4342570000000  0.4464800000000  0.5059290000000 1.0
C      1  0.4870470000000  0.4467070000000  0.5650240000000 1.0
C      1  0.5587080000000  0.4477430000000  0.5332880000000 1.0
C      1  0.5512970000000  0.4468990000000  0.4545670000000 1.0
C      1  0.4737550000000  0.4471500000000  0.4379490000000 1.0
C      1  0.5676620000000  0.4478690000000  0.5056840000000 1.0
C      1  0.5161690000000  0.4467860000000  0.5650900000000 1.0
C      1  0.4434710000000  0.4464810000000  0.5335450000000 1.0
C      1  0.4505390000000  0.4470470000000  0.4553270000000 1.0
C      1  0.5275010000000  0.4470570000000  0.4373100000000 1.0
C      1  0.4600070000000  0.5821450000000  0.4729970000000 1.0
C      1  0.4629850000000  0.5833870000000  0.5266640000000 1.0
C      1  0.5156020000000  0.5830690000000  0.5427590000000 1.0
C      1  0.5450540000000  0.5860090000000  0.4996320000000 1.0
C      1  0.5128940000000  0.5801280000000  0.4653650000000 1.0
C      1  0.5279960000000  0.5966000000000  0.4820980000000 1.0
C      1  0.5390460000000  0.5832440000000  0.5280280000000 1.0
C      1  0.4859530000000  0.5833980000000  0.5420940000000 1.0
C      1  0.4518980000000  0.5835390000000  0.4992910000000 1.0
C      1  0.4852810000000  0.5806080000000  0.4581930000000 1.0
C      1  0.4840710000000  0.4761590000000  0.5122430000000 1.0
END
