TITL C-22448-6721-10 46.8142783772205 125000 -1119.35727955503 0 0 163 (C1) n - 1
REM
REM in /rds/project/t2_vol4/rds-t2-cs072/BORA/CARBON/from-Arr/AIRSS/Generating-Clusters/GAP-ML-2020/Higher-Symm/SD-CG/HFTN-CG
REM
REM
REM
REM
REM
REM ./C.cell (b20cbc046b6831c77cfcea5457e17084)
REM AIRSS Version 0.9.1 bugfix July 2018 build 013d7b7c2542+ Fri, 06 Jul 2018 19:26:36 +0100
REM compiler GCC version 9.3.0
REM options -cpp -mtune=generic -march=x86-64 -g -O0
REM seed 1534335495 1228061683 204659243 -1090648186 -1936127791 1979167362 1540984552 -1687014834 -2073565031 1564810608 -86634493 -865997437 -997360738 1245773543 758668282 1258696372 -1403760802 -898555283 -261629428 1582290412 331310956 703870859 65500416 1916593507 -1678212971 1954784042 -1126469377 207097336 527911465 1731954404 -729909671 1999901542 593441930
REM
CELL 1.54180   50.00000   50.00000   50.00000   90.00000   90.00000   90.00000
LATT -1
SFAC C  
C      1  0.5715940000000  0.5758910000000  0.5011840000000 1.0
C      1  0.3960390000000  0.5251490000000  0.4985560000000 1.0
C      1  0.5321510000000  0.3929900000000  0.4968070000000 1.0
C      1  0.4284070000000  0.5769350000000  0.4985250000000 1.0
C      1  0.6026280000000  0.5238740000000  0.5020740000000 1.0
C      1  0.4703380000000  0.3972610000000  0.5013970000000 1.0
C      1  0.4296270000000  0.4251290000000  0.5039260000000 1.0
C      1  0.6007660000000  0.4775870000000  0.4970950000000 1.0
C      1  0.4696760000000  0.6008130000000  0.4997220000000 1.0
C      1  0.5712940000000  0.4247560000000  0.4956050000000 1.0
C      1  0.3970570000000  0.4770550000000  0.5029480000000 1.0
C      1  0.5306360000000  0.6005490000000  0.4995570000000 1.0
C      1  0.4013530000000  0.4305700000000  0.4967010000000 1.0
C      1  0.6069570000000  0.4521250000000  0.4837510000000 1.0
C      1  0.4891630000000  0.6214610000000  0.4912420000000 1.0
C      1  0.5988680000000  0.4321260000000  0.5021010000000 1.0
C      1  0.3924810000000  0.4505190000000  0.5147640000000 1.0
C      1  0.5114360000000  0.6213900000000  0.5085520000000 1.0
C      1  0.5986580000000  0.5696750000000  0.5115770000000 1.0
C      1  0.3886400000000  0.5529220000000  0.5065900000000 1.0
C      1  0.5115720000000  0.3739120000000  0.5062730000000 1.0
C      1  0.4012610000000  0.5705890000000  0.4886470000000 1.0
C      1  0.6102990000000  0.5512860000000  0.4937260000000 1.0
C      1  0.4877730000000  0.3754580000000  0.4907470000000 1.0
C      1  0.5624300000000  0.4418480000000  0.5200830000000 1.0
C      1  0.5196310000000  0.5820060000000  0.5210120000000 1.0
C      1  0.4197680000000  0.4796440000000  0.5238180000000 1.0
C      1  0.4378190000000  0.4425710000000  0.4803280000000 1.0
C      1  0.4804790000000  0.5823870000000  0.4776580000000 1.0
C      1  0.5765000000000  0.4786810000000  0.4785390000000 1.0
C      1  0.4395430000000  0.5581540000000  0.4767150000000 1.0
C      1  0.4803820000000  0.4151260000000  0.4783860000000 1.0
C      1  0.5819240000000  0.5236500000000  0.4793560000000 1.0
C      1  0.5602630000000  0.5570950000000  0.5225160000000 1.0
C      1  0.5249650000000  0.4098580000000  0.5220650000000 1.0
C      1  0.4163960000000  0.5256920000000  0.5213350000000 1.0
C      1  0.5918280000000  0.4640310000000  0.5449690000000 1.0
C      1  0.4847550000000  0.5961770000000  0.5467620000000 1.0
C      1  0.4337210000000  0.4442420000000  0.5489070000000 1.0
C      1  0.4076360000000  0.4638340000000  0.4554190000000 1.0
C      1  0.5158000000000  0.5966320000000  0.4531040000000 1.0
C      1  0.5667860000000  0.4430210000000  0.4501190000000 1.0
C      1  0.4112080000000  0.5333680000000  0.4513370000000 1.0
C      1  0.5139710000000  0.4008230000000  0.4520090000000 1.0
C      1  0.5758430000000  0.5600000000000  0.4538360000000 1.0
C      1  0.5883700000000  0.5331290000000  0.5494910000000 1.0
C      1  0.4881480000000  0.4013420000000  0.5460830000000 1.0
C      1  0.4237850000000  0.5621780000000  0.5461570000000 1.0
C      1  0.5495850000000  0.4844170000000  0.4904880000000 1.0
C      1  0.4900770000000  0.5523510000000  0.4881380000000 1.0
C      1  0.4488090000000  0.4722680000000  0.4847090000000 1.0
C      1  0.4465480000000  0.4860850000000  0.5097530000000 1.0
C      1  0.5096400000000  0.5520490000000  0.5101870000000 1.0
C      1  0.5498790000000  0.4711660000000  0.5156600000000 1.0
C      1  0.4474480000000  0.5190890000000  0.5101840000000 1.0
C      1  0.5133450000000  0.4354930000000  0.5103510000000 1.0
C      1  0.5397470000000  0.5342380000000  0.5117790000000 1.0
C      1  0.5500580000000  0.5175010000000  0.4900640000000 1.0
C      1  0.4991440000000  0.4385250000000  0.4868810000000 1.0
C      1  0.4589210000000  0.5344210000000  0.4881410000000 1.0
C      1  0.5276280000000  0.5203260000000  0.4004440000000 1.0
C      1  0.4761560000000  0.5265630000000  0.3982220000000 1.0
C      1  0.4994080000000  0.4845460000000  0.4006980000000 1.0
C      1  0.4715530000000  0.5198090000000  0.6008610000000 1.0
C      1  0.5214810000000  0.5256690000000  0.6053120000000 1.0
C      1  0.4996690000000  0.4833220000000  0.6006630000000 1.0
C      1  0.4724390000000  0.4914870000000  0.6041950000000 1.0
C      1  0.5231910000000  0.4978770000000  0.6090130000000 1.0
C      1  0.4957650000000  0.5352940000000  0.6002420000000 1.0
C      1  0.5265380000000  0.4923700000000  0.3965670000000 1.0
C      1  0.4761360000000  0.4986520000000  0.3921020000000 1.0
C      1  0.5020450000000  0.5358400000000  0.4076260000000 1.0
C      1  0.4378450000000  0.5794150000000  0.5268670000000 1.0
C      1  0.4653300000000  0.4061140000000  0.5285410000000 1.0
C      1  0.5991200000000  0.5134940000000  0.5294980000000 1.0
C      1  0.5622410000000  0.5781290000000  0.4727250000000 1.0
C      1  0.5372810000000  0.4034070000000  0.4700090000000 1.0
C      1  0.4001170000000  0.5138010000000  0.4713140000000 1.0
C      1  0.5592210000000  0.4220430000000  0.4693040000000 1.0
C      1  0.5380190000000  0.5929230000000  0.4720890000000 1.0
C      1  0.3992930000000  0.4853830000000  0.4737660000000 1.0
C      1  0.4426870000000  0.4238780000000  0.5301590000000 1.0
C      1  0.4625430000000  0.5934140000000  0.5273710000000 1.0
C      1  0.5999810000000  0.4852580000000  0.5267310000000 1.0
C      1  0.5003640000000  0.4706480000000  0.4274720000000 1.0
C      1  0.5269150000000  0.5124110000000  0.4415720000000 1.0
C      1  0.4748020000000  0.5114350000000  0.4398690000000 1.0
C      1  0.4990610000000  0.4717410000000  0.5727850000000 1.0
C      1  0.4725750000000  0.5143590000000  0.5598310000000 1.0
C      1  0.5240910000000  0.5143170000000  0.5616330000000 1.0
C      1  0.4982640000000  0.5288990000000  0.5603740000000 1.0
C      1  0.4730870000000  0.4835520000000  0.5569240000000 1.0
C      1  0.5247410000000  0.4833290000000  0.5617770000000 1.0
C      1  0.5006490000000  0.5246250000000  0.4377900000000 1.0
C      1  0.5262710000000  0.4812190000000  0.4434540000000 1.0
C      1  0.4747100000000  0.4806140000000  0.4400040000000 1.0
C      1  0.4108000000000  0.5577150000000  0.4652420000000 1.0
C      1  0.4932000000000  0.3897460000000  0.4668560000000 1.0
C      1  0.5963660000000  0.5492830000000  0.4691940000000 1.0
C      1  0.5890160000000  0.5572330000000  0.5351980000000 1.0
C      1  0.5082010000000  0.3875120000000  0.5313450000000 1.0
C      1  0.4028040000000  0.5513000000000  0.5310700000000 1.0
C      1  0.5917410000000  0.4420060000000  0.5279220000000 1.0
C      1  0.5054530000000  0.6079860000000  0.5324990000000 1.0
C      1  0.4099320000000  0.4548960000000  0.5375290000000 1.0
C      1  0.4080610000000  0.4411200000000  0.4714580000000 1.0
C      1  0.4948410000000  0.6080710000000  0.4672200000000 1.0
C      1  0.5894520000000  0.4576060000000  0.4599850000000 1.0
C      1  0.5277950000000  0.5770510000000  0.5494710000000 1.0
C      1  0.4226760000000  0.4885320000000  0.5521950000000 1.0
C      1  0.5542180000000  0.4359250000000  0.5490960000000 1.0
C      1  0.4731970000000  0.5765370000000  0.4487520000000 1.0
C      1  0.5779770000000  0.4849340000000  0.4481030000000 1.0
C      1  0.4465110000000  0.4358030000000  0.4519820000000 1.0
C      1  0.4713490000000  0.4228640000000  0.4506060000000 1.0
C      1  0.5822840000000  0.5131980000000  0.4509300000000 1.0
C      1  0.4492590000000  0.5617130000000  0.4482620000000 1.0
C      1  0.5312250000000  0.4201180000000  0.5511860000000 1.0
C      1  0.4177360000000  0.5160150000000  0.5502990000000 1.0
C      1  0.5515190000000  0.5621760000000  0.5508070000000 1.0
C      1  0.4727030000000  0.4819560000000  0.4705610000000 1.0
C      1  0.5229180000000  0.4826460000000  0.4734010000000 1.0
C      1  0.4999020000000  0.5300150000000  0.4695540000000 1.0
C      1  0.5285260000000  0.4825840000000  0.5316020000000 1.0
C      1  0.4728480000000  0.4865190000000  0.5260510000000 1.0
C      1  0.4989210000000  0.5301880000000  0.5292010000000 1.0
C      1  0.5256120000000  0.5142120000000  0.5305030000000 1.0
C      1  0.4717410000000  0.5171810000000  0.5291000000000 1.0
C      1  0.5124600000000  0.4603740000000  0.5239330000000 1.0
C      1  0.4736610000000  0.5136520000000  0.4703090000000 1.0
C      1  0.5255440000000  0.5150340000000  0.4715380000000 1.0
C      1  0.4966100000000  0.4691990000000  0.4832400000000 1.0
C      1  0.5456300000000  0.5319950000000  0.4219860000000 1.0
C      1  0.4531490000000  0.5221830000000  0.4184050000000 1.0
C      1  0.5071830000000  0.4417580000000  0.4194460000000 1.0
C      1  0.4533790000000  0.5326220000000  0.5795860000000 1.0
C      1  0.5453730000000  0.5235780000000  0.5829560000000 1.0
C      1  0.4929770000000  0.4417090000000  0.5789730000000 1.0
C      1  0.4559870000000  0.4689400000000  0.5927160000000 1.0
C      1  0.5504180000000  0.4751270000000  0.5775070000000 1.0
C      1  0.4926720000000  0.5553570000000  0.5780510000000 1.0
C      1  0.5434300000000  0.4692800000000  0.4067480000000 1.0
C      1  0.4493990000000  0.4740110000000  0.4236140000000 1.0
C      1  0.5104040000000  0.5634170000000  0.4147600000000 1.0
C      1  0.5681290000000  0.4579720000000  0.5631840000000 1.0
C      1  0.5021930000000  0.5789510000000  0.5641250000000 1.0
C      1  0.4448440000000  0.4705430000000  0.5643820000000 1.0
C      1  0.4318450000000  0.4575240000000  0.4377320000000 1.0
C      1  0.4989640000000  0.5802110000000  0.4346900000000 1.0
C      1  0.5544850000000  0.4689540000000  0.4352560000000 1.0
C      1  0.4353910000000  0.5395090000000  0.4338780000000 1.0
C      1  0.4974600000000  0.4206850000000  0.4360240000000 1.0
C      1  0.5706420000000  0.5358510000000  0.4363550000000 1.0
C      1  0.5637840000000  0.5399030000000  0.5665920000000 1.0
C      1  0.5039580000000  0.4199640000000  0.5633290000000 1.0
C      1  0.4292020000000  0.5388810000000  0.5644200000000 1.0
C      1  0.4647670000000  0.5577540000000  0.5792340000000 1.0
C      1  0.4702170000000  0.4451410000000  0.5948390000000 1.0
C      1  0.5493730000000  0.4955830000000  0.5962310000000 1.0
C      1  0.5366490000000  0.5584490000000  0.4194320000000 1.0
C      1  0.5295380000000  0.4454440000000  0.4029790000000 1.0
C      1  0.4499460000000  0.4945600000000  0.4047240000000 1.0
C      1  0.4943420000000  0.4764750000000  0.5113230000000 1.0
END
