TITL C-22215-3571-8 0.0627866646178158 125000 -767.967782539886 0 0 110 (C1) n - 1
REM
REM in /rds/project/t2_vol4/rds-t2-cs072/BORA/CARBON/from-Arr/AIRSS/Generating-Clusters/GAP-ML-2020/Higher-Symm/SD-CG/HFTN-CG
REM
REM
REM
REM
REM
REM ./C.cell (b20cbc046b6831c77cfcea5457e17084)
REM AIRSS Version 0.9.1 bugfix July 2018 build 013d7b7c2542+ Fri, 06 Jul 2018 19:26:36 +0100
REM compiler GCC version 9.3.0
REM options -cpp -mtune=generic -march=x86-64 -g -O0
REM seed -276232813 -2054640794 -365941053 -191943853 1337757710 -502330201 159301358 639634762 -811747721 -580821901 -1803489940 1406866191 -1420842713 -256475234 -1997464534 -2071466148 -1737448642 1791985648 229407514 716301174 1860337932 -644019375 1580995223 339178923 -1786506170 606654480 -1497066660 1108594741 917572021 -1541718992 -86660015 952528820 1803951459
REM
CELL 1.54180   50.00000   50.00000   50.00000   90.00000   90.00000   90.00000
LATT -1
SFAC C  
C      1  0.5883990000000  0.4486530000000  0.5074840000000 1.0
C      1  0.5191020000000  0.4486970000000  0.5880980000000 1.0
C      1  0.4201700000000  0.4477690000000  0.5419990000000 1.0
C      1  0.4370300000000  0.4496880000000  0.4431870000000 1.0
C      1  0.5249230000000  0.4563480000000  0.4192020000000 1.0
C      1  0.4535650000000  0.4947980000000  0.4418400000000 1.0
C      1  0.5378600000000  0.5014700000000  0.4184110000000 1.0
C      1  0.5694150000000  0.4959090000000  0.5036500000000 1.0
C      1  0.5171110000000  0.4970230000000  0.5711240000000 1.0
C      1  0.4363120000000  0.4971670000000  0.5450300000000 1.0
C      1  0.5279050000000  0.5607500000000  0.5691090000000 1.0
C      1  0.4423930000000  0.5623040000000  0.5515670000000 1.0
C      1  0.4461030000000  0.5532410000000  0.4549710000000 1.0
C      1  0.5220010000000  0.5639590000000  0.4266680000000 1.0
C      1  0.5732440000000  0.5599410000000  0.4946920000000 1.0
C      1  0.4273400000000  0.5630100000000  0.5145920000000 1.0
C      1  0.4742570000000  0.5633590000000  0.4314160000000 1.0
C      1  0.5502780000000  0.5640260000000  0.4536410000000 1.0
C      1  0.5603950000000  0.5629720000000  0.5326880000000 1.0
C      1  0.4877580000000  0.5636780000000  0.5698210000000 1.0
C      1  0.5077640000000  0.5770400000000  0.5543280000000 1.0
C      1  0.4492780000000  0.5774050000000  0.5266090000000 1.0
C      1  0.4660030000000  0.5752000000000  0.4557860000000 1.0
C      1  0.5251010000000  0.5778350000000  0.4529730000000 1.0
C      1  0.5525180000000  0.5764050000000  0.5087280000000 1.0
C      1  0.5462960000000  0.4963670000000  0.5614800000000 1.0
C      1  0.4557120000000  0.4965610000000  0.5678900000000 1.0
C      1  0.4357410000000  0.4921090000000  0.4937470000000 1.0
C      1  0.5091770000000  0.4998980000000  0.4113500000000 1.0
C      1  0.5707960000000  0.4949250000000  0.4726490000000 1.0
C      1  0.4694380000000  0.5414060000000  0.5274590000000 1.0
C      1  0.4576670000000  0.5441210000000  0.4799480000000 1.0
C      1  0.5070450000000  0.5409350000000  0.4607090000000 1.0
C      1  0.5367180000000  0.5392610000000  0.4959220000000 1.0
C      1  0.5142440000000  0.5404410000000  0.5351760000000 1.0
C      1  0.5722350000000  0.4676210000000  0.4305110000000 1.0
C      1  0.5841930000000  0.4712890000000  0.5442750000000 1.0
C      1  0.4831660000000  0.4690600000000  0.5946280000000 1.0
C      1  0.4099510000000  0.4629700000000  0.5205710000000 1.0
C      1  0.4791610000000  0.4568170000000  0.4223610000000 1.0
C      1  0.5242560000000  0.5672350000000  0.5020300000000 1.0
C      1  0.5049220000000  0.5685410000000  0.5254520000000 1.0
C      1  0.4764220000000  0.5695830000000  0.5146930000000 1.0
C      1  0.4785850000000  0.5700740000000  0.4834650000000 1.0
C      1  0.5081340000000  0.5676960000000  0.4764150000000 1.0
C      1  0.4372440000000  0.4399720000000  0.4897890000000 1.0
C      1  0.4891930000000  0.4337900000000  0.4368610000000 1.0
C      1  0.5563420000000  0.4431960000000  0.4708340000000 1.0
C      1  0.5426500000000  0.4470870000000  0.5458390000000 1.0
C      1  0.4674600000000  0.4459260000000  0.5551680000000 1.0
C      1  0.5424610000000  0.5454320000000  0.5482660000000 1.0
C      1  0.4670540000000  0.5460090000000  0.5580700000000 1.0
C      1  0.4322070000000  0.5433530000000  0.4942740000000 1.0
C      1  0.4984410000000  0.5469430000000  0.4303540000000 1.0
C      1  0.5581940000000  0.5444530000000  0.4741840000000 1.0
C      1  0.5096290000000  0.4749640000000  0.5903970000000 1.0
C      1  0.4166010000000  0.4756900000000  0.5447300000000 1.0
C      1  0.4539190000000  0.4677560000000  0.4314110000000 1.0
C      1  0.5475840000000  0.4744110000000  0.4204450000000 1.0
C      1  0.5866740000000  0.4747540000000  0.5171950000000 1.0
C      1  0.4780630000000  0.4725420000000  0.4846250000000 1.0
C      1  0.5056930000000  0.4695980000000  0.4801050000000 1.0
C      1  0.5227020000000  0.4674870000000  0.5060260000000 1.0
C      1  0.5000260000000  0.4688910000000  0.5278500000000 1.0
C      1  0.4752040000000  0.4730800000000  0.5125070000000 1.0
C      1  0.5071150000000  0.5474930000000  0.5835600000000 1.0
C      1  0.4210380000000  0.5482130000000  0.5388310000000 1.0
C      1  0.4526890000000  0.5431550000000  0.4297840000000 1.0
C      1  0.5469180000000  0.5504940000000  0.4290000000000 1.0
C      1  0.5795940000000  0.5466030000000  0.5189830000000 1.0
C      1  0.4905210000000  0.5207740000000  0.4170050000000 1.0
C      1  0.5641350000000  0.5188930000000  0.4584980000000 1.0
C      1  0.5569090000000  0.5192120000000  0.5481310000000 1.0
C      1  0.4717700000000  0.5198250000000  0.5726260000000 1.0
C      1  0.4235970000000  0.5179710000000  0.5038550000000 1.0
C      1  0.5222420000000  0.5149500000000  0.4995380000000 1.0
C      1  0.5042910000000  0.5154600000000  0.5243220000000 1.0
C      1  0.4751200000000  0.5165420000000  0.5144970000000 1.0
C      1  0.4736090000000  0.5188790000000  0.4839620000000 1.0
C      1  0.5026940000000  0.5164920000000  0.4745450000000 1.0
C      1  0.4230460000000  0.4649980000000  0.4957040000000 1.0
C      1  0.5019990000000  0.4716640000000  0.4124380000000 1.0
C      1  0.5680260000000  0.4683120000000  0.4584580000000 1.0
C      1  0.5582690000000  0.4707040000000  0.5536210000000 1.0
C      1  0.4657660000000  0.4692250000000  0.5734800000000 1.0
C      1  0.5735610000000  0.5192550000000  0.5246280000000 1.0
C      1  0.4993170000000  0.5202310000000  0.5809800000000 1.0
C      1  0.4213930000000  0.5203360000000  0.5325140000000 1.0
C      1  0.4630320000000  0.5170730000000  0.4256850000000 1.0
C      1  0.5525510000000  0.5222650000000  0.4322910000000 1.0
C      1  0.5636360000000  0.4403490000000  0.4984830000000 1.0
C      1  0.5197920000000  0.4410620000000  0.5616130000000 1.0
C      1  0.4463130000000  0.4364760000000  0.5388480000000 1.0
C      1  0.4464640000000  0.4337860000000  0.4631670000000 1.0
C      1  0.5182000000000  0.4351030000000  0.4373280000000 1.0
C      1  0.4949580000000  0.4404740000000  0.5446150000000 1.0
C      1  0.4508150000000  0.4265510000000  0.5118180000000 1.0
C      1  0.4731690000000  0.4221460000000  0.4575300000000 1.0
C      1  0.5329630000000  0.4281370000000  0.4611620000000 1.0
C      1  0.5400090000000  0.4408550000000  0.5165540000000 1.0
C      1  0.5054070000000  0.4926180000000  0.5435130000000 1.0
C      1  0.4556620000000  0.4928110000000  0.5192640000000 1.0
C      1  0.4584270000000  0.4946020000000  0.4728450000000 1.0
C      1  0.5092130000000  0.4908450000000  0.4644260000000 1.0
C      1  0.5396170000000  0.4912050000000  0.5046910000000 1.0
C      1  0.4973340000000  0.4195680000000  0.5238760000000 1.0
C      1  0.4760370000000  0.4149130000000  0.5060240000000 1.0
C      1  0.4876310000000  0.4131480000000  0.4796410000000 1.0
C      1  0.5162390000000  0.4158900000000  0.4813580000000 1.0
C      1  0.5214860000000  0.4195540000000  0.5090290000000 1.0
END
