TITL C-22176-1988-4 0.0675036888636197 125000 -424.933954342552 0 0 61 (C1) n - 1
REM
REM in /rds/project/t2_vol4/rds-t2-cs072/BORA/CARBON/from-Arr/AIRSS/Generating-Clusters/GAP-ML-2020/Higher-Symm/SD-CG/HFTN-CG
REM
REM
REM
REM
REM
REM ./C.cell (b20cbc046b6831c77cfcea5457e17084)
REM AIRSS Version 0.9.1 bugfix July 2018 build 013d7b7c2542+ Fri, 06 Jul 2018 19:26:36 +0100
REM compiler GCC version 9.3.0
REM options -cpp -mtune=generic -march=x86-64 -g -O0
REM seed 1981159777 -706969817 -1754253926 1855439543 506186278 -1995211785 -2124592444 -2035738326 860421365 -1735172001 1712429684 -1721372900 1916737561 1176940064 1852107207 -1429685221 -1188375555 1279193704 -1517256608 1413255738 790141423 1874484059 149093136 2103360187 -173049398 -1402254979 1045066207 -593649099 829035051 -1222465212 1760769174 -1304353593 -988625373
REM
CELL 1.54180   50.00000   50.00000   50.00000   90.00000   90.00000   90.00000
LATT -1
SFAC C  
C      1  0.4486850000000  0.5361950000000  0.5229330000000 1.0
C      1  0.4444620000000  0.4616810000000  0.5247560000000 1.0
C      1  0.5224240000000  0.4340040000000  0.5274790000000 1.0
C      1  0.5708050000000  0.4999220000000  0.5276410000000 1.0
C      1  0.5222690000000  0.5656220000000  0.5276740000000 1.0
C      1  0.5147630000000  0.4561870000000  0.5473090000000 1.0
C      1  0.5482160000000  0.4998950000000  0.5478460000000 1.0
C      1  0.5153720000000  0.5444590000000  0.5484640000000 1.0
C      1  0.4633280000000  0.5267380000000  0.5494720000000 1.0
C      1  0.4638050000000  0.4752820000000  0.5455770000000 1.0
C      1  0.4409010000000  0.5272790000000  0.4660700000000 1.0
C      1  0.4635350000000  0.4580110000000  0.4626650000000 1.0
C      1  0.5342450000000  0.4497340000000  0.4635520000000 1.0
C      1  0.5635090000000  0.5134020000000  0.4647450000000 1.0
C      1  0.5044900000000  0.5592920000000  0.4616990000000 1.0
C      1  0.4244650000000  0.4784910000000  0.5151830000000 1.0
C      1  0.5000960000000  0.4255850000000  0.5133920000000 1.0
C      1  0.5742920000000  0.4750050000000  0.5157140000000 1.0
C      1  0.5454250000000  0.5602290000000  0.5130630000000 1.0
C      1  0.4572750000000  0.5618670000000  0.5140180000000 1.0
C      1  0.4515010000000  0.5006510000000  0.5535720000000 1.0
C      1  0.4859710000000  0.4555900000000  0.5492000000000 1.0
C      1  0.5392300000000  0.4720740000000  0.5492710000000 1.0
C      1  0.5392710000000  0.5276380000000  0.5488510000000 1.0
C      1  0.4861770000000  0.5444660000000  0.5506850000000 1.0
C      1  0.4934800000000  0.5187330000000  0.4997400000000 1.0
C      1  0.4687480000000  0.5139130000000  0.5110120000000 1.0
C      1  0.4708250000000  0.4863920000000  0.5172780000000 1.0
C      1  0.4943660000000  0.4760870000000  0.5054270000000 1.0
C      1  0.5089460000000  0.4974460000000  0.4967260000000 1.0
C      1  0.4813970000000  0.5484150000000  0.4495340000000 1.0
C      1  0.4515090000000  0.5051670000000  0.4534100000000 1.0
C      1  0.4885990000000  0.4565490000000  0.4495100000000 1.0
C      1  0.5413370000000  0.4750510000000  0.4508470000000 1.0
C      1  0.5395150000000  0.5215400000000  0.4497340000000 1.0
C      1  0.5486870000000  0.5516920000000  0.4850150000000 1.0
C      1  0.4653210000000  0.5663430000000  0.4869060000000 1.0
C      1  0.4268670000000  0.4875060000000  0.4868240000000 1.0
C      1  0.4934300000000  0.4296050000000  0.4859310000000 1.0
C      1  0.5696150000000  0.4688550000000  0.4879400000000 1.0
C      1  0.5309980000000  0.5478140000000  0.4616120000000 1.0
C      1  0.4578390000000  0.5500970000000  0.4643080000000 1.0
C      1  0.4458300000000  0.4804460000000  0.4645940000000 1.0
C      1  0.5073410000000  0.4407780000000  0.4629210000000 1.0
C      1  0.5644510000000  0.4853750000000  0.4658190000000 1.0
C      1  0.5680680000000  0.5305330000000  0.4863980000000 1.0
C      1  0.4932780000000  0.5727030000000  0.4860340000000 1.0
C      1  0.4247700000000  0.5157430000000  0.4877270000000 1.0
C      1  0.4668220000000  0.4401850000000  0.4854950000000 1.0
C      1  0.5511110000000  0.4467560000000  0.4868160000000 1.0
C      1  0.4793050000000  0.5666370000000  0.5309580000000 1.0
C      1  0.4263010000000  0.5003610000000  0.5329960000000 1.0
C      1  0.4789930000000  0.4351340000000  0.5291050000000 1.0
C      1  0.5582750000000  0.4579560000000  0.5314800000000 1.0
C      1  0.5576630000000  0.5412940000000  0.5299290000000 1.0
C      1  0.4570270000000  0.4401240000000  0.5123410000000 1.0
C      1  0.5467170000000  0.4384050000000  0.5145820000000 1.0
C      1  0.5733960000000  0.5242330000000  0.5140890000000 1.0
C      1  0.5003390000000  0.5756460000000  0.5142770000000 1.0
C      1  0.4243330000000  0.5227550000000  0.5163790000000 1.0
C      1  0.5278870000000  0.4968850000000  0.4398270000000 1.0
END
