TITL C-22228-3584-3 -44.3206620338437 125000 -490.758014475494 0 0 74 (C1) n - 1
REM
REM in /rds/project/t2_vol4/rds-t2-cs072/BORA/CARBON/from-Arr/AIRSS/Generating-Clusters/GAP-ML-2020/Higher-Symm/SD-CG/HFTN-CG
REM
REM
REM
REM
REM
REM ./C.cell (b20cbc046b6831c77cfcea5457e17084)
REM AIRSS Version 0.9.1 bugfix July 2018 build 013d7b7c2542+ Fri, 06 Jul 2018 19:26:36 +0100
REM compiler GCC version 9.3.0
REM options -cpp -mtune=generic -march=x86-64 -g -O0
REM seed -2033816696 -2087400539 1999161819 484099667 -980591400 -282629083 156368292 -1620963651 1344428386 2139935744 1543476310 -372819452 -1266887629 -1269893630 -433042413 -738809327 -1344316665 -584442649 1474579052 218430227 1714850126 -760669220 657548386 459112894 1610357311 2049789867 566187589 -476132636 -1826016045 -246382410 -1301636803 -238646386 -1223267744
REM
CELL 1.54180   50.00000   50.00000   50.00000   90.00000   90.00000   90.00000
LATT -1
SFAC C  
C      1  0.4331930000000  0.4841270000000  0.5018650000000 1.0
C      1  0.4340480000000  0.5111660000000  0.5163270000000 1.0
C      1  0.4336550000000  0.5105550000000  0.4857720000000 1.0
C      1  0.5643810000000  0.4806370000000  0.4998790000000 1.0
C      1  0.5652370000000  0.5074450000000  0.5150550000000 1.0
C      1  0.5648770000000  0.5068260000000  0.4842070000000 1.0
C      1  0.5219650000000  0.5811530000000  0.5683220000000 1.0
C      1  0.5031390000000  0.5153920000000  0.3995880000000 1.0
C      1  0.5021460000000  0.4049580000000  0.5374630000000 1.0
C      1  0.4966990000000  0.5796450000000  0.5643160000000 1.0
C      1  0.4779790000000  0.5185700000000  0.3959150000000 1.0
C      1  0.4768500000000  0.4008540000000  0.5377370000000 1.0
C      1  0.5274260000000  0.5260220000000  0.4581080000000 1.0
C      1  0.5258110000000  0.4497320000000  0.4978370000000 1.0
C      1  0.5281330000000  0.5221390000000  0.5441510000000 1.0
C      1  0.4716580000000  0.5274550000000  0.4590840000000 1.0
C      1  0.4700640000000  0.4512900000000  0.4988450000000 1.0
C      1  0.4724420000000  0.5238870000000  0.5448420000000 1.0
C      1  0.4873360000000  0.5924690000000  0.4934790000000 1.0
C      1  0.4806190000000  0.4478160000000  0.4248180000000 1.0
C      1  0.4832070000000  0.4611010000000  0.5843090000000 1.0
C      1  0.5176550000000  0.5917090000000  0.4927470000000 1.0
C      1  0.5109500000000  0.4476200000000  0.4241360000000 1.0
C      1  0.5135060000000  0.4598570000000  0.5835480000000 1.0
C      1  0.5235850000000  0.4804830000000  0.5677120000000 1.0
C      1  0.5257320000000  0.5672820000000  0.4823120000000 1.0
C      1  0.5211930000000  0.4505170000000  0.4499390000000 1.0
C      1  0.4746970000000  0.4823590000000  0.5686040000000 1.0
C      1  0.4768500000000  0.5687080000000  0.4832980000000 1.0
C      1  0.4722620000000  0.4512170000000  0.4510520000000 1.0
C      1  0.4443150000000  0.5225970000000  0.5376930000000 1.0
C      1  0.4434090000000  0.5226980000000  0.4645860000000 1.0
C      1  0.4421450000000  0.4594380000000  0.5015190000000 1.0
C      1  0.5561760000000  0.5196250000000  0.5364870000000 1.0
C      1  0.5553610000000  0.5199940000000  0.4635570000000 1.0
C      1  0.5540510000000  0.4564540000000  0.4991410000000 1.0
C      1  0.4832200000000  0.4777220000000  0.4858990000000 1.0
C      1  0.4841160000000  0.4991120000000  0.5277720000000 1.0
C      1  0.4843190000000  0.5245760000000  0.4883460000000 1.0
C      1  0.5140840000000  0.4769470000000  0.4856180000000 1.0
C      1  0.5149740000000  0.4982940000000  0.5273110000000 1.0
C      1  0.5151770000000  0.5238240000000  0.4878910000000 1.0
C      1  0.4859320000000  0.5553990000000  0.4585000000000 1.0
C      1  0.4825330000000  0.4362870000000  0.4744100000000 1.0
C      1  0.4856240000000  0.5096120000000  0.5693780000000 1.0
C      1  0.5148910000000  0.5546500000000  0.4580630000000 1.0
C      1  0.5115070000000  0.4359600000000  0.4735770000000 1.0
C      1  0.5145800000000  0.5086500000000  0.5689480000000 1.0
C      1  0.4814970000000  0.4499220000000  0.5271740000000 1.0
C      1  0.4844800000000  0.5488930000000  0.5315210000000 1.0
C      1  0.4818560000000  0.5029690000000  0.4436660000000 1.0
C      1  0.5146480000000  0.4486760000000  0.5266540000000 1.0
C      1  0.5175940000000  0.5477600000000  0.5309490000000 1.0
C      1  0.5150290000000  0.5022660000000  0.4428720000000 1.0
C      1  0.4729620000000  0.4789430000000  0.4588680000000 1.0
C      1  0.4737730000000  0.4753140000000  0.5406790000000 1.0
C      1  0.4752690000000  0.5480590000000  0.5029350000000 1.0
C      1  0.5235000000000  0.4777690000000  0.4580400000000 1.0
C      1  0.5243110000000  0.4738170000000  0.5399840000000 1.0
C      1  0.5258090000000  0.5466040000000  0.5023400000000 1.0
C      1  0.5201470000000  0.4257130000000  0.5441920000000 1.0
C      1  0.5271460000000  0.5736410000000  0.5410260000000 1.0
C      1  0.5202720000000  0.4982690000000  0.4141790000000 1.0
C      1  0.4721840000000  0.4283680000000  0.5449200000000 1.0
C      1  0.4791570000000  0.5756600000000  0.5424930000000 1.0
C      1  0.4722680000000  0.4988620000000  0.4161660000000 1.0
C      1  0.5179170000000  0.5934230000000  0.5218070000000 1.0
C      1  0.5099850000000  0.4719180000000  0.4080910000000 1.0
C      1  0.5113150000000  0.4338600000000  0.5705200000000 1.0
C      1  0.4888850000000  0.5942070000000  0.5225450000000 1.0
C      1  0.4809410000000  0.4721180000000  0.4087420000000 1.0
C      1  0.4822990000000  0.4350340000000  0.5713520000000 1.0
C      1  0.4758320000000  0.5006480000000  0.5007320000000 1.0
C      1  0.5228510000000  0.4995150000000  0.5002190000000 1.0
END
