TITL C-22183-9709-8 -59.6360494004659 125000 -302.630529203932 0 0 46 (C2) n - 1
REM
REM in /rds/project/t2_vol4/rds-t2-cs072/BORA/CARBON/from-Arr/AIRSS/Generating-Clusters/GAP-ML-2020/Higher-Symm/SD-CG/HFTN-CG
REM
REM
REM
REM
REM
REM ./C.cell (b20cbc046b6831c77cfcea5457e17084)
REM AIRSS Version 0.9.1 bugfix July 2018 build 013d7b7c2542+ Fri, 06 Jul 2018 19:26:36 +0100
REM compiler GCC version 9.3.0
REM options -cpp -mtune=generic -march=x86-64 -g -O0
REM seed -1630683279 -27049530 -263351205 1947798583 -705458848 -345938634 1552934225 844108697 1533885350 -1741980942 738877243 -232532801 1129470025 353341935 -254439529 814823452 1112493227 1169405251 -692715942 -780490394 446453152 -114006018 -1480744178 -1940951681 924548092 1388265364 -635642610 -1046699549 -326838772 588740696 1912376693 821497429 -1554726121
REM
CELL 1.54180   50.00000   50.00000   50.00000   90.00000   90.00000   90.00000
LATT -1
SFAC C  
C      1  0.5325100000000  0.5475450000000  0.5186830000000 1.0
C      1  0.5325930000000  0.4524950000000  0.4812660000000 1.0
C      1  0.4677610000000  0.4524880000000  0.5187870000000 1.0
C      1  0.4676560000000  0.5474720000000  0.4812020000000 1.0
C      1  0.5493470000000  0.4853060000000  0.5311810000000 1.0
C      1  0.5492040000000  0.5145960000000  0.4688260000000 1.0
C      1  0.4509320000000  0.5147490000000  0.5311840000000 1.0
C      1  0.4510380000000  0.4853490000000  0.4688820000000 1.0
C      1  0.4686770000000  0.4731800000000  0.4528140000000 1.0
C      1  0.4686550000000  0.5268250000000  0.5472130000000 1.0
C      1  0.5315540000000  0.5267360000000  0.4527480000000 1.0
C      1  0.5316340000000  0.4732590000000  0.5472420000000 1.0
C      1  0.4436350000000  0.5139200000000  0.5051940000000 1.0
C      1  0.4436830000000  0.4860640000000  0.4948680000000 1.0
C      1  0.5566280000000  0.4860890000000  0.5051850000000 1.0
C      1  0.5565740000000  0.5139270000000  0.4948090000000 1.0
C      1  0.5139590000000  0.4500490000000  0.5046370000000 1.0
C      1  0.5138620000000  0.5499490000000  0.4953420000000 1.0
C      1  0.4863040000000  0.5499590000000  0.5045560000000 1.0
C      1  0.4863950000000  0.4500420000000  0.4954390000000 1.0
C      1  0.5173530000000  0.5107180000000  0.4342540000000 1.0
C      1  0.5174250000000  0.4893050000000  0.5657080000000 1.0
C      1  0.4828680000000  0.4891650000000  0.4342830000000 1.0
C      1  0.4828750000000  0.5108110000000  0.5656990000000 1.0
C      1  0.4444090000000  0.5369300000000  0.4884420000000 1.0
C      1  0.4445000000000  0.4630330000000  0.5115700000000 1.0
C      1  0.5558450000000  0.4630500000000  0.4884740000000 1.0
C      1  0.5557680000000  0.5369880000000  0.5114710000000 1.0
C      1  0.4859560000000  0.5453030000000  0.5331750000000 1.0
C      1  0.4860250000000  0.4547600000000  0.4668440000000 1.0
C      1  0.5143240000000  0.4547560000000  0.5332470000000 1.0
C      1  0.5142160000000  0.5451810000000  0.4667550000000 1.0
C      1  0.5088590000000  0.5110000000000  0.5235320000000 1.0
C      1  0.5088830000000  0.4890330000000  0.4764890000000 1.0
C      1  0.4914150000000  0.4890410000000  0.5235570000000 1.0
C      1  0.4913640000000  0.5109250000000  0.4764750000000 1.0
C      1  0.5122740000000  0.5176320000000  0.5635660000000 1.0
C      1  0.5122720000000  0.4823850000000  0.4363780000000 1.0
C      1  0.4880240000000  0.4824810000000  0.5636040000000 1.0
C      1  0.4879500000000  0.5175020000000  0.4363540000000 1.0
C      1  0.5133470000000  0.5356390000000  0.5402200000000 1.0
C      1  0.5134010000000  0.4644470000000  0.4597750000000 1.0
C      1  0.4869370000000  0.4644320000000  0.5402910000000 1.0
C      1  0.4868350000000  0.5354810000000  0.4597200000000 1.0
C      1  0.5000450000000  0.5226640000000  0.5000090000000 1.0
C      1  0.5002160000000  0.4773360000000  0.5000500000000 1.0
END
