TITL C-22436-4501-10 32.0019479890837 125000 -292.762344419055 0 0 43 (C1) n - 1
REM
REM in /rds/project/t2_vol4/rds-t2-cs072/BORA/CARBON/from-Arr/AIRSS/Generating-Clusters/GAP-ML-2020/Higher-Symm/SD-CG/HFTN-CG
REM
REM
REM
REM
REM
REM ./C.cell (b20cbc046b6831c77cfcea5457e17084)
REM AIRSS Version 0.9.1 bugfix July 2018 build 013d7b7c2542+ Fri, 06 Jul 2018 19:26:36 +0100
REM compiler GCC version 9.3.0
REM options -cpp -mtune=generic -march=x86-64 -g -O0
REM seed 2073256208 1757586478 2130791896 1071844990 -1324585163 973590372 -1210155982 -341201011 -2136134220 347058387 -1125565804 376948738 -1156698569 -1759128958 1363467802 -1966214774 -1993208387 -1342331057 -1234511588 -1742611088 544751164 1934387040 1187257571 -1980993934 -451143043 -828697029 31924799 726827041 -650737956 -548147422 1973981206 -1523124003 788037463
REM
CELL 1.54180   50.00000   50.00000   50.00000   90.00000   90.00000   90.00000
LATT -1
SFAC C  
C      1  0.5435900000000  0.4973480000000  0.5230350000000 1.0
C      1  0.4599980000000  0.5384160000000  0.4868680000000 1.0
C      1  0.4485980000000  0.5003980000000  0.5131090000000 1.0
C      1  0.5002290000000  0.4604670000000  0.4569170000000 1.0
C      1  0.5282610000000  0.4686200000000  0.4651380000000 1.0
C      1  0.5357530000000  0.4539730000000  0.4897020000000 1.0
C      1  0.4785870000000  0.4808800000000  0.4550930000000 1.0
C      1  0.5005810000000  0.5498940000000  0.4600810000000 1.0
C      1  0.5023550000000  0.4438670000000  0.5211090000000 1.0
C      1  0.4942310000000  0.4744260000000  0.5651060000000 1.0
C      1  0.5249160000000  0.5155530000000  0.4447170000000 1.0
C      1  0.5175520000000  0.5217080000000  0.5529990000000 1.0
C      1  0.5335780000000  0.4984790000000  0.5508550000000 1.0
C      1  0.4983700000000  0.5265620000000  0.4458440000000 1.0
C      1  0.4748770000000  0.5097410000000  0.4486810000000 1.0
C      1  0.5258040000000  0.5389670000000  0.5320530000000 1.0
C      1  0.4980390000000  0.4781610000000  0.5035720000000 1.0
C      1  0.4781990000000  0.5365410000000  0.5329170000000 1.0
C      1  0.4453150000000  0.4948740000000  0.4844270000000 1.0
C      1  0.5190120000000  0.4745370000000  0.5545820000000 1.0
C      1  0.5017650000000  0.5513430000000  0.5237120000000 1.0
C      1  0.5310020000000  0.4970680000000  0.4662690000000 1.0
C      1  0.4913610000000  0.4420640000000  0.4763760000000 1.0
C      1  0.4877040000000  0.4951810000000  0.4833970000000 1.0
C      1  0.5127950000000  0.4996040000000  0.5146310000000 1.0
C      1  0.4614480000000  0.4812690000000  0.5301730000000 1.0
C      1  0.5019000000000  0.5619150000000  0.4989360000000 1.0
C      1  0.5432820000000  0.4674930000000  0.5153590000000 1.0
C      1  0.4749500000000  0.4581550000000  0.5163520000000 1.0
C      1  0.5248680000000  0.4561200000000  0.5343760000000 1.0
C      1  0.4560380000000  0.4713520000000  0.4730030000000 1.0
C      1  0.4577000000000  0.5286210000000  0.5144340000000 1.0
C      1  0.5107130000000  0.5121290000000  0.4876340000000 1.0
C      1  0.5228550000000  0.5567520000000  0.4796240000000 1.0
C      1  0.4772900000000  0.4916710000000  0.5521250000000 1.0
C      1  0.4546020000000  0.5175890000000  0.4684340000000 1.0
C      1  0.4882240000000  0.5186370000000  0.5525430000000 1.0
C      1  0.5422490000000  0.5373620000000  0.4859460000000 1.0
C      1  0.5451380000000  0.5276980000000  0.5138260000000 1.0
C      1  0.4810220000000  0.5550670000000  0.4805850000000 1.0
C      1  0.5463490000000  0.5215130000000  0.4613310000000 1.0
C      1  0.4668200000000  0.4509610000000  0.4890930000000 1.0
C      1  0.5120800000000  0.4370250000000  0.4950360000000 1.0
END
