TITL C-22181-9736-4 476.561134844013 125000 -725.168502334708 0 0 103 (C1) n - 1
REM
REM in /rds/project/t2_vol4/rds-t2-cs072/BORA/CARBON/from-Arr/AIRSS/Generating-Clusters/GAP-ML-2020/Higher-Symm/SD-CG/HFTN-CG
REM
REM
REM
REM
REM
REM ./C.cell (b20cbc046b6831c77cfcea5457e17084)
REM AIRSS Version 0.9.1 bugfix July 2018 build 013d7b7c2542+ Fri, 06 Jul 2018 19:26:36 +0100
REM compiler GCC version 9.3.0
REM options -cpp -mtune=generic -march=x86-64 -g -O0
REM seed 999837128 544912483 -823385746 1766097495 -729493089 -610343060 -1079358508 -2064692735 361146827 1124742958 1903367071 769710022 -1358498697 1550639582 18698725 1763713113 -73713069 -287505595 -314234584 -942981010 -1539605585 -2070849382 995681477 170050608 206929548 -281461184 1855130652 -1841307879 1934076945 -1844752195 -752741952 -1874332448 -1287163214
REM
CELL 1.54180   50.00000   50.00000   50.00000   90.00000   90.00000   90.00000
LATT -1
SFAC C  
C      1  0.4614160000000  0.4158670000000  0.5077310000000 1.0
C      1  0.5578160000000  0.5040960000000  0.4417940000000 1.0
C      1  0.4379840000000  0.5529870000000  0.5435360000000 1.0
C      1  0.4937070000000  0.5763070000000  0.5411980000000 1.0
C      1  0.5670930000000  0.5212840000000  0.5476850000000 1.0
C      1  0.4397150000000  0.5545330000000  0.4638240000000 1.0
C      1  0.4798650000000  0.4798930000000  0.4570880000000 1.0
C      1  0.4827740000000  0.4540290000000  0.5717880000000 1.0
C      1  0.4757900000000  0.4983220000000  0.5530270000000 1.0
C      1  0.5194500000000  0.5652820000000  0.4447720000000 1.0
C      1  0.5606200000000  0.4956850000000  0.5594230000000 1.0
C      1  0.4848850000000  0.4548480000000  0.5039920000000 1.0
C      1  0.5168940000000  0.4323380000000  0.4729260000000 1.0
C      1  0.4896940000000  0.4337830000000  0.4583630000000 1.0
C      1  0.5060680000000  0.4830000000000  0.4433760000000 1.0
C      1  0.4441610000000  0.5613230000000  0.4915640000000 1.0
C      1  0.4822770000000  0.5277230000000  0.4668750000000 1.0
C      1  0.5438980000000  0.5500880000000  0.4473150000000 1.0
C      1  0.4994520000000  0.4945830000000  0.5365510000000 1.0
C      1  0.5237640000000  0.4255730000000  0.5202770000000 1.0
C      1  0.5079200000000  0.5763580000000  0.4679920000000 1.0
C      1  0.4596050000000  0.5277660000000  0.5814120000000 1.0
C      1  0.4483800000000  0.5746810000000  0.5568910000000 1.0
C      1  0.5413990000000  0.5649860000000  0.5401850000000 1.0
C      1  0.4524830000000  0.5202490000000  0.5148850000000 1.0
C      1  0.5331930000000  0.5298400000000  0.5777130000000 1.0
C      1  0.5404480000000  0.5016700000000  0.5791610000000 1.0
C      1  0.5522090000000  0.4459420000000  0.5502480000000 1.0
C      1  0.4823750000000  0.5348800000000  0.5169770000000 1.0
C      1  0.4485950000000  0.5072740000000  0.5418170000000 1.0
C      1  0.4748780000000  0.5528230000000  0.4246160000000 1.0
C      1  0.5027410000000  0.4756300000000  0.5138280000000 1.0
C      1  0.5422260000000  0.5676510000000  0.5114700000000 1.0
C      1  0.5163740000000  0.5653420000000  0.4951290000000 1.0
C      1  0.4631360000000  0.4660140000000  0.4329200000000 1.0
C      1  0.5058000000000  0.5319940000000  0.5873540000000 1.0
C      1  0.4979040000000  0.5049810000000  0.5946870000000 1.0
C      1  0.4442550000000  0.5096090000000  0.4161140000000 1.0
C      1  0.5723730000000  0.4940220000000  0.4827930000000 1.0
C      1  0.5791330000000  0.4723860000000  0.5210020000000 1.0
C      1  0.4632490000000  0.4750350000000  0.5710200000000 1.0
C      1  0.5616550000000  0.4672780000000  0.4747700000000 1.0
C      1  0.4832680000000  0.4357090000000  0.5497200000000 1.0
C      1  0.4455940000000  0.4605880000000  0.5259800000000 1.0
C      1  0.5520130000000  0.4269570000000  0.5280360000000 1.0
C      1  0.5271070000000  0.4426870000000  0.5632160000000 1.0
C      1  0.5211540000000  0.5164260000000  0.5026500000000 1.0
C      1  0.5648570000000  0.5571010000000  0.4967310000000 1.0
C      1  0.5432720000000  0.5268880000000  0.4310970000000 1.0
C      1  0.4755630000000  0.5694050000000  0.5626260000000 1.0
C      1  0.5059550000000  0.4950130000000  0.4903550000000 1.0
C      1  0.5036720000000  0.5527710000000  0.4249490000000 1.0
C      1  0.5105280000000  0.4599420000000  0.5793840000000 1.0
C      1  0.5120930000000  0.4151440000000  0.4957740000000 1.0
C      1  0.4896580000000  0.5640270000000  0.5117480000000 1.0
C      1  0.4385080000000  0.4631260000000  0.4504110000000 1.0
C      1  0.4819920000000  0.5050600000000  0.4073240000000 1.0
C      1  0.4443550000000  0.4778960000000  0.5479580000000 1.0
C      1  0.5316780000000  0.4576310000000  0.4801130000000 1.0
C      1  0.5666930000000  0.5149060000000  0.4658970000000 1.0
C      1  0.5182260000000  0.4858610000000  0.5890240000000 1.0
C      1  0.4491250000000  0.4996330000000  0.4928960000000 1.0
C      1  0.5114500000000  0.4583740000000  0.4268900000000 1.0
C      1  0.5271940000000  0.5384210000000  0.4870080000000 1.0
C      1  0.4770550000000  0.4558390000000  0.4754680000000 1.0
C      1  0.4773690000000  0.5029100000000  0.4764660000000 1.0
C      1  0.4854340000000  0.4054710000000  0.4940960000000 1.0
C      1  0.5257770000000  0.4578410000000  0.5096850000000 1.0
C      1  0.4242220000000  0.4872270000000  0.4535430000000 1.0
C      1  0.4259800000000  0.5060780000000  0.4755590000000 1.0
C      1  0.4377730000000  0.5462320000000  0.5150020000000 1.0
C      1  0.5669010000000  0.4703260000000  0.5468230000000 1.0
C      1  0.4410070000000  0.4705820000000  0.5001550000000 1.0
C      1  0.4796850000000  0.5783920000000  0.4668010000000 1.0
C      1  0.4866610000000  0.4453090000000  0.4317790000000 1.0
C      1  0.4462970000000  0.4517720000000  0.4767020000000 1.0
C      1  0.4267050000000  0.5109530000000  0.4371010000000 1.0
C      1  0.4693970000000  0.5739190000000  0.4925360000000 1.0
C      1  0.4668240000000  0.4393340000000  0.5247070000000 1.0
C      1  0.4659550000000  0.5287930000000  0.4119000000000 1.0
C      1  0.5697630000000  0.4283600000000  0.5075290000000 1.0
C      1  0.5564820000000  0.4741600000000  0.4431340000000 1.0
C      1  0.4415190000000  0.5290220000000  0.5592350000000 1.0
C      1  0.5055510000000  0.5030760000000  0.4208950000000 1.0
C      1  0.4714070000000  0.5012120000000  0.5844720000000 1.0
C      1  0.4622240000000  0.5662860000000  0.4475190000000 1.0
C      1  0.4485830000000  0.4224380000000  0.4823970000000 1.0
C      1  0.5101690000000  0.4278200000000  0.5458690000000 1.0
C      1  0.5539540000000  0.5413810000000  0.4731130000000 1.0
C      1  0.5758020000000  0.4529910000000  0.4993260000000 1.0
C      1  0.5496520000000  0.5421460000000  0.5569250000000 1.0
C      1  0.4262750000000  0.5303030000000  0.4587900000000 1.0
C      1  0.5049240000000  0.5202440000000  0.5256970000000 1.0
C      1  0.5188510000000  0.5774490000000  0.5489670000000 1.0
C      1  0.4810730000000  0.5467300000000  0.5806830000000 1.0
C      1  0.5180620000000  0.5280060000000  0.4189310000000 1.0
C      1  0.4609020000000  0.4862310000000  0.4126870000000 1.0
C      1  0.5808280000000  0.4976300000000  0.5091680000000 1.0
C      1  0.5193180000000  0.4821000000000  0.4691710000000 1.0
C      1  0.5865080000000  0.5472640000000  0.5101130000000 1.0
C      1  0.5816450000000  0.5226880000000  0.5231440000000 1.0
C      1  0.5389990000000  0.4582960000000  0.4288480000000 1.0
C      1  0.4728580000000  0.4116720000000  0.4691830000000 1.0
END
