TITL C-22177-8008-1 0.256712271642974 125000 -1329.29695301005 0 0 187 (C1) n - 1
REM
REM in /rds/project/t2_vol4/rds-t2-cs072/BORA/CARBON/from-Arr/AIRSS/Generating-Clusters/GAP-ML-2020/Higher-Symm/SD-CG/HFTN-CG/C160-200
REM
REM
REM
REM
REM
REM ./C.cell (6b4489405718ea1b717e0baf1da4c2d9)
REM AIRSS Version 0.9.1 bugfix July 2018 build 013d7b7c2542+ Fri, 06 Jul 2018 19:26:36 +0100
REM compiler GCC version 9.3.0
REM options -cpp -mtune=generic -march=x86-64 -g -O0
REM seed -122363512 -2039684547 87998753 315070619 -509730678 1220586471 -2127372378 702040366 1574738023 -1744497273 -1907482896 332295258 19622077 1780865951 -1189611021 -1937745598 -315421968 535003964 499771361 881077595 952619569 -310721849 986581107 361896417 1863133746 1408077585 1675861187 496943777 38620543 -1658984991 327675808 497795323 -1993577009
REM
CELL 1.54180   50.00000   50.00000   50.00000   90.00000   90.00000   90.00000
LATT -1
SFAC C  
C      1  0.5170420000000  0.3913010000000  0.5236930000000 1.0
C      1  0.4857200000000  0.6077940000000  0.4783360000000 1.0
C      1  0.5003830000000  0.5410640000000  0.4738210000000 1.0
C      1  0.4963750000000  0.4549590000000  0.5295800000000 1.0
C      1  0.4418680000000  0.4794420000000  0.5899040000000 1.0
C      1  0.5577540000000  0.5273490000000  0.4132890000000 1.0
C      1  0.5326300000000  0.4810260000000  0.5495930000000 1.0
C      1  0.4649850000000  0.5167900000000  0.4542160000000 1.0
C      1  0.4997000000000  0.5706250000000  0.4207120000000 1.0
C      1  0.4981770000000  0.4286540000000  0.5789910000000 1.0
C      1  0.5259200000000  0.4746740000000  0.6045060000000 1.0
C      1  0.4762350000000  0.5234460000000  0.3969460000000 1.0
C      1  0.4146740000000  0.5347190000000  0.4392930000000 1.0
C      1  0.5836030000000  0.4607120000000  0.5598910000000 1.0
C      1  0.5981480000000  0.4333510000000  0.4993870000000 1.0
C      1  0.4000330000000  0.5708870000000  0.4955450000000 1.0
C      1  0.5795180000000  0.5234950000000  0.5946120000000 1.0
C      1  0.4241640000000  0.4734260000000  0.4059630000000 1.0
C      1  0.4737680000000  0.4934880000000  0.3950210000000 1.0
C      1  0.5298060000000  0.5047940000000  0.6047270000000 1.0
C      1  0.5128660000000  0.5261360000000  0.4988190000000 1.0
C      1  0.4887840000000  0.4714020000000  0.5042620000000 1.0
C      1  0.5585350000000  0.5760200000000  0.4677200000000 1.0
C      1  0.4509540000000  0.4188160000000  0.5257300000000 1.0
C      1  0.4508130000000  0.4534350000000  0.4833380000000 1.0
C      1  0.5515850000000  0.5433280000000  0.5196090000000 1.0
C      1  0.6046580000000  0.5557270000000  0.5644300000000 1.0
C      1  0.3985880000000  0.4412850000000  0.4341480000000 1.0
C      1  0.5357600000000  0.4367410000000  0.4489770000000 1.0
C      1  0.4647850000000  0.5647520000000  0.5527860000000 1.0
C      1  0.4593710000000  0.5006500000000  0.5952460000000 1.0
C      1  0.5436840000000  0.5023550000000  0.4064090000000 1.0
C      1  0.5407810000000  0.4523920000000  0.5918080000000 1.0
C      1  0.4590900000000  0.5439210000000  0.4097580000000 1.0
C      1  0.5587550000000  0.5197400000000  0.5343540000000 1.0
C      1  0.4428540000000  0.4772330000000  0.4683630000000 1.0
C      1  0.4717770000000  0.5704360000000  0.5025990000000 1.0
C      1  0.5257980000000  0.4304320000000  0.4990920000000 1.0
C      1  0.5337810000000  0.4869720000000  0.4323150000000 1.0
C      1  0.4533640000000  0.5210450000000  0.5744880000000 1.0
C      1  0.4180480000000  0.4472650000000  0.4165600000000 1.0
C      1  0.5865610000000  0.5495170000000  0.5832830000000 1.0
C      1  0.5207030000000  0.3939820000000  0.4683700000000 1.0
C      1  0.4872630000000  0.6043340000000  0.5314770000000 1.0
C      1  0.5217830000000  0.4485360000000  0.4761810000000 1.0
C      1  0.4755230000000  0.5517670000000  0.5247270000000 1.0
C      1  0.3840930000000  0.5527220000000  0.5382830000000 1.0
C      1  0.6039790000000  0.4626480000000  0.4563550000000 1.0
C      1  0.3975150000000  0.5583140000000  0.5636410000000 1.0
C      1  0.5885440000000  0.4505290000000  0.4338070000000 1.0
C      1  0.3872830000000  0.4748800000000  0.4828880000000 1.0
C      1  0.6155310000000  0.5235200000000  0.5202750000000 1.0
C      1  0.4266150000000  0.4205790000000  0.5103890000000 1.0
C      1  0.5784150000000  0.5768430000000  0.4875100000000 1.0
C      1  0.4218170000000  0.4748170000000  0.5468330000000 1.0
C      1  0.5817850000000  0.5144400000000  0.4563260000000 1.0
C      1  0.4293010000000  0.5402560000000  0.5318490000000 1.0
C      1  0.5643300000000  0.4641090000000  0.4720320000000 1.0
C      1  0.4977960000000  0.4706660000000  0.6048200000000 1.0
C      1  0.5044000000000  0.5289170000000  0.3957020000000 1.0
C      1  0.5411150000000  0.3989140000000  0.5379500000000 1.0
C      1  0.4626470000000  0.6006220000000  0.4616650000000 1.0
C      1  0.4543290000000  0.5279910000000  0.5236340000000 1.0
C      1  0.5391460000000  0.4738650000000  0.4791940000000 1.0
C      1  0.4482160000000  0.5193810000000  0.4969240000000 1.0
C      1  0.5387700000000  0.4834910000000  0.5070450000000 1.0
C      1  0.5273270000000  0.5756750000000  0.5537380000000 1.0
C      1  0.4777170000000  0.4232420000000  0.4469330000000 1.0
C      1  0.4529420000000  0.4739500000000  0.3991920000000 1.0
C      1  0.5509290000000  0.5241580000000  0.6015760000000 1.0
C      1  0.5996450000000  0.5667950000000  0.5402700000000 1.0
C      1  0.4037360000000  0.4322950000000  0.4591640000000 1.0
C      1  0.4006670000000  0.5094280000000  0.4407630000000 1.0
C      1  0.5995300000000  0.4859640000000  0.5605050000000 1.0
C      1  0.5908010000000  0.4940350000000  0.4955690000000 1.0
C      1  0.3889830000000  0.5112520000000  0.5118890000000 1.0
C      1  0.4699540000000  0.4010670000000  0.5155670000000 1.0
C      1  0.5329530000000  0.5867300000000  0.4796410000000 1.0
C      1  0.4217920000000  0.5186180000000  0.5767660000000 1.0
C      1  0.5712710000000  0.4892120000000  0.4115050000000 1.0
C      1  0.3949610000000  0.5751950000000  0.5235590000000 1.0
C      1  0.6043810000000  0.4379680000000  0.4720360000000 1.0
C      1  0.5986980000000  0.4541350000000  0.5187110000000 1.0
C      1  0.3976450000000  0.5456200000000  0.4815980000000 1.0
C      1  0.5344970000000  0.4970840000000  0.4597430000000 1.0
C      1  0.4632700000000  0.5064230000000  0.5438750000000 1.0
C      1  0.5679150000000  0.4582350000000  0.5844920000000 1.0
C      1  0.4321150000000  0.5367190000000  0.4158850000000 1.0
C      1  0.4276070000000  0.4152640000000  0.4603590000000 1.0
C      1  0.5757200000000  0.5832500000000  0.5379230000000 1.0
C      1  0.4066300000000  0.4412450000000  0.5092560000000 1.0
C      1  0.5983390000000  0.5564800000000  0.4903010000000 1.0
C      1  0.5132240000000  0.5255600000000  0.5485740000000 1.0
C      1  0.4875820000000  0.4738630000000  0.4510600000000 1.0
C      1  0.5627910000000  0.5650220000000  0.5811140000000 1.0
C      1  0.4427350000000  0.4330200000000  0.4187590000000 1.0
C      1  0.6100210000000  0.5159630000000  0.4933740000000 1.0
C      1  0.3891560000000  0.4829270000000  0.5105340000000 1.0
C      1  0.4998580000000  0.4014410000000  0.4498790000000 1.0
C      1  0.5055980000000  0.5975150000000  0.5518950000000 1.0
C      1  0.4859460000000  0.4155610000000  0.5564080000000 1.0
C      1  0.5114670000000  0.5831860000000  0.4431610000000 1.0
C      1  0.5796930000000  0.5135780000000  0.4258360000000 1.0
C      1  0.4206680000000  0.4886670000000  0.5729290000000 1.0
C      1  0.4359670000000  0.5646290000000  0.5448480000000 1.0
C      1  0.5622310000000  0.4375480000000  0.4609410000000 1.0
C      1  0.5440540000000  0.4629170000000  0.5287260000000 1.0
C      1  0.4504700000000  0.5360600000000  0.4734060000000 1.0
C      1  0.4040800000000  0.5393890000000  0.5814600000000 1.0
C      1  0.5681470000000  0.4619550000000  0.4180640000000 1.0
C      1  0.3956850000000  0.4472720000000  0.4828110000000 1.0
C      1  0.6084800000000  0.5513280000000  0.5177250000000 1.0
C      1  0.4190440000000  0.5798660000000  0.4749790000000 1.0
C      1  0.5763700000000  0.4217170000000  0.5147650000000 1.0
C      1  0.4500760000000  0.4788340000000  0.5373800000000 1.0
C      1  0.5517600000000  0.5229470000000  0.4653840000000 1.0
C      1  0.5562980000000  0.5811360000000  0.5590430000000 1.0
C      1  0.4489700000000  0.4168920000000  0.4406160000000 1.0
C      1  0.5603120000000  0.5036820000000  0.5078190000000 1.0
C      1  0.4437460000000  0.4933360000000  0.4928820000000 1.0
C      1  0.5168420000000  0.5510800000000  0.4094570000000 1.0
C      1  0.4835240000000  0.4492690000000  0.5925010000000 1.0
C      1  0.5289400000000  0.5635940000000  0.5256180000000 1.0
C      1  0.4730360000000  0.4349830000000  0.4749240000000 1.0
C      1  0.5187370000000  0.5043320000000  0.3921220000000 1.0
C      1  0.4849500000000  0.4963300000000  0.6051280000000 1.0
C      1  0.4216270000000  0.5491420000000  0.4640370000000 1.0
C      1  0.5735310000000  0.4488630000000  0.5340270000000 1.0
C      1  0.5033590000000  0.5172000000000  0.6020920000000 1.0
C      1  0.5006980000000  0.4821770000000  0.3953640000000 1.0
C      1  0.6120260000000  0.4979630000000  0.5366690000000 1.0
C      1  0.3886990000000  0.4996430000000  0.4655820000000 1.0
C      1  0.4252810000000  0.5141640000000  0.4029720000000 1.0
C      1  0.5751700000000  0.4804480000000  0.5975250000000 1.0
C      1  0.4952710000000  0.5416560000000  0.5875470000000 1.0
C      1  0.5098120000000  0.4583170000000  0.4101220000000 1.0
C      1  0.5387340000000  0.5860840000000  0.5080340000000 1.0
C      1  0.4640640000000  0.4083020000000  0.4889460000000 1.0
C      1  0.5449840000000  0.5270010000000  0.4950910000000 1.0
C      1  0.4582450000000  0.4729310000000  0.5076860000000 1.0
C      1  0.5417370000000  0.5491500000000  0.5906660000000 1.0
C      1  0.4632860000000  0.4496100000000  0.4098840000000 1.0
C      1  0.4575020000000  0.4570070000000  0.5824350000000 1.0
C      1  0.5427340000000  0.5485120000000  0.4223310000000 1.0
C      1  0.5205340000000  0.5616980000000  0.4627440000000 1.0
C      1  0.4688990000000  0.4352810000000  0.5421160000000 1.0
C      1  0.5292480000000  0.4015750000000  0.4967660000000 1.0
C      1  0.4802060000000  0.5971580000000  0.5050830000000 1.0
C      1  0.5350330000000  0.4227730000000  0.5514030000000 1.0
C      1  0.4660020000000  0.5738220000000  0.4512600000000 1.0
C      1  0.6063300000000  0.4798730000000  0.5158870000000 1.0
C      1  0.3873610000000  0.5203690000000  0.4852680000000 1.0
C      1  0.4370280000000  0.5985210000000  0.4697610000000 1.0
C      1  0.5566810000000  0.4027110000000  0.5135880000000 1.0
C      1  0.5463620000000  0.5513060000000  0.4521200000000 1.0
C      1  0.4538520000000  0.4554830000000  0.5550210000000 1.0
C      1  0.5867390000000  0.4280580000000  0.4509140000000 1.0
C      1  0.4120840000000  0.5790550000000  0.5487520000000 1.0
C      1  0.4693670000000  0.5453190000000  0.5755860000000 1.0
C      1  0.5366220000000  0.4574820000000  0.4258400000000 1.0
C      1  0.4727890000000  0.5568520000000  0.4767060000000 1.0
C      1  0.5234660000000  0.4407930000000  0.5261430000000 1.0
C      1  0.4935100000000  0.5025070000000  0.5421320000000 1.0
C      1  0.5072080000000  0.4973450000000  0.4483220000000 1.0
C      1  0.4918730000000  0.3975020000000  0.5339550000000 1.0
C      1  0.5105340000000  0.6014460000000  0.4654100000000 1.0
C      1  0.4930760000000  0.5214180000000  0.4538420000000 1.0
C      1  0.5036940000000  0.4767510000000  0.5491560000000 1.0
C      1  0.4092820000000  0.4961410000000  0.4157210000000 1.0
C      1  0.5913220000000  0.4988510000000  0.5857290000000 1.0
C      1  0.4031640000000  0.4641830000000  0.5268800000000 1.0
C      1  0.6001480000000  0.5330610000000  0.4736820000000 1.0
C      1  0.5061840000000  0.5433710000000  0.5238540000000 1.0
C      1  0.4934800000000  0.4570400000000  0.4772310000000 1.0
C      1  0.4785620000000  0.5909740000000  0.5544390000000 1.0
C      1  0.5263010000000  0.4086520000000  0.4455260000000 1.0
C      1  0.4611600000000  0.4892350000000  0.4517010000000 1.0
C      1  0.5385840000000  0.5086810000000  0.5499980000000 1.0
C      1  0.4005240000000  0.5303470000000  0.5297930000000 1.0
C      1  0.5862770000000  0.4836300000000  0.4684040000000 1.0
C      1  0.4868960000000  0.4492930000000  0.4273320000000 1.0
C      1  0.5187530000000  0.5512230000000  0.5732090000000 1.0
C      1  0.4721520000000  0.5650600000000  0.4244810000000 1.0
C      1  0.5265550000000  0.4318270000000  0.5772470000000 1.0
C      1  0.4354970000000  0.4084010000000  0.4857830000000 1.0
C      1  0.5669840000000  0.5879400000000  0.5117150000000 1.0
C      1  0.5069270000000  0.4966850000000  0.5093920000000 1.0
END
