TITL C-22088-8286-4 342.748090872868 125000 -1345.31576594977 0 0 193 (C1) n - 1
REM
REM in /rds/project/t2_vol4/rds-t2-cs072/BORA/CARBON/from-Arr/AIRSS/Generating-Clusters/GAP-ML-2020/Higher-Symm/SD-CG/HFTN-CG/C160-200
REM
REM
REM
REM
REM
REM ./C.cell (6b4489405718ea1b717e0baf1da4c2d9)
REM AIRSS Version 0.9.1 bugfix July 2018 build 013d7b7c2542+ Fri, 06 Jul 2018 19:26:36 +0100
REM compiler GCC version 9.3.0
REM options -cpp -mtune=generic -march=x86-64 -g -O0
REM seed 66730965 1529232826 -1384866026 -898087546 -1846630425 922261499 -1113404155 -1900552612 -719738566 -1563283229 2146817118 -477411969 -599909955 1824654747 1882147231 718525869 1146417683 -502308012 -1440904738 8419463 -145947451 1439485866 -1838106395 507159863 594754332 -2105786859 -307389299 199413548 1898278397 -680899302 -2031792611 -632344853 -466298859
REM
CELL 1.54180   50.00000   50.00000   50.00000   90.00000   90.00000   90.00000
LATT -1
SFAC C  
C      1  0.4200500000000  0.4669620000000  0.4653540000000 1.0
C      1  0.4193770000000  0.4582530000000  0.5292200000000 1.0
C      1  0.4160700000000  0.5107060000000  0.5507210000000 1.0
C      1  0.4188960000000  0.5474020000000  0.5069960000000 1.0
C      1  0.4188700000000  0.5208590000000  0.4572660000000 1.0
C      1  0.5878430000000  0.4665050000000  0.4635320000000 1.0
C      1  0.5857980000000  0.4607490000000  0.5232500000000 1.0
C      1  0.5833200000000  0.5110810000000  0.5489430000000 1.0
C      1  0.5811610000000  0.5492970000000  0.5095010000000 1.0
C      1  0.5804430000000  0.5212280000000  0.4578020000000 1.0
C      1  0.4560510000000  0.5567450000000  0.5902560000000 1.0
C      1  0.4557550000000  0.6017950000000  0.4756680000000 1.0
C      1  0.4545940000000  0.5088320000000  0.3950360000000 1.0
C      1  0.4562750000000  0.4056040000000  0.4611020000000 1.0
C      1  0.4557490000000  0.4302070000000  0.5847980000000 1.0
C      1  0.5440390000000  0.5554130000000  0.5904310000000 1.0
C      1  0.5446600000000  0.6020630000000  0.4763440000000 1.0
C      1  0.5444790000000  0.5058680000000  0.3943910000000 1.0
C      1  0.5400250000000  0.4027370000000  0.4567020000000 1.0
C      1  0.5414040000000  0.4354460000000  0.5784170000000 1.0
C      1  0.5370770000000  0.4749300000000  0.6077060000000 1.0
C      1  0.5370460000000  0.5939170000000  0.5584110000000 1.0
C      1  0.5388810000000  0.5827290000000  0.4291040000000 1.0
C      1  0.5317910000000  0.4562730000000  0.3888480000000 1.0
C      1  0.5384080000000  0.3900590000000  0.5068120000000 1.0
C      1  0.4606400000000  0.4761270000000  0.6091960000000 1.0
C      1  0.4612920000000  0.5943020000000  0.5572280000000 1.0
C      1  0.4628010000000  0.5837730000000  0.4293960000000 1.0
C      1  0.4580730000000  0.4582440000000  0.3953330000000 1.0
C      1  0.4631280000000  0.3944710000000  0.5103610000000 1.0
C      1  0.5935570000000  0.5656300000000  0.4645820000000 1.0
C      1  0.5841560000000  0.4764230000000  0.4356090000000 1.0
C      1  0.5972620000000  0.4259300000000  0.4893360000000 1.0
C      1  0.6011680000000  0.4695550000000  0.5739360000000 1.0
C      1  0.5999720000000  0.5601730000000  0.5531280000000 1.0
C      1  0.4001940000000  0.5650380000000  0.4618210000000 1.0
C      1  0.3988850000000  0.4849020000000  0.4254640000000 1.0
C      1  0.4103950000000  0.4286540000000  0.4938500000000 1.0
C      1  0.4023460000000  0.4691180000000  0.5754620000000 1.0
C      1  0.3997590000000  0.5596730000000  0.5510080000000 1.0
C      1  0.5825830000000  0.4316770000000  0.5119950000000 1.0
C      1  0.5816270000000  0.4898180000000  0.5717210000000 1.0
C      1  0.5800600000000  0.5654340000000  0.5349640000000 1.0
C      1  0.5795740000000  0.5499660000000  0.4482160000000 1.0
C      1  0.5757590000000  0.4609060000000  0.4150830000000 1.0
C      1  0.4227990000000  0.4309160000000  0.5170930000000 1.0
C      1  0.4172810000000  0.4920570000000  0.5754780000000 1.0
C      1  0.4194620000000  0.5642280000000  0.5324960000000 1.0
C      1  0.4200030000000  0.5503470000000  0.4500970000000 1.0
C      1  0.4182900000000  0.4680980000000  0.4348670000000 1.0
C      1  0.5136980000000  0.6056450000000  0.5469700000000 1.0
C      1  0.5152560000000  0.5758660000000  0.4145930000000 1.0
C      1  0.5090540000000  0.4402960000000  0.3936050000000 1.0
C      1  0.5157960000000  0.3876100000000  0.5246060000000 1.0
C      1  0.5140030000000  0.4897060000000  0.6162150000000 1.0
C      1  0.4848300000000  0.6062260000000  0.5463580000000 1.0
C      1  0.4863280000000  0.5764790000000  0.4147430000000 1.0
C      1  0.4806700000000  0.4405360000000  0.3957170000000 1.0
C      1  0.4866800000000  0.3893690000000  0.5253650000000 1.0
C      1  0.4848770000000  0.4897770000000  0.6156940000000 1.0
C      1  0.5125970000000  0.4297360000000  0.4227400000000 1.0
C      1  0.5176150000000  0.4114810000000  0.5435250000000 1.0
C      1  0.5144780000000  0.5145500000000  0.5978990000000 1.0
C      1  0.5143710000000  0.5966500000000  0.5174020000000 1.0
C      1  0.5152060000000  0.5449720000000  0.4138010000000 1.0
C      1  0.4829730000000  0.4306190000000  0.4251390000000 1.0
C      1  0.4878150000000  0.4122460000000  0.5458870000000 1.0
C      1  0.4848110000000  0.5142870000000  0.5972910000000 1.0
C      1  0.4847760000000  0.5968340000000  0.5169550000000 1.0
C      1  0.4854210000000  0.5457250000000  0.4140420000000 1.0
C      1  0.6032290000000  0.4813940000000  0.5108650000000 1.0
C      1  0.6013060000000  0.5067040000000  0.5243830000000 1.0
C      1  0.6002400000000  0.5265330000000  0.5047180000000 1.0
C      1  0.6004990000000  0.5132950000000  0.4786280000000 1.0
C      1  0.6025880000000  0.4852490000000  0.4824910000000 1.0
C      1  0.4018390000000  0.4782250000000  0.5136980000000 1.0
C      1  0.4005110000000  0.5042240000000  0.5253780000000 1.0
C      1  0.4011810000000  0.5234460000000  0.5046000000000 1.0
C      1  0.4017230000000  0.5101890000000  0.4798190000000 1.0
C      1  0.4020620000000  0.4822820000000  0.4847760000000 1.0
C      1  0.4419940000000  0.4523170000000  0.4215080000000 1.0
C      1  0.4469790000000  0.4157780000000  0.5259420000000 1.0
C      1  0.4427620000000  0.4962960000000  0.5917730000000 1.0
C      1  0.4441970000000  0.5829400000000  0.5335040000000 1.0
C      1  0.4450220000000  0.5578490000000  0.4326080000000 1.0
C      1  0.5519660000000  0.4484170000000  0.4101010000000 1.0
C      1  0.5574230000000  0.4148110000000  0.5196090000000 1.0
C      1  0.5549270000000  0.4940390000000  0.5895630000000 1.0
C      1  0.5549440000000  0.5837220000000  0.5348960000000 1.0
C      1  0.5561590000000  0.5568820000000  0.4310080000000 1.0
C      1  0.4721280000000  0.5439450000000  0.4417330000000 1.0
C      1  0.4707210000000  0.4569700000000  0.4351670000000 1.0
C      1  0.4741070000000  0.4335480000000  0.5276030000000 1.0
C      1  0.4704280000000  0.4997100000000  0.5728780000000 1.0
C      1  0.4712610000000  0.5697660000000  0.5230690000000 1.0
C      1  0.5288900000000  0.5430120000000  0.4417320000000 1.0
C      1  0.5279690000000  0.4547270000000  0.4322130000000 1.0
C      1  0.5307200000000  0.4314720000000  0.5212860000000 1.0
C      1  0.5277870000000  0.5004560000000  0.5743040000000 1.0
C      1  0.5280450000000  0.5697410000000  0.5240460000000 1.0
C      1  0.4652740000000  0.5351620000000  0.3962190000000 1.0
C      1  0.4640170000000  0.4109630000000  0.4340810000000 1.0
C      1  0.4677670000000  0.4100850000000  0.5681620000000 1.0
C      1  0.4659220000000  0.5349800000000  0.6057260000000 1.0
C      1  0.4650120000000  0.6104630000000  0.5010490000000 1.0
C      1  0.5349290000000  0.5330070000000  0.3957130000000 1.0
C      1  0.5322870000000  0.4087400000000  0.4301080000000 1.0
C      1  0.5378330000000  0.4114130000000  0.5643940000000 1.0
C      1  0.5344010000000  0.5337410000000  0.6061100000000 1.0
C      1  0.5339430000000  0.6103910000000  0.5013650000000 1.0
C      1  0.4845330000000  0.5311210000000  0.5347320000000 1.0
C      1  0.4852200000000  0.5406950000000  0.4825010000000 1.0
C      1  0.4854850000000  0.4964290000000  0.4507170000000 1.0
C      1  0.4906520000000  0.4568260000000  0.4812860000000 1.0
C      1  0.4943510000000  0.4739620000000  0.5270540000000 1.0
C      1  0.5143380000000  0.5298600000000  0.5347720000000 1.0
C      1  0.5147250000000  0.5409300000000  0.4827720000000 1.0
C      1  0.5143990000000  0.4983770000000  0.4497000000000 1.0
C      1  0.5177950000000  0.4479280000000  0.4762550000000 1.0
C      1  0.5185590000000  0.4762550000000  0.5409800000000 1.0
C      1  0.5264000000000  0.4549790000000  0.5903960000000 1.0
C      1  0.5292910000000  0.5704830000000  0.5724690000000 1.0
C      1  0.5312770000000  0.5887360000000  0.4560440000000 1.0
C      1  0.5281130000000  0.4838960000000  0.3966130000000 1.0
C      1  0.5286150000000  0.3996930000000  0.4820770000000 1.0
C      1  0.4671550000000  0.4548350000000  0.5917870000000 1.0
C      1  0.4701060000000  0.5715810000000  0.5716290000000 1.0
C      1  0.4709570000000  0.5897510000000  0.4559570000000 1.0
C      1  0.4685560000000  0.4850590000000  0.3978470000000 1.0
C      1  0.4698870000000  0.4064170000000  0.4856910000000 1.0
C      1  0.4671760000000  0.5124740000000  0.5473370000000 1.0
C      1  0.4710240000000  0.5425520000000  0.5086970000000 1.0
C      1  0.4718670000000  0.5212840000000  0.4617800000000 1.0
C      1  0.4729340000000  0.4704490000000  0.4609670000000 1.0
C      1  0.4721050000000  0.4621970000000  0.5403430000000 1.0
C      1  0.5296780000000  0.5062550000000  0.5448610000000 1.0
C      1  0.5279970000000  0.5430140000000  0.5098510000000 1.0
C      1  0.5284070000000  0.5208780000000  0.4625110000000 1.0
C      1  0.5405310000000  0.4512600000000  0.4583010000000 1.0
C      1  0.5403150000000  0.4580350000000  0.5324320000000 1.0
C      1  0.4148310000000  0.5682600000000  0.4850080000000 1.0
C      1  0.4138810000000  0.5077260000000  0.4299900000000 1.0
C      1  0.4166530000000  0.4378770000000  0.4696420000000 1.0
C      1  0.4129350000000  0.4503080000000  0.5585790000000 1.0
C      1  0.4132490000000  0.5386170000000  0.5626360000000 1.0
C      1  0.5851050000000  0.5710650000000  0.4895120000000 1.0
C      1  0.5802130000000  0.5045080000000  0.4335290000000 1.0
C      1  0.5878760000000  0.4362120000000  0.4661410000000 1.0
C      1  0.5852810000000  0.4588370000000  0.5539080000000 1.0
C      1  0.5864480000000  0.5381480000000  0.5628280000000 1.0
C      1  0.5608530000000  0.4269210000000  0.4530160000000 1.0
C      1  0.5592910000000  0.4443690000000  0.5555510000000 1.0
C      1  0.5700000000000  0.5410860000000  0.5863570000000 1.0
C      1  0.5700790000000  0.5949280000000  0.4901540000000 1.0
C      1  0.5685190000000  0.5146710000000  0.4098030000000 1.0
C      1  0.4303890000000  0.4185720000000  0.4546870000000 1.0
C      1  0.4296560000000  0.4293730000000  0.5692900000000 1.0
C      1  0.4297440000000  0.5429410000000  0.5861550000000 1.0
C      1  0.4301190000000  0.5927030000000  0.4878540000000 1.0
C      1  0.4293230000000  0.5183900000000  0.4078430000000 1.0
C      1  0.5112590000000  0.4730370000000  0.5702340000000 1.0
C      1  0.5149090000000  0.5572940000000  0.5490600000000 1.0
C      1  0.5154830000000  0.5630260000000  0.4613890000000 1.0
C      1  0.5158610000000  0.4805670000000  0.4248050000000 1.0
C      1  0.5163700000000  0.4264420000000  0.4952780000000 1.0
C      1  0.4807570000000  0.4705130000000  0.5691380000000 1.0
C      1  0.4853090000000  0.5584560000000  0.5484090000000 1.0
C      1  0.4856670000000  0.5634770000000  0.4614160000000 1.0
C      1  0.4849640000000  0.4813870000000  0.4231350000000 1.0
C      1  0.4855650000000  0.4303000000000  0.4975530000000 1.0
C      1  0.4472170000000  0.4813860000000  0.4746030000000 1.0
C      1  0.4463700000000  0.4758050000000  0.5277390000000 1.0
C      1  0.4430660000000  0.5068120000000  0.5325660000000 1.0
C      1  0.4445040000000  0.5274970000000  0.5051750000000 1.0
C      1  0.4453070000000  0.5128950000000  0.4743270000000 1.0
C      1  0.5585330000000  0.4701020000000  0.4692960000000 1.0
C      1  0.5584880000000  0.4776640000000  0.5180950000000 1.0
C      1  0.5569510000000  0.5071220000000  0.5313700000000 1.0
C      1  0.5550650000000  0.5297580000000  0.5075550000000 1.0
C      1  0.5537540000000  0.5149070000000  0.4796310000000 1.0
C      1  0.4396520000000  0.5222860000000  0.6029980000000 1.0
C      1  0.4395440000000  0.6022130000000  0.5128370000000 1.0
C      1  0.4401320000000  0.5445120000000  0.4078770000000 1.0
C      1  0.4384980000000  0.4243540000000  0.4283670000000 1.0
C      1  0.4424230000000  0.4094800000000  0.5535790000000 1.0
C      1  0.5597970000000  0.5197150000000  0.6021060000000 1.0
C      1  0.5591530000000  0.6036890000000  0.5146730000000 1.0
C      1  0.5599670000000  0.5417410000000  0.4072550000000 1.0
C      1  0.5571590000000  0.4232270000000  0.4239430000000 1.0
C      1  0.5612000000000  0.4153990000000  0.5477720000000 1.0
C      1  0.4573920000000  0.4781210000000  0.5012520000000 1.0
C      1  0.5520460000000  0.4868790000000  0.4903800000000 1.0
C      1  0.4862840000000  0.4779130000000  0.5010230000000 1.0
END
