TITL C-22435-4483-8 73.1841009112774 125000 -595.707901806424 0 0 86 (C3) n - 1
REM
REM in /rds/project/t2_vol4/rds-t2-cs072/BORA/CARBON/from-Arr/AIRSS/Generating-Clusters/GAP-ML-2020/Higher-Symm/SD-CG/HFTN-CG
REM
REM
REM
REM
REM
REM ./C.cell (b20cbc046b6831c77cfcea5457e17084)
REM AIRSS Version 0.9.1 bugfix July 2018 build 013d7b7c2542+ Fri, 06 Jul 2018 19:26:36 +0100
REM compiler GCC version 9.3.0
REM options -cpp -mtune=generic -march=x86-64 -g -O0
REM seed 870858807 625885317 -48911590 98189371 -1145277080 339347481 997587914 1666564425 783831809 929661082 708537646 1832227373 609588988 -1442363057 -1531362496 88411961 -1205808942 1193964335 -662003791 -1841160080 1217090009 919653917 -1635237531 -863868873 -1534739039 326431931 -279783954 1299384163 1105331927 -2098890637 -329370467 -1426788850 -728818843
REM
CELL 1.54180   50.00000   50.00000   50.00000   90.00000   90.00000   90.00000
LATT -1
SFAC C  
C      1  0.4405200000000  0.4694570000000  0.5062460000000 1.0
C      1  0.5352620000000  0.4694530000000  0.5476580000000 1.0
C      1  0.5237550000000  0.4694650000000  0.4449010000000 1.0
C      1  0.4337860000000  0.5511090000000  0.5503160000000 1.0
C      1  0.5767860000000  0.5511120000000  0.5314700000000 1.0
C      1  0.4889640000000  0.5511260000000  0.4170510000000 1.0
C      1  0.4877350000000  0.4924330000000  0.5229960000000 1.0
C      1  0.5261590000000  0.4924360000000  0.4983980000000 1.0
C      1  0.4856440000000  0.4924390000000  0.4774210000000 1.0
C      1  0.4467010000000  0.4719070000000  0.4384400000000 1.0
C      1  0.4734500000000  0.4718910000000  0.5762090000000 1.0
C      1  0.5793870000000  0.4719040000000  0.4841580000000 1.0
C      1  0.5476610000000  0.4402700000000  0.4723810000000 1.0
C      1  0.4523680000000  0.4402690000000  0.4717980000000 1.0
C      1  0.4995090000000  0.4402590000000  0.5546160000000 1.0
C      1  0.4554100000000  0.5168550000000  0.5077660000000 1.0
C      1  0.5291280000000  0.5168520000000  0.5340120000000 1.0
C      1  0.5150000000000  0.5168620000000  0.4570470000000 1.0
C      1  0.4739090000000  0.5591100000000  0.4636080000000 1.0
C      1  0.4816320000000  0.5591010000000  0.5400770000000 1.0
C      1  0.5439940000000  0.5591070000000  0.4951540000000 1.0
C      1  0.5698150000000  0.4599880000000  0.5093710000000 1.0
C      1  0.4733240000000  0.4599960000000  0.4341210000000 1.0
C      1  0.4564000000000  0.4599800000000  0.5553100000000 1.0
C      1  0.4541130000000  0.5651670000000  0.5376030000000 1.0
C      1  0.5556110000000  0.5651700000000  0.5202250000000 1.0
C      1  0.4898120000000  0.5651790000000  0.4410140000000 1.0
C      1  0.5560370000000  0.5305910000000  0.4516060000000 1.0
C      1  0.4301770000000  0.5305870000000  0.4749480000000 1.0
C      1  0.5133220000000  0.5305750000000  0.5722740000000 1.0
C      1  0.5010970000000  0.5194900000000  0.5277700000000 1.0
C      1  0.5236090000000  0.5194960000000  0.4844440000000 1.0
C      1  0.4748310000000  0.5194950000000  0.4866120000000 1.0
C      1  0.5652780000000  0.5036300000000  0.4523430000000 1.0
C      1  0.4261990000000  0.5036260000000  0.4665720000000 1.0
C      1  0.5080600000000  0.5036130000000  0.5799040000000 1.0
C      1  0.5620720000000  0.5422240000000  0.4781420000000 1.0
C      1  0.4501400000000  0.5422250000000  0.4564550000000 1.0
C      1  0.4873240000000  0.5422120000000  0.5642360000000 1.0
C      1  0.4266540000000  0.4782080000000  0.4812700000000 1.0
C      1  0.5205650000000  0.4781970000000  0.5721570000000 1.0
C      1  0.5523180000000  0.4782140000000  0.4453820000000 1.0
C      1  0.4659090000000  0.5236850000000  0.5721430000000 1.0
C      1  0.5796300000000  0.5236970000000  0.4927320000000 1.0
C      1  0.4539980000000  0.5237020000000  0.4339520000000 1.0
C      1  0.4393750000000  0.4998960000000  0.4408590000000 1.0
C      1  0.4792050000000  0.4998790000000  0.5813490000000 1.0
C      1  0.5809570000000  0.4998940000000  0.4766090000000 1.0
C      1  0.4970510000000  0.5036920000000  0.4136180000000 1.0
C      1  0.4267750000000  0.5036750000000  0.5450210000000 1.0
C      1  0.5757120000000  0.5036780000000  0.5401800000000 1.0
C      1  0.4961220000000  0.5480030000000  0.5172640000000 1.0
C      1  0.5169940000000  0.5480070000000  0.4940110000000 1.0
C      1  0.4864200000000  0.5480070000000  0.4875610000000 1.0
C      1  0.5380310000000  0.4910570000000  0.5257090000000 1.0
C      1  0.5033590000000  0.4910690000000  0.4534840000000 1.0
C      1  0.4581470000000  0.4910580000000  0.5196230000000 1.0
C      1  0.5641870000000  0.4782330000000  0.5314860000000 1.0
C      1  0.4952900000000  0.4782440000000  0.4279420000000 1.0
C      1  0.4400640000000  0.4782300000000  0.5393820000000 1.0
C      1  0.5657260000000  0.4595950000000  0.4625070000000 1.0
C      1  0.4347820000000  0.4595930000000  0.4610930000000 1.0
C      1  0.4990290000000  0.4595790000000  0.5752020000000 1.0
C      1  0.5233320000000  0.4433260000000  0.5399040000000 1.0
C      1  0.5230080000000  0.4433360000000  0.4591070000000 1.0
C      1  0.4531990000000  0.4433300000000  0.4997860000000 1.0
C      1  0.5139620000000  0.5563160000000  0.4281810000000 1.0
C      1  0.4309260000000  0.5563030000000  0.5231030000000 1.0
C      1  0.5546490000000  0.5563010000000  0.5475540000000 1.0
C      1  0.5825830000000  0.5250240000000  0.5214690000000 1.0
C      1  0.4774090000000  0.5250360000000  0.4170260000000 1.0
C      1  0.4395450000000  0.5250180000000  0.5603320000000 1.0
C      1  0.4139330000000  0.5130690000000  0.5216010000000 1.0
C      1  0.5618490000000  0.5130640000000  0.5630130000000 1.0
C      1  0.5237560000000  0.5130840000000  0.4142080000000 1.0
C      1  0.5305960000000  0.5327000000000  0.4353950000000 1.0
C      1  0.4288580000000  0.5326900000000  0.5050870000000 1.0
C      1  0.5400830000000  0.5326850000000  0.5583480000000 1.0
C      1  0.5250180000000  0.4325730000000  0.5138070000000 1.0
C      1  0.4995670000000  0.4325780000000  0.4706940000000 1.0
C      1  0.4749550000000  0.4325720000000  0.5142920000000 1.0
C      1  0.4736770000000  0.4395650000000  0.5419730000000 1.0
C      1  0.5496280000000  0.4395720000000  0.5010740000000 1.0
C      1  0.4762330000000  0.4395760000000  0.4557480000000 1.0
C      1  0.4998460000000  0.4824090000000  0.4996040000000 1.0
C      1  0.4998470000000  0.4275670000000  0.4995970000000 1.0
END
