TITL C-22461-4624-11 101.436703962039 125000 -437.064823129601 0 0 63 (C1) n - 1
REM
REM in /rds/project/t2_vol4/rds-t2-cs072/BORA/CARBON/from-Arr/AIRSS/Generating-Clusters/GAP-ML-2020/Higher-Symm/SD-CG/HFTN-CG
REM
REM
REM
REM
REM
REM ./C.cell (b20cbc046b6831c77cfcea5457e17084)
REM AIRSS Version 0.9.1 bugfix July 2018 build 013d7b7c2542+ Fri, 06 Jul 2018 19:26:36 +0100
REM compiler GCC version 9.3.0
REM options -cpp -mtune=generic -march=x86-64 -g -O0
REM seed -1167432330 -739899441 1357000109 772441813 2124042228 -435055542 116567648 896176180 1333357578 467795905 -965162568 181660793 -1700287690 -1417181612 1155985967 -1600692595 -1291875563 662938930 -1565319025 -1779483213 870156252 -625239520 1757767633 -1210750667 824646920 -2006442235 -1612560689 -1139358872 1367756179 -2033314477 -1802809837 -1228655874 2141163972
REM
CELL 1.54180   50.00000   50.00000   50.00000   90.00000   90.00000   90.00000
LATT -1
SFAC C  
C      1  0.4810330000000  0.4847890000000  0.4342360000000 1.0
C      1  0.5264030000000  0.4851820000000  0.5692430000000 1.0
C      1  0.4651700000000  0.5077970000000  0.4390270000000 1.0
C      1  0.5265020000000  0.5275240000000  0.5511750000000 1.0
C      1  0.4900350000000  0.4331860000000  0.4817640000000 1.0
C      1  0.5029950000000  0.4339800000000  0.5078650000000 1.0
C      1  0.4915650000000  0.5648000000000  0.4789050000000 1.0
C      1  0.5037260000000  0.5622350000000  0.5052200000000 1.0
C      1  0.4526320000000  0.5464390000000  0.4620540000000 1.0
C      1  0.5385700000000  0.5521780000000  0.5411360000000 1.0
C      1  0.4524310000000  0.4554150000000  0.4640690000000 1.0
C      1  0.5423710000000  0.4687920000000  0.5531340000000 1.0
C      1  0.4446270000000  0.5159360000000  0.4990370000000 1.0
C      1  0.5695890000000  0.5215910000000  0.5112230000000 1.0
C      1  0.4366730000000  0.4871720000000  0.4989580000000 1.0
C      1  0.5652690000000  0.4956300000000  0.5205350000000 1.0
C      1  0.5476310000000  0.4653510000000  0.4560770000000 1.0
C      1  0.4558770000000  0.4742980000000  0.5450580000000 1.0
C      1  0.5496600000000  0.5301370000000  0.4606560000000 1.0
C      1  0.4523100000000  0.5317280000000  0.5445180000000 1.0
C      1  0.4629070000000  0.5633950000000  0.4820110000000 1.0
C      1  0.5296150000000  0.5667200000000  0.5160490000000 1.0
C      1  0.4614210000000  0.4378900000000  0.4849070000000 1.0
C      1  0.5310440000000  0.4329880000000  0.5128130000000 1.0
C      1  0.5094420000000  0.4856340000000  0.4329830000000 1.0
C      1  0.4991970000000  0.4911960000000  0.5638310000000 1.0
C      1  0.5245270000000  0.5095300000000  0.4343810000000 1.0
C      1  0.4986230000000  0.5192950000000  0.5596500000000 1.0
C      1  0.4802650000000  0.5330830000000  0.5438660000000 1.0
C      1  0.5228270000000  0.5354970000000  0.4483020000000 1.0
C      1  0.4835040000000  0.4721160000000  0.5481530000000 1.0
C      1  0.5202700000000  0.4624130000000  0.4458140000000 1.0
C      1  0.4499500000000  0.4419870000000  0.5090070000000 1.0
C      1  0.5513550000000  0.4312730000000  0.4942060000000 1.0
C      1  0.4497200000000  0.5618420000000  0.5059690000000 1.0
C      1  0.5538680000000  0.5587910000000  0.5029700000000 1.0
C      1  0.4415540000000  0.5388510000000  0.5182120000000 1.0
C      1  0.5611550000000  0.5362040000000  0.4862270000000 1.0
C      1  0.4438240000000  0.4671430000000  0.5189010000000 1.0
C      1  0.5521290000000  0.4581850000000  0.4838620000000 1.0
C      1  0.5444550000000  0.4786230000000  0.5060060000000 1.0
C      1  0.4867460000000  0.4739520000000  0.5012490000000 1.0
C      1  0.5219250000000  0.5004850000000  0.5026240000000 1.0
C      1  0.4786410000000  0.5200450000000  0.4963800000000 1.0
C      1  0.5652260000000  0.4822200000000  0.4416200000000 1.0
C      1  0.4404470000000  0.4866350000000  0.5668300000000 1.0
C      1  0.5514700000000  0.5051120000000  0.4450680000000 1.0
C      1  0.4425860000000  0.5110150000000  0.5598320000000 1.0
C      1  0.4388790000000  0.4789130000000  0.4714840000000 1.0
C      1  0.5622230000000  0.4919330000000  0.5484950000000 1.0
C      1  0.4377250000000  0.5244960000000  0.4714610000000 1.0
C      1  0.5632670000000  0.5442370000000  0.5278190000000 1.0
C      1  0.4986770000000  0.4600540000000  0.5250840000000 1.0
C      1  0.4975240000000  0.4463620000000  0.4561040000000 1.0
C      1  0.4934440000000  0.5360570000000  0.5172950000000 1.0
C      1  0.4979510000000  0.5492640000000  0.4540270000000 1.0
C      1  0.5304860000000  0.4597020000000  0.5283910000000 1.0
C      1  0.4742380000000  0.4595950000000  0.4462480000000 1.0
C      1  0.5187580000000  0.5209690000000  0.5217080000000 1.0
C      1  0.4733910000000  0.5359180000000  0.4455620000000 1.0
C      1  0.5444080000000  0.5083160000000  0.5639360000000 1.0
C      1  0.4424430000000  0.5021630000000  0.4552130000000 1.0
C      1  0.4965940000000  0.4976260000000  0.4914810000000 1.0
END
