TITL C-22210-3788-1 154.983607913182 125000 -604.01698016827 0 0 88 (C1) n - 1
REM
REM in /rds/project/t2_vol4/rds-t2-cs072/BORA/CARBON/from-Arr/AIRSS/Generating-Clusters/GAP-ML-2020/Higher-Symm/SD-CG/HFTN-CG
REM
REM
REM
REM
REM
REM ./C.cell (b20cbc046b6831c77cfcea5457e17084)
REM AIRSS Version 0.9.1 bugfix July 2018 build 013d7b7c2542+ Fri, 06 Jul 2018 19:26:36 +0100
REM compiler GCC version 9.3.0
REM options -cpp -mtune=generic -march=x86-64 -g -O0
REM seed 69136759 -1190920160 -1663579679 -1975790114 -1220931369 1655361264 -1795172533 2019452627 -1682302685 1710853613 1079404194 -799940387 -1387755939 -1931435027 135910732 615929638 389783754 -1543469702 228808212 -787801936 224237948 -1821007585 151365400 -844899425 560356328 -507252352 -1960299262 -325080127 263400910 -242555339 -827936503 1376147295 -985647993
REM
CELL 1.54180   50.00000   50.00000   50.00000   90.00000   90.00000   90.00000
LATT -1
SFAC C  
C      1  0.4872080000000  0.5347750000000  0.4251720000000 1.0
C      1  0.5377170000000  0.4936640000000  0.4258780000000 1.0
C      1  0.4713600000000  0.4656500000000  0.4233090000000 1.0
C      1  0.4482420000000  0.4404030000000  0.5104340000000 1.0
C      1  0.4731370000000  0.5744220000000  0.5073660000000 1.0
C      1  0.5777910000000  0.4867360000000  0.5091060000000 1.0
C      1  0.4950370000000  0.4291780000000  0.4970090000000 1.0
C      1  0.4410310000000  0.5381540000000  0.4941680000000 1.0
C      1  0.5630450000000  0.5317300000000  0.4931470000000 1.0
C      1  0.4730350000000  0.4523470000000  0.5675030000000 1.0
C      1  0.4704550000000  0.5491780000000  0.5656600000000 1.0
C      1  0.5563040000000  0.5028440000000  0.5666680000000 1.0
C      1  0.5017950000000  0.4230800000000  0.4702290000000 1.0
C      1  0.4322410000000  0.5327590000000  0.4676360000000 1.0
C      1  0.5633120000000  0.5401760000000  0.4659180000000 1.0
C      1  0.5316410000000  0.4759820000000  0.4677180000000 1.0
C      1  0.4604810000000  0.4825460000000  0.4656350000000 1.0
C      1  0.5063490000000  0.5445670000000  0.4671640000000 1.0
C      1  0.4864440000000  0.4779500000000  0.5097860000000 1.0
C      1  0.4888540000000  0.5242990000000  0.5089200000000 1.0
C      1  0.5276980000000  0.4990660000000  0.5106430000000 1.0
C      1  0.5481080000000  0.5625770000000  0.4572780000000 1.0
C      1  0.5276480000000  0.4285260000000  0.4595860000000 1.0
C      1  0.4207980000000  0.5090610000000  0.4580460000000 1.0
C      1  0.4968130000000  0.4654260000000  0.4111560000000 1.0
C      1  0.4778860000000  0.5070500000000  0.4249390000000 1.0
C      1  0.5282560000000  0.5194750000000  0.4305990000000 1.0
C      1  0.4619040000000  0.5717780000000  0.5330580000000 1.0
C      1  0.5803620000000  0.4983200000000  0.5343930000000 1.0
C      1  0.4569260000000  0.4328570000000  0.5360830000000 1.0
C      1  0.5596310000000  0.4601000000000  0.5117770000000 1.0
C      1  0.4357810000000  0.4698640000000  0.5116110000000 1.0
C      1  0.5054340000000  0.5725780000000  0.5109910000000 1.0
C      1  0.5409640000000  0.5816300000000  0.4769120000000 1.0
C      1  0.5491750000000  0.4271200000000  0.4776690000000 1.0
C      1  0.4038220000000  0.4937860000000  0.4767720000000 1.0
C      1  0.4817320000000  0.5017490000000  0.4551730000000 1.0
C      1  0.5218270000000  0.5207340000000  0.4598490000000 1.0
C      1  0.5078460000000  0.4972490000000  0.4680290000000 1.0
C      1  0.4745300000000  0.4327370000000  0.4642030000000 1.0
C      1  0.4549660000000  0.5498260000000  0.4625570000000 1.0
C      1  0.5702270000000  0.5112280000000  0.4618530000000 1.0
C      1  0.5335640000000  0.4698640000000  0.4988340000000 1.0
C      1  0.4585970000000  0.4859410000000  0.4975940000000 1.0
C      1  0.5097820000000  0.5449530000000  0.4980940000000 1.0
C      1  0.5088950000000  0.5684540000000  0.5416890000000 1.0
C      1  0.5536250000000  0.4597750000000  0.5426510000000 1.0
C      1  0.4375180000000  0.4757340000000  0.5423720000000 1.0
C      1  0.5682880000000  0.4802110000000  0.5545910000000 1.0
C      1  0.4475400000000  0.4531210000000  0.5552160000000 1.0
C      1  0.4836690000000  0.5708720000000  0.5532920000000 1.0
C      1  0.4662600000000  0.4301800000000  0.4918840000000 1.0
C      1  0.4563260000000  0.5625770000000  0.4885540000000 1.0
C      1  0.5769750000000  0.5067280000000  0.4893560000000 1.0
C      1  0.5278470000000  0.5019190000000  0.5672830000000 1.0
C      1  0.4866130000000  0.4773240000000  0.5673620000000 1.0
C      1  0.4859100000000  0.5252480000000  0.5665190000000 1.0
C      1  0.5088780000000  0.4416270000000  0.5371100000000 1.0
C      1  0.4445930000000  0.5222850000000  0.5350360000000 1.0
C      1  0.5468810000000  0.5386590000000  0.5352900000000 1.0
C      1  0.4459120000000  0.5005190000000  0.5538170000000 1.0
C      1  0.5265710000000  0.5488260000000  0.5531900000000 1.0
C      1  0.5279140000000  0.4544240000000  0.5545760000000 1.0
C      1  0.5651550000000  0.4353840000000  0.4957130000000 1.0
C      1  0.4129580000000  0.4786990000000  0.4948830000000 1.0
C      1  0.5246760000000  0.5890610000000  0.4949760000000 1.0
C      1  0.5149960000000  0.5283810000000  0.5712960000000 1.0
C      1  0.5157830000000  0.4753180000000  0.5719210000000 1.0
C      1  0.4696990000000  0.5011070000000  0.5715920000000 1.0
C      1  0.4495520000000  0.5481310000000  0.5448640000000 1.0
C      1  0.5661140000000  0.5210850000000  0.5456930000000 1.0
C      1  0.4839430000000  0.4337630000000  0.5474850000000 1.0
C      1  0.5217280000000  0.4686830000000  0.4230590000000 1.0
C      1  0.4551390000000  0.4902770000000  0.4212720000000 1.0
C      1  0.5140380000000  0.5426420000000  0.4217720000000 1.0
C      1  0.5530950000000  0.4911010000000  0.4502000000000 1.0
C      1  0.4675060000000  0.4569950000000  0.4505460000000 1.0
C      1  0.4802610000000  0.5358510000000  0.4544890000000 1.0
C      1  0.5219680000000  0.5587600000000  0.4457540000000 1.0
C      1  0.5279070000000  0.4547320000000  0.4480230000000 1.0
C      1  0.4398740000000  0.4918820000000  0.4459410000000 1.0
C      1  0.4936850000000  0.5165370000000  0.5369750000000 1.0
C      1  0.5172130000000  0.4990870000000  0.5379470000000 1.0
C      1  0.4900980000000  0.4874490000000  0.5373730000000 1.0
C      1  0.5372310000000  0.5305870000000  0.5078120000000 1.0
C      1  0.5073780000000  0.4538610000000  0.5093270000000 1.0
C      1  0.4568530000000  0.5167110000000  0.5078950000000 1.0
C      1  0.5016370000000  0.5001470000000  0.4965970000000 1.0
END
