TITL C-22435-4483-7 -0.0646911545299941 125000 -914.620380772672 0 0 133 (C1) n - 1
REM
REM in /rds/project/t2_vol4/rds-t2-cs072/BORA/CARBON/from-Arr/AIRSS/Generating-Clusters/GAP-ML-2020/Higher-Symm/SD-CG/HFTN-CG
REM
REM
REM
REM
REM
REM ./C.cell (b20cbc046b6831c77cfcea5457e17084)
REM AIRSS Version 0.9.1 bugfix July 2018 build 013d7b7c2542+ Fri, 06 Jul 2018 19:26:36 +0100
REM compiler GCC version 9.3.0
REM options -cpp -mtune=generic -march=x86-64 -g -O0
REM seed 1949454933 -523863137 -1777616017 -344082268 -4283708 112990156 259861371 -1469143947 -1250391832 -1899951094 -2037849964 -1816332659 -1234332928 867377596 -761502982 -1577435635 -1867726324 -667281594 -1404687808 790697689 1455514033 -1712997538 -698400503 1669306459 117012892 2092705271 -1338247713 1038965764 14240514 -720281570 -331941093 1706101841 -700648506
REM
CELL 1.54180   50.00000   50.00000   50.00000   90.00000   90.00000   90.00000
LATT -1
SFAC C  
C      1  0.5062890000000  0.4623640000000  0.5383940000000 1.0
C      1  0.4489940000000  0.4957300000000  0.5859970000000 1.0
C      1  0.4434680000000  0.4860240000000  0.4781210000000 1.0
C      1  0.4645660000000  0.5165770000000  0.5960390000000 1.0
C      1  0.4245240000000  0.4751470000000  0.4354150000000 1.0
C      1  0.4875620000000  0.4549270000000  0.3990730000000 1.0
C      1  0.5296910000000  0.5010800000000  0.5458070000000 1.0
C      1  0.4247140000000  0.4937040000000  0.5408430000000 1.0
C      1  0.5328070000000  0.4589800000000  0.4158580000000 1.0
C      1  0.5343470000000  0.4622500000000  0.4475670000000 1.0
C      1  0.5238180000000  0.5453340000000  0.4245480000000 1.0
C      1  0.4494320000000  0.4261660000000  0.5186000000000 1.0
C      1  0.4959960000000  0.4329980000000  0.5334510000000 1.0
C      1  0.3925670000000  0.4987990000000  0.4989240000000 1.0
C      1  0.5812810000000  0.4915860000000  0.4554670000000 1.0
C      1  0.5482040000000  0.4665450000000  0.5740330000000 1.0
C      1  0.4579640000000  0.5633330000000  0.5637260000000 1.0
C      1  0.5017090000000  0.4889770000000  0.5779340000000 1.0
C      1  0.4637170000000  0.5204750000000  0.5451580000000 1.0
C      1  0.5661060000000  0.5669170000000  0.4496490000000 1.0
C      1  0.4311530000000  0.4650270000000  0.5409430000000 1.0
C      1  0.4693340000000  0.4426660000000  0.4383750000000 1.0
C      1  0.4695480000000  0.4841950000000  0.5150000000000 1.0
C      1  0.4491480000000  0.5048830000000  0.5231420000000 1.0
C      1  0.5862480000000  0.5298650000000  0.4856970000000 1.0
C      1  0.4445250000000  0.5132790000000  0.4940140000000 1.0
C      1  0.5085200000000  0.5848390000000  0.5372770000000 1.0
C      1  0.4858590000000  0.5332850000000  0.5903960000000 1.0
C      1  0.5647420000000  0.5498940000000  0.5003820000000 1.0
C      1  0.5114060000000  0.4431390000000  0.4104180000000 1.0
C      1  0.5310160000000  0.4330950000000  0.4562880000000 1.0
C      1  0.4404070000000  0.5368610000000  0.5576290000000 1.0
C      1  0.5280080000000  0.5203070000000  0.4643230000000 1.0
C      1  0.5923880000000  0.5103280000000  0.5051710000000 1.0
C      1  0.5181590000000  0.5639810000000  0.4469680000000 1.0
C      1  0.5372000000000  0.5053210000000  0.4865290000000 1.0
C      1  0.4795700000000  0.4746480000000  0.5402030000000 1.0
C      1  0.4705870000000  0.5585330000000  0.4310860000000 1.0
C      1  0.4723320000000  0.5248390000000  0.4911420000000 1.0
C      1  0.5741580000000  0.4437210000000  0.4846680000000 1.0
C      1  0.5346430000000  0.5846330000000  0.5226340000000 1.0
C      1  0.5789410000000  0.5341930000000  0.5435460000000 1.0
C      1  0.4222490000000  0.4513660000000  0.4483930000000 1.0
C      1  0.5088350000000  0.5164470000000  0.5850160000000 1.0
C      1  0.4630900000000  0.4827030000000  0.4568500000000 1.0
C      1  0.4827960000000  0.5996510000000  0.4534890000000 1.0
C      1  0.5499880000000  0.4210580000000  0.5211490000000 1.0
C      1  0.5132280000000  0.4272760000000  0.5568920000000 1.0
C      1  0.4874220000000  0.5740280000000  0.5004720000000 1.0
C      1  0.5482940000000  0.4691620000000  0.5133520000000 1.0
C      1  0.4837920000000  0.5346730000000  0.4680630000000 1.0
C      1  0.5024750000000  0.4398990000000  0.5020210000000 1.0
C      1  0.5704420000000  0.5407120000000  0.4412030000000 1.0
C      1  0.5993880000000  0.4663810000000  0.5251740000000 1.0
C      1  0.5422640000000  0.5031200000000  0.4242810000000 1.0
C      1  0.4439040000000  0.5632140000000  0.5196730000000 1.0
C      1  0.5990170000000  0.4822830000000  0.5025330000000 1.0
C      1  0.5832910000000  0.5209770000000  0.4590800000000 1.0
C      1  0.4209590000000  0.5379530000000  0.4902310000000 1.0
C      1  0.4604620000000  0.4211690000000  0.4924230000000 1.0
C      1  0.3997240000000  0.5002520000000  0.4722490000000 1.0
C      1  0.5797880000000  0.5286760000000  0.5699670000000 1.0
C      1  0.5420890000000  0.5714750000000  0.4929180000000 1.0
C      1  0.5530720000000  0.4919080000000  0.5316750000000 1.0
C      1  0.5233450000000  0.5369050000000  0.5204550000000 1.0
C      1  0.5173890000000  0.4224550000000  0.4837350000000 1.0
C      1  0.5412310000000  0.4125560000000  0.4958580000000 1.0
C      1  0.5592390000000  0.5139480000000  0.5808370000000 1.0
C      1  0.5125010000000  0.4238630000000  0.4336070000000 1.0
C      1  0.5594400000000  0.4820020000000  0.4400040000000 1.0
C      1  0.5436910000000  0.5755780000000  0.4619360000000 1.0
C      1  0.5576250000000  0.4878890000000  0.5883580000000 1.0
C      1  0.5474640000000  0.5250870000000  0.5079990000000 1.0
C      1  0.5500980000000  0.5693880000000  0.5401260000000 1.0
C      1  0.4565820000000  0.4580770000000  0.5541110000000 1.0
C      1  0.5725600000000  0.5571200000000  0.5286980000000 1.0
C      1  0.5153590000000  0.5575970000000  0.4970880000000 1.0
C      1  0.5024700000000  0.5254640000000  0.4229910000000 1.0
C      1  0.4879010000000  0.4631770000000  0.5869100000000 1.0
C      1  0.4340510000000  0.5315570000000  0.4444560000000 1.0
C      1  0.4463390000000  0.5576590000000  0.4461560000000 1.0
C      1  0.5038250000000  0.5147370000000  0.5290110000000 1.0
C      1  0.4912990000000  0.5771270000000  0.4405530000000 1.0
C      1  0.5186190000000  0.4652730000000  0.5099820000000 1.0
C      1  0.4830060000000  0.4615940000000  0.4599120000000 1.0
C      1  0.5417060000000  0.4261730000000  0.5485790000000 1.0
C      1  0.4023950000000  0.5055310000000  0.5231440000000 1.0
C      1  0.4550570000000  0.4658240000000  0.4977530000000 1.0
C      1  0.5093670000000  0.4781110000000  0.4581630000000 1.0
C      1  0.5836820000000  0.4490070000000  0.5385440000000 1.0
C      1  0.5156590000000  0.5044160000000  0.4407510000000 1.0
C      1  0.4834400000000  0.5884880000000  0.5268840000000 1.0
C      1  0.5506300000000  0.4793380000000  0.4110450000000 1.0
C      1  0.5120740000000  0.4879180000000  0.4890280000000 1.0
C      1  0.5324460000000  0.5229040000000  0.5673950000000 1.0
C      1  0.4902380000000  0.5023480000000  0.5035870000000 1.0
C      1  0.4334030000000  0.5640670000000  0.4921460000000 1.0
C      1  0.4592720000000  0.5788020000000  0.5401350000000 1.0
C      1  0.4836650000000  0.5579760000000  0.5755780000000 1.0
C      1  0.5109670000000  0.5433130000000  0.4704790000000 1.0
C      1  0.4842440000000  0.4996240000000  0.5539310000000 1.0
C      1  0.4140770000000  0.5258740000000  0.4647800000000 1.0
C      1  0.4750930000000  0.5319700000000  0.4211780000000 1.0
C      1  0.5610940000000  0.4454720000000  0.5586590000000 1.0
C      1  0.5551080000000  0.4256920000000  0.4737320000000 1.0
C      1  0.5225350000000  0.4768760000000  0.5606810000000 1.0
C      1  0.4441120000000  0.4351510000000  0.4501680000000 1.0
C      1  0.5304090000000  0.5485640000000  0.5501800000000 1.0
C      1  0.4857710000000  0.4161310000000  0.4395090000000 1.0
C      1  0.4599640000000  0.4684290000000  0.5818310000000 1.0
C      1  0.5706810000000  0.5131230000000  0.5245250000000 1.0
C      1  0.4845740000000  0.5384940000000  0.5345980000000 1.0
C      1  0.5829350000000  0.4730970000000  0.4788600000000 1.0
C      1  0.4170380000000  0.4789800000000  0.4634810000000 1.0
C      1  0.4677300000000  0.4617390000000  0.4152710000000 1.0
C      1  0.4735050000000  0.5851900000000  0.4752590000000 1.0
C      1  0.4669490000000  0.4327480000000  0.5396540000000 1.0
C      1  0.4718330000000  0.3973010000000  0.4532870000000 1.0
C      1  0.4255340000000  0.5467160000000  0.5346310000000 1.0
C      1  0.4520790000000  0.4854540000000  0.4286840000000 1.0
C      1  0.4320790000000  0.5086950000000  0.5662510000000 1.0
C      1  0.5486710000000  0.5315080000000  0.4241020000000 1.0
C      1  0.4773050000000  0.4467220000000  0.4869980000000 1.0
C      1  0.4356110000000  0.4508560000000  0.5173350000000 1.0
C      1  0.5680660000000  0.4430320000000  0.5141290000000 1.0
C      1  0.4086240000000  0.5330710000000  0.5169270000000 1.0
C      1  0.5555060000000  0.4816150000000  0.4886300000000 1.0
C      1  0.4519300000000  0.5155190000000  0.4274970000000 1.0
C      1  0.5041880000000  0.5614290000000  0.5541450000000 1.0
C      1  0.5006410000000  0.4399400000000  0.5793330000000 1.0
C      1  0.4522250000000  0.4117300000000  0.4677350000000 1.0
C      1  0.4475510000000  0.5728380000000  0.4702660000000 1.0
C      1  0.4720900000000  0.5493200000000  0.5102150000000 1.0
END
