TITL C-22171-1924-5 -23.0187526442672 125000 -238.249992887524 0 0 36 (C6) n - 1
REM
REM in /rds/project/t2_vol4/rds-t2-cs072/BORA/CARBON/from-Arr/AIRSS/Generating-Clusters/GAP-ML-2020/Higher-Symm/SD-CG/HFTN-CG
REM
REM
REM
REM
REM
REM ./C.cell (b20cbc046b6831c77cfcea5457e17084)
REM AIRSS Version 0.9.1 bugfix July 2018 build 013d7b7c2542+ Fri, 06 Jul 2018 19:26:36 +0100
REM compiler GCC version 9.3.0
REM options -cpp -mtune=generic -march=x86-64 -g -O0
REM seed -97947419 411024603 -1762573007 1664643983 -614179881 -246563372 843616202 -1656773419 -366847302 -1099675317 1062876434 -1821349332 332601756 -1608556491 -1708197510 1858789261 -1022795162 66520279 601227012 997710281 75977989 -307855718 2142877947 -1427538912 -1564880216 1010084700 773649257 -1904901551 -1158891776 -1380510215 -666712195 1681532638 901465040
REM
CELL 1.54180   50.00000   50.00000   50.00000   90.00000   90.00000   90.00000
LATT -1
SFAC C  
C      1  0.4992030000000  0.4217220000000  0.4856110000000 1.0
C      1  0.4995520000000  0.4483980000000  0.5605970000000 1.0
C      1  0.4996710000000  0.5266760000000  0.5749890000000 1.0
C      1  0.4994410000000  0.5782780000000  0.5143950000000 1.0
C      1  0.4990920000000  0.5516030000000  0.4394090000000 1.0
C      1  0.4989730000000  0.4733250000000  0.4250170000000 1.0
C      1  0.4993150000000  0.5783220000000  0.4858500000000 1.0
C      1  0.4996260000000  0.5514180000000  0.5607540000000 1.0
C      1  0.4996330000000  0.4730970000000  0.5749070000000 1.0
C      1  0.4993290000000  0.4216790000000  0.5141560000000 1.0
C      1  0.4990180000000  0.4485830000000  0.4392520000000 1.0
C      1  0.4990110000000  0.5269040000000  0.4250980000000 1.0
C      1  0.5153330000000  0.5137140000000  0.4470860000000 1.0
C      1  0.5153600000000  0.4610860000000  0.4616230000000 1.0
C      1  0.5155840000000  0.4473610000000  0.5144680000000 1.0
C      1  0.5157800000000  0.4862640000000  0.5527760000000 1.0
C      1  0.5157530000000  0.5388920000000  0.5382400000000 1.0
C      1  0.5155300000000  0.5526170000000  0.4853950000000 1.0
C      1  0.5153140000000  0.4864250000000  0.4470450000000 1.0
C      1  0.5154160000000  0.5390090000000  0.4617410000000 1.0
C      1  0.5156580000000  0.5525720000000  0.5146280000000 1.0
C      1  0.5157990000000  0.5135530000000  0.5528180000000 1.0
C      1  0.5156970000000  0.4609690000000  0.5381210000000 1.0
C      1  0.5154550000000  0.4474050000000  0.4852350000000 1.0
C      1  0.4849180000000  0.5744380000000  0.4420570000000 1.0
C      1  0.4847000000000  0.4869870000000  0.4066060000000 1.0
C      1  0.4849040000000  0.4125590000000  0.4646140000000 1.0
C      1  0.4853250000000  0.4255830000000  0.5580740000000 1.0
C      1  0.4855430000000  0.5130340000000  0.5935250000000 1.0
C      1  0.4853390000000  0.5874610000000  0.5355170000000 1.0
C      1  0.4848120000000  0.4257600000000  0.4418310000000 1.0
C      1  0.4847190000000  0.5133190000000  0.4066460000000 1.0
C      1  0.4850280000000  0.5875690000000  0.4648800000000 1.0
C      1  0.4854310000000  0.5742610000000  0.5583000000000 1.0
C      1  0.4855240000000  0.4867020000000  0.5934850000000 1.0
C      1  0.4852150000000  0.4124520000000  0.5352510000000 1.0
END
