TITL C-22169-9779-8 -0.1743955004003 125000 -556.744795665044 0 0 79 (C1) n - 1
REM
REM in /rds/project/t2_vol4/rds-t2-cs072/BORA/CARBON/from-Arr/AIRSS/Generating-Clusters/GAP-ML-2020/Higher-Symm/SD-CG/HFTN-CG
REM
REM
REM
REM
REM
REM ./C.cell (b20cbc046b6831c77cfcea5457e17084)
REM AIRSS Version 0.9.1 bugfix July 2018 build 013d7b7c2542+ Fri, 06 Jul 2018 19:26:36 +0100
REM compiler GCC version 9.3.0
REM options -cpp -mtune=generic -march=x86-64 -g -O0
REM seed -91037967 1473398763 -986016556 -648013175 2006952080 -1242146798 -1476187158 1426888294 1042190076 1381693297 -17030918 -1574203037 -727144224 1974355690 245761200 1345089831 -1332133874 -1056175338 -1374154625 926799906 979465852 -1171743824 464720800 -648522630 579031117 144119352 -825964993 -714489546 -1123023130 -979378655 981505011 1025134673 -1230995081
REM
CELL 1.54180   50.00000   50.00000   50.00000   90.00000   90.00000   90.00000
LATT -1
SFAC C  
C      1  0.4699710000000  0.5395960000000  0.5038220000000 1.0
C      1  0.5066340000000  0.4694420000000  0.5558390000000 1.0
C      1  0.5044900000000  0.5134220000000  0.5241230000000 1.0
C      1  0.4428400000000  0.5079440000000  0.4642920000000 1.0
C      1  0.5747020000000  0.5343650000000  0.4804370000000 1.0
C      1  0.5551490000000  0.5472730000000  0.4631280000000 1.0
C      1  0.5275970000000  0.4995230000000  0.4215840000000 1.0
C      1  0.5624390000000  0.4808010000000  0.4519610000000 1.0
C      1  0.5725140000000  0.5053370000000  0.5192590000000 1.0
C      1  0.4943930000000  0.4950810000000  0.4741330000000 1.0
C      1  0.5711910000000  0.4828600000000  0.5008060000000 1.0
C      1  0.4590610000000  0.4359880000000  0.5602670000000 1.0
C      1  0.4484680000000  0.4630760000000  0.5191630000000 1.0
C      1  0.5067980000000  0.5619400000000  0.4708190000000 1.0
C      1  0.5718050000000  0.5325150000000  0.5089580000000 1.0
C      1  0.4291150000000  0.4619540000000  0.4762570000000 1.0
C      1  0.5439100000000  0.4545920000000  0.5327330000000 1.0
C      1  0.5302670000000  0.4800060000000  0.5686420000000 1.0
C      1  0.4347490000000  0.5527610000000  0.5290390000000 1.0
C      1  0.5151690000000  0.5244330000000  0.5008280000000 1.0
C      1  0.4887510000000  0.5546980000000  0.4500250000000 1.0
C      1  0.4579910000000  0.4877680000000  0.5603390000000 1.0
C      1  0.4879780000000  0.5448740000000  0.5513710000000 1.0
C      1  0.4745970000000  0.4819300000000  0.5164200000000 1.0
C      1  0.5382890000000  0.5679940000000  0.5045020000000 1.0
C      1  0.4760910000000  0.5300060000000  0.5729400000000 1.0
C      1  0.4973980000000  0.5507140000000  0.4963050000000 1.0
C      1  0.4731610000000  0.4944290000000  0.4911330000000 1.0
C      1  0.4468850000000  0.4466660000000  0.4939450000000 1.0
C      1  0.4759500000000  0.4442190000000  0.4552850000000 1.0
C      1  0.4254180000000  0.4826690000000  0.5142860000000 1.0
C      1  0.5227120000000  0.4791370000000  0.5039460000000 1.0
C      1  0.4604310000000  0.5518250000000  0.4571530000000 1.0
C      1  0.5524990000000  0.5017650000000  0.4361960000000 1.0
C      1  0.4940910000000  0.4284920000000  0.4970460000000 1.0
C      1  0.5183370000000  0.5008930000000  0.4846590000000 1.0
C      1  0.5208910000000  0.4569190000000  0.4386980000000 1.0
C      1  0.5355420000000  0.5638710000000  0.4761090000000 1.0
C      1  0.5035980000000  0.4840580000000  0.5254740000000 1.0
C      1  0.5904370000000  0.5142520000000  0.4702780000000 1.0
C      1  0.5455360000000  0.5216890000000  0.5589450000000 1.0
C      1  0.5254180000000  0.5074890000000  0.5741880000000 1.0
C      1  0.4619620000000  0.5025820000000  0.5339040000000 1.0
C      1  0.5493450000000  0.4623330000000  0.5046720000000 1.0
C      1  0.4793470000000  0.5269230000000  0.5290550000000 1.0
C      1  0.4973980000000  0.4289210000000  0.5267070000000 1.0
C      1  0.4852400000000  0.4845840000000  0.5706890000000 1.0
C      1  0.5453540000000  0.4585460000000  0.4545400000000 1.0
C      1  0.4419140000000  0.4790700000000  0.4567220000000 1.0
C      1  0.4760660000000  0.4232850000000  0.5452980000000 1.0
C      1  0.4808730000000  0.4860930000000  0.4279830000000 1.0
C      1  0.5616010000000  0.5012010000000  0.5448570000000 1.0
C      1  0.4330630000000  0.5294780000000  0.5421640000000 1.0
C      1  0.5477130000000  0.5303890000000  0.4411020000000 1.0
C      1  0.4104820000000  0.4744920000000  0.4935960000000 1.0
C      1  0.5089790000000  0.4789860000000  0.4244110000000 1.0
C      1  0.4962170000000  0.5095580000000  0.5775140000000 1.0
C      1  0.4467840000000  0.5600900000000  0.5051560000000 1.0
C      1  0.5129470000000  0.5573060000000  0.5440010000000 1.0
C      1  0.4464840000000  0.5647850000000  0.4774710000000 1.0
C      1  0.4498810000000  0.5175910000000  0.5657790000000 1.0
C      1  0.4538350000000  0.5253240000000  0.4457930000000 1.0
C      1  0.5167520000000  0.4457180000000  0.5398660000000 1.0
C      1  0.5124180000000  0.5660730000000  0.5170630000000 1.0
C      1  0.5555280000000  0.5525930000000  0.5215830000000 1.0
C      1  0.5410990000000  0.4459760000000  0.4802010000000 1.0
C      1  0.4370840000000  0.5084120000000  0.5190060000000 1.0
C      1  0.4952640000000  0.5346930000000  0.4301810000000 1.0
C      1  0.4529140000000  0.5148400000000  0.4924090000000 1.0
C      1  0.5036320000000  0.4402710000000  0.4532670000000 1.0
C      1  0.4697990000000  0.4355810000000  0.4824340000000 1.0
C      1  0.4746860000000  0.5147110000000  0.4289210000000 1.0
C      1  0.4639650000000  0.4678570000000  0.4425650000000 1.0
C      1  0.5518020000000  0.4748810000000  0.5511000000000 1.0
C      1  0.5406510000000  0.5468680000000  0.5462240000000 1.0
C      1  0.4500340000000  0.4603240000000  0.5493710000000 1.0
C      1  0.5222080000000  0.5274980000000  0.4262780000000 1.0
C      1  0.5153860000000  0.4330290000000  0.4783970000000 1.0
C      1  0.5780270000000  0.4898770000000  0.4743820000000 1.0
END
