TITL C-22196-9773-4 -0.0253290786469365 125000 -74.2866082337063 0 0 12 (C1) n - 1
REM
REM in /rds/project/t2_vol4/rds-t2-cs072/BORA/CARBON/from-Arr/AIRSS/Generating-Clusters/GAP-ML-2020/Higher-Symm/SD-CG/HFTN-CG
REM
REM
REM
REM
REM
REM ./C.cell (b20cbc046b6831c77cfcea5457e17084)
REM AIRSS Version 0.9.1 bugfix July 2018 build 013d7b7c2542+ Fri, 06 Jul 2018 19:26:36 +0100
REM compiler GCC version 9.3.0
REM options -cpp -mtune=generic -march=x86-64 -g -O0
REM seed -214856920 1372203026 -574073140 888408804 -1856015884 -1981702759 -1216589031 -1653176860 -461287422 -198638854 -1529882143 -955238624 1629652250 1520840301 -860223014 -1710523861 1763224608 2141619723 1251363915 1036034996 1836983129 1834685050 -605954329 1710762675 1838961834 27329054 909184023 350889660 1651250876 -1388302309 -1069972627 2040640476 -1653156313
REM
CELL 1.54180   50.00000   50.00000   50.00000   90.00000   90.00000   90.00000
LATT -1
SFAC C  
C      1  0.5167610000000  0.5197090000000  0.4444900000000 1.0
C      1  0.4940040000000  0.4932690000000  0.5171740000000 1.0
C      1  0.5062030000000  0.4799450000000  0.5374140000000 1.0
C      1  0.4704080000000  0.5049020000000  0.5149250000000 1.0
C      1  0.5288240000000  0.4831450000000  0.5514800000000 1.0
C      1  0.5158010000000  0.4944090000000  0.4928360000000 1.0
C      1  0.5359280000000  0.4751560000000  0.5266480000000 1.0
C      1  0.4924940000000  0.5118580000000  0.4491610000000 1.0
C      1  0.4363940000000  0.5306640000000  0.4888230000000 1.0
C      1  0.4513090000000  0.5193140000000  0.5068550000000 1.0
C      1  0.5130000000000  0.5059020000000  0.4685710000000 1.0
C      1  0.5388730000000  0.4817260000000  0.5016210000000 1.0
END
