TITL C-22173-1915-8 -13.6537922989548 125000 -342.691331473876 0 0 51 (C1) n - 1
REM
REM in /rds/project/t2_vol4/rds-t2-cs072/BORA/CARBON/from-Arr/AIRSS/Generating-Clusters/GAP-ML-2020/Higher-Symm/SD-CG/HFTN-CG
REM
REM
REM
REM
REM
REM ./C.cell (b20cbc046b6831c77cfcea5457e17084)
REM AIRSS Version 0.9.1 bugfix July 2018 build 013d7b7c2542+ Fri, 06 Jul 2018 19:26:36 +0100
REM compiler GCC version 9.3.0
REM options -cpp -mtune=generic -march=x86-64 -g -O0
REM seed 186003594 -598639948 -73938408 -1609164278 -924856038 -1190541086 -1673606870 70283249 423530988 -501180951 313903615 1899487080 395300547 2071344923 2104074993 1260978539 596064931 -549775443 1948546212 -1538372964 -2057279325 955833088 488293237 -1895622203 -150739647 -1766562681 -879109548 1783829146 250132126 888637099 73105271 -123870364 -36468107
REM
CELL 1.54180   50.00000   50.00000   50.00000   90.00000   90.00000   90.00000
LATT -1
SFAC C  
C      1  0.4594270000000  0.4679050000000  0.4669330000000 1.0
C      1  0.5375890000000  0.4680620000000  0.5289430000000 1.0
C      1  0.4543790000000  0.5290580000000  0.4690510000000 1.0
C      1  0.5471850000000  0.5280600000000  0.5293290000000 1.0
C      1  0.4690050000000  0.4736850000000  0.5247000000000 1.0
C      1  0.5403160000000  0.4638130000000  0.4678390000000 1.0
C      1  0.4496470000000  0.5299560000000  0.5307240000000 1.0
C      1  0.5435520000000  0.5278080000000  0.4684500000000 1.0
C      1  0.5382470000000  0.5168850000000  0.5540900000000 1.0
C      1  0.4673300000000  0.5202100000000  0.4449200000000 1.0
C      1  0.5296700000000  0.4768790000000  0.5550970000000 1.0
C      1  0.4703040000000  0.4785960000000  0.4427370000000 1.0
C      1  0.5302730000000  0.5185180000000  0.4446920000000 1.0
C      1  0.4437410000000  0.5242450000000  0.5591610000000 1.0
C      1  0.5261090000000  0.4756240000000  0.4449560000000 1.0
C      1  0.4747900000000  0.4826480000000  0.5515790000000 1.0
C      1  0.5171120000000  0.4556360000000  0.5128590000000 1.0
C      1  0.4775950000000  0.4540270000000  0.4830330000000 1.0
C      1  0.5245310000000  0.5406990000000  0.5163290000000 1.0
C      1  0.4746510000000  0.5405170000000  0.4864420000000 1.0
C      1  0.5296790000000  0.4451020000000  0.4853220000000 1.0
C      1  0.4916900000000  0.4731370000000  0.5046900000000 1.0
C      1  0.5235780000000  0.5403370000000  0.4848980000000 1.0
C      1  0.4750850000000  0.5408840000000  0.5190770000000 1.0
C      1  0.4367460000000  0.5111380000000  0.5128700000000 1.0
C      1  0.5596020000000  0.5096010000000  0.4832300000000 1.0
C      1  0.4448910000000  0.4837050000000  0.5125300000000 1.0
C      1  0.5561590000000  0.4811700000000  0.4838360000000 1.0
C      1  0.4372140000000  0.5111920000000  0.4830520000000 1.0
C      1  0.5612000000000  0.5102010000000  0.5124550000000 1.0
C      1  0.4425400000000  0.4830660000000  0.4831700000000 1.0
C      1  0.5567100000000  0.4817990000000  0.5134560000000 1.0
C      1  0.5073590000000  0.4263620000000  0.5167680000000 1.0
C      1  0.4854050000000  0.4274050000000  0.4847860000000 1.0
C      1  0.5146080000000  0.5693490000000  0.5151960000000 1.0
C      1  0.4842450000000  0.5691770000000  0.4867400000000 1.0
C      1  0.5149610000000  0.4220080000000  0.4866990000000 1.0
C      1  0.4818050000000  0.4184710000000  0.5121140000000 1.0
C      1  0.5139780000000  0.5688360000000  0.4856670000000 1.0
C      1  0.4846090000000  0.5701590000000  0.5163880000000 1.0
C      1  0.4578070000000  0.5028220000000  0.5592710000000 1.0
C      1  0.5402130000000  0.4969860000000  0.4321190000000 1.0
C      1  0.4568050000000  0.5000730000000  0.4310650000000 1.0
C      1  0.5477910000000  0.4952300000000  0.5663010000000 1.0
C      1  0.4988460000000  0.5145550000000  0.4505030000000 1.0
C      1  0.5088990000000  0.5151130000000  0.5520400000000 1.0
C      1  0.4987190000000  0.4857400000000  0.4419610000000 1.0
C      1  0.5020270000000  0.4881580000000  0.5592170000000 1.0
C      1  0.5002550000000  0.5243000000000  0.5254480000000 1.0
C      1  0.4985050000000  0.5223010000000  0.4796940000000 1.0
C      1  0.4978630000000  0.5039250000000  0.5025550000000 1.0
END
