TITL C-22457-4571-7 -259.83766273518 125000 -755.112112133111 0 0 111 (C1) n - 1
REM
REM in /rds/project/t2_vol4/rds-t2-cs072/BORA/CARBON/from-Arr/AIRSS/Generating-Clusters/GAP-ML-2020/Higher-Symm/SD-CG/HFTN-CG
REM
REM
REM
REM
REM
REM ./C.cell (b20cbc046b6831c77cfcea5457e17084)
REM AIRSS Version 0.9.1 bugfix July 2018 build 013d7b7c2542+ Fri, 06 Jul 2018 19:26:36 +0100
REM compiler GCC version 9.3.0
REM options -cpp -mtune=generic -march=x86-64 -g -O0
REM seed -39493722 59689902 1919654920 -1611244677 330309196 -617438596 -1794971117 1363644912 366608632 -1432882734 -6775669 -1228835787 902094569 1707061870 1658584190 2132837980 331367561 -201107386 1214106737 1326109567 -335093799 -157682105 134015622 123892517 -1752699786 -1511391413 -873488747 1586751163 152597696 1697070427 2023335590 812359125 242219182
REM
CELL 1.54180   50.00000   50.00000   50.00000   90.00000   90.00000   90.00000
LATT -1
SFAC C  
C      1  0.5388580000000  0.4226440000000  0.4767570000000 1.0
C      1  0.4157780000000  0.5006290000000  0.4756540000000 1.0
C      1  0.5491490000000  0.5755930000000  0.4786440000000 1.0
C      1  0.4448320000000  0.5021880000000  0.4378310000000 1.0
C      1  0.5409910000000  0.5547040000000  0.4350550000000 1.0
C      1  0.5226680000000  0.4409580000000  0.4347980000000 1.0
C      1  0.5204640000000  0.5816330000000  0.5246860000000 1.0
C      1  0.5574470000000  0.4447250000000  0.5222300000000 1.0
C      1  0.4211080000000  0.4754420000000  0.5243320000000 1.0
C      1  0.5712830000000  0.5315240000000  0.5525150000000 1.0
C      1  0.4902340000000  0.4202500000000  0.5518100000000 1.0
C      1  0.4354990000000  0.5472200000000  0.5482070000000 1.0
C      1  0.5354550000000  0.4544970000000  0.5398530000000 1.0
C      1  0.4398090000000  0.4903380000000  0.5423110000000 1.0
C      1  0.5210840000000  0.5572650000000  0.5419840000000 1.0
C      1  0.4119990000000  0.4810360000000  0.4973480000000 1.0
C      1  0.5313900000000  0.5873050000000  0.4984660000000 1.0
C      1  0.5575950000000  0.4326160000000  0.4961900000000 1.0
C      1  0.4332580000000  0.5446540000000  0.4579180000000 1.0
C      1  0.5789850000000  0.5399500000000  0.4616590000000 1.0
C      1  0.4946430000000  0.4101760000000  0.4604760000000 1.0
C      1  0.4691040000000  0.4970160000000  0.4230990000000 1.0
C      1  0.5185900000000  0.5428910000000  0.4224120000000 1.0
C      1  0.5199080000000  0.4673150000000  0.4242740000000 1.0
C      1  0.4288340000000  0.4864190000000  0.4541430000000 1.0
C      1  0.5327040000000  0.5715540000000  0.4559990000000 1.0
C      1  0.5420470000000  0.4404250000000  0.4546360000000 1.0
C      1  0.5722520000000  0.4690460000000  0.5121780000000 1.0
C      1  0.4338480000000  0.4498300000000  0.5142810000000 1.0
C      1  0.4921910000000  0.5830600000000  0.5143190000000 1.0
C      1  0.5716130000000  0.5011690000000  0.5490910000000 1.0
C      1  0.4631130000000  0.4333500000000  0.5497060000000 1.0
C      1  0.4593360000000  0.5642800000000  0.5469480000000 1.0
C      1  0.5105920000000  0.5396770000000  0.4953950000000 1.0
C      1  0.5235210000000  0.4773560000000  0.4951730000000 1.0
C      1  0.4646600000000  0.4862780000000  0.4979550000000 1.0
C      1  0.4627080000000  0.4481730000000  0.5242560000000 1.0
C      1  0.4734640000000  0.5588680000000  0.5226270000000 1.0
C      1  0.5597720000000  0.4947180000000  0.5229930000000 1.0
C      1  0.5249690000000  0.4796590000000  0.4003220000000 1.0
C      1  0.4710760000000  0.4890020000000  0.3975020000000 1.0
C      1  0.5069520000000  0.5380960000000  0.3985870000000 1.0
C      1  0.4761040000000  0.5218330000000  0.4659680000000 1.0
C      1  0.5346840000000  0.5168520000000  0.4634190000000 1.0
C      1  0.4922470000000  0.4601640000000  0.4653840000000 1.0
C      1  0.4475420000000  0.4477570000000  0.5663940000000 1.0
C      1  0.4778390000000  0.5717150000000  0.5664050000000 1.0
C      1  0.5723160000000  0.4788710000000  0.5636720000000 1.0
C      1  0.5058380000000  0.4458670000000  0.5433690000000 1.0
C      1  0.4494370000000  0.5205840000000  0.5415100000000 1.0
C      1  0.5419000000000  0.5340630000000  0.5444220000000 1.0
C      1  0.4269580000000  0.5393160000000  0.5049880000000 1.0
C      1  0.5744400000000  0.5440860000000  0.5096060000000 1.0
C      1  0.5006980000000  0.4134070000000  0.5087480000000 1.0
C      1  0.5049520000000  0.5659860000000  0.5659980000000 1.0
C      1  0.5500080000000  0.4621650000000  0.5657890000000 1.0
C      1  0.4456270000000  0.4751250000000  0.5699690000000 1.0
C      1  0.4523400000000  0.5264070000000  0.4493790000000 1.0
C      1  0.5560820000000  0.5322380000000  0.4468840000000 1.0
C      1  0.4965520000000  0.4351040000000  0.4471290000000 1.0
C      1  0.4998150000000  0.5748730000000  0.4639350000000 1.0
C      1  0.5587430000000  0.4675350000000  0.4617810000000 1.0
C      1  0.4389700000000  0.4588890000000  0.4639900000000 1.0
C      1  0.4998660000000  0.5181970000000  0.5112080000000 1.0
C      1  0.5108680000000  0.5005600000000  0.5340890000000 1.0
C      1  0.4859500000000  0.4904220000000  0.5459990000000 1.0
C      1  0.4699180000000  0.4213020000000  0.4483740000000 1.0
C      1  0.4489070000000  0.5678720000000  0.4549040000000 1.0
C      1  0.5798350000000  0.5131920000000  0.4493210000000 1.0
C      1  0.4993470000000  0.5456310000000  0.5239540000000 1.0
C      1  0.5317880000000  0.4818470000000  0.5232480000000 1.0
C      1  0.4646860000000  0.4786820000000  0.5269740000000 1.0
C      1  0.5859890000000  0.5461850000000  0.5347260000000 1.0
C      1  0.4968860000000  0.4012170000000  0.5334350000000 1.0
C      1  0.4172400000000  0.5507940000000  0.5283160000000 1.0
C      1  0.4964650000000  0.5265790000000  0.3785180000000 1.0
C      1  0.5143590000000  0.4822400000000  0.3766160000000 1.0
C      1  0.4922550000000  0.4988110000000  0.3823060000000 1.0
C      1  0.4937450000000  0.4660370000000  0.5599620000000 1.0
C      1  0.4724350000000  0.5156650000000  0.5574210000000 1.0
C      1  0.5254980000000  0.5138210000000  0.5571610000000 1.0
C      1  0.5063490000000  0.4978220000000  0.6037220000000 1.0
C      1  0.5116370000000  0.4696280000000  0.6028550000000 1.0
C      1  0.4789420000000  0.5044660000000  0.6002250000000 1.0
C      1  0.5087710000000  0.4803610000000  0.4489930000000 1.0
C      1  0.4916730000000  0.5042140000000  0.4433650000000 1.0
C      1  0.5104980000000  0.5274520000000  0.4466480000000 1.0
C      1  0.5771080000000  0.4868560000000  0.4500190000000 1.0
C      1  0.4469370000000  0.4345240000000  0.4495100000000 1.0
C      1  0.4722690000000  0.5785170000000  0.4539780000000 1.0
C      1  0.4560910000000  0.5331530000000  0.5120390000000 1.0
C      1  0.5525890000000  0.5231840000000  0.5135560000000 1.0
C      1  0.4928260000000  0.4424060000000  0.5140550000000 1.0
C      1  0.4886060000000  0.5529140000000  0.5850170000000 1.0
C      1  0.5360940000000  0.4734230000000  0.5872480000000 1.0
C      1  0.4647060000000  0.4807220000000  0.5910090000000 1.0
C      1  0.5329430000000  0.4869370000000  0.4676770000000 1.0
C      1  0.4664420000000  0.4682220000000  0.4757920000000 1.0
C      1  0.4965190000000  0.5440920000000  0.4692430000000 1.0
C      1  0.4877470000000  0.4625300000000  0.5885200000000 1.0
C      1  0.4773410000000  0.5268460000000  0.5835000000000 1.0
C      1  0.5275330000000  0.5019170000000  0.5835270000000 1.0
C      1  0.5341460000000  0.5264320000000  0.4913640000000 1.0
C      1  0.5047660000000  0.4576260000000  0.4918410000000 1.0
C      1  0.4733220000000  0.5131510000000  0.4959250000000 1.0
C      1  0.5722140000000  0.5570810000000  0.4837630000000 1.0
C      1  0.5128030000000  0.4092390000000  0.4825350000000 1.0
C      1  0.4190200000000  0.5297470000000  0.4790340000000 1.0
C      1  0.5042180000000  0.5887710000000  0.4893240000000 1.0
C      1  0.5701760000000  0.4568880000000  0.4868910000000 1.0
C      1  0.4228010000000  0.4554580000000  0.4889350000000 1.0
END
