TITL C-22207-3673-2 78.1694077924387 125000 -698.463002715369 0 0 99 (C1) n - 1
REM
REM in /rds/project/t2_vol4/rds-t2-cs072/BORA/CARBON/from-Arr/AIRSS/Generating-Clusters/GAP-ML-2020/Higher-Symm/SD-CG/HFTN-CG
REM
REM
REM
REM
REM
REM ./C.cell (b20cbc046b6831c77cfcea5457e17084)
REM AIRSS Version 0.9.1 bugfix July 2018 build 013d7b7c2542+ Fri, 06 Jul 2018 19:26:36 +0100
REM compiler GCC version 9.3.0
REM options -cpp -mtune=generic -march=x86-64 -g -O0
REM seed 594590681 765635613 -381656308 930454894 -1020112542 -2140398851 -335960209 114717104 -398454891 1885901555 1333975034 -2089269173 1747685943 1196887709 329369505 -1321738937 -1930227286 781930821 1180483832 2110436365 -844329785 1333343033 -456772249 597305639 890855212 30595968 -59750179 -2096844476 271017138 -1628079131 -1595314801 -1363813192 -651069680
REM
CELL 1.54180   50.00000   50.00000   50.00000   90.00000   90.00000   90.00000
LATT -1
SFAC C  
C      1  0.5270620000000  0.5242730000000  0.4705550000000 1.0
C      1  0.5267240000000  0.4952050000000  0.4626970000000 1.0
C      1  0.4851260000000  0.4658690000000  0.4681360000000 1.0
C      1  0.4705380000000  0.4889960000000  0.4653450000000 1.0
C      1  0.4975020000000  0.5270610000000  0.4640830000000 1.0
C      1  0.5754070000000  0.5346760000000  0.5210350000000 1.0
C      1  0.5536950000000  0.4412360000000  0.5220710000000 1.0
C      1  0.4573280000000  0.4296860000000  0.5221890000000 1.0
C      1  0.4160190000000  0.5158020000000  0.5160400000000 1.0
C      1  0.4893860000000  0.5793650000000  0.5206780000000 1.0
C      1  0.4739560000000  0.4740980000000  0.4249320000000 1.0
C      1  0.4578700000000  0.5218300000000  0.4344220000000 1.0
C      1  0.5085320000000  0.5375130000000  0.4196760000000 1.0
C      1  0.5389410000000  0.5081420000000  0.4192020000000 1.0
C      1  0.5155290000000  0.4674800000000  0.4293530000000 1.0
C      1  0.5289070000000  0.4338630000000  0.5369130000000 1.0
C      1  0.4374480000000  0.4473370000000  0.5332220000000 1.0
C      1  0.4298000000000  0.5376240000000  0.5297150000000 1.0
C      1  0.5141720000000  0.5737850000000  0.5344550000000 1.0
C      1  0.5805320000000  0.5094400000000  0.5339570000000 1.0
C      1  0.4440250000000  0.5414310000000  0.4497860000000 1.0
C      1  0.5217830000000  0.5679750000000  0.4568780000000 1.0
C      1  0.5754210000000  0.5006750000000  0.4561440000000 1.0
C      1  0.5212950000000  0.4198620000000  0.4592280000000 1.0
C      1  0.4366960000000  0.4530690000000  0.4548160000000 1.0
C      1  0.4662170000000  0.5734610000000  0.4760910000000 1.0
C      1  0.5600420000000  0.5545170000000  0.4787300000000 1.0
C      1  0.5638340000000  0.4638460000000  0.4792240000000 1.0
C      1  0.4829650000000  0.4178600000000  0.4823120000000 1.0
C      1  0.4169050000000  0.4879860000000  0.4750850000000 1.0
C      1  0.4849300000000  0.5394430000000  0.4391980000000 1.0
C      1  0.5374990000000  0.5361960000000  0.4279010000000 1.0
C      1  0.5397060000000  0.4829910000000  0.4366930000000 1.0
C      1  0.4922240000000  0.4530070000000  0.4429290000000 1.0
C      1  0.4543600000000  0.4919250000000  0.4390860000000 1.0
C      1  0.5767730000000  0.5352300000000  0.4921320000000 1.0
C      1  0.5549940000000  0.4367250000000  0.4934150000000 1.0
C      1  0.4574030000000  0.4260450000000  0.4937360000000 1.0
C      1  0.4161480000000  0.5147890000000  0.4870790000000 1.0
C      1  0.4899020000000  0.5817270000000  0.4919080000000 1.0
C      1  0.5022710000000  0.5234330000000  0.5117060000000 1.0
C      1  0.5400670000000  0.4987120000000  0.5079640000000 1.0
C      1  0.5188490000000  0.4634760000000  0.5014360000000 1.0
C      1  0.4791420000000  0.4844910000000  0.5125670000000 1.0
C      1  0.4591340000000  0.5239820000000  0.4940920000000 1.0
C      1  0.5410230000000  0.5437030000000  0.5569680000000 1.0
C      1  0.5574800000000  0.4757790000000  0.5563050000000 1.0
C      1  0.4888460000000  0.4468850000000  0.5583900000000 1.0
C      1  0.4301900000000  0.4877870000000  0.5544640000000 1.0
C      1  0.4677490000000  0.5499580000000  0.5541370000000 1.0
C      1  0.5420600000000  0.5469510000000  0.4551300000000 1.0
C      1  0.5649030000000  0.4755840000000  0.4512070000000 1.0
C      1  0.4949200000000  0.4261310000000  0.4554650000000 1.0
C      1  0.4297200000000  0.4797010000000  0.4501320000000 1.0
C      1  0.4660510000000  0.5605540000000  0.4505900000000 1.0
C      1  0.5827240000000  0.5092620000000  0.4806450000000 1.0
C      1  0.5329100000000  0.4199020000000  0.4841410000000 1.0
C      1  0.4364770000000  0.4418140000000  0.4796700000000 1.0
C      1  0.4348610000000  0.5366970000000  0.4772110000000 1.0
C      1  0.5163510000000  0.5782300000000  0.4808760000000 1.0
C      1  0.4624690000000  0.4967040000000  0.4928720000000 1.0
C      1  0.4851620000000  0.5310610000000  0.4905290000000 1.0
C      1  0.5279020000000  0.5220560000000  0.5010800000000 1.0
C      1  0.5361490000000  0.4797960000000  0.4869580000000 1.0
C      1  0.4933460000000  0.4655000000000  0.4966350000000 1.0
C      1  0.5833720000000  0.4824950000000  0.4931810000000 1.0
C      1  0.5070040000000  0.4133120000000  0.4984340000000 1.0
C      1  0.4188270000000  0.4630040000000  0.4909010000000 1.0
C      1  0.4424010000000  0.5631930000000  0.4900450000000 1.0
C      1  0.5419360000000  0.5721220000000  0.4935640000000 1.0
C      1  0.4690340000000  0.4656590000000  0.5675790000000 1.0
C      1  0.4465770000000  0.5075150000000  0.5655270000000 1.0
C      1  0.4922930000000  0.5404560000000  0.5640450000000 1.0
C      1  0.5449040000000  0.5184260000000  0.5671130000000 1.0
C      1  0.5323130000000  0.4722620000000  0.5669050000000 1.0
C      1  0.4421470000000  0.5612520000000  0.5179510000000 1.0
C      1  0.5401490000000  0.5713010000000  0.5213930000000 1.0
C      1  0.5834510000000  0.4834850000000  0.5205310000000 1.0
C      1  0.5066200000000  0.4197170000000  0.5255150000000 1.0
C      1  0.4190830000000  0.4644360000000  0.5183790000000 1.0
C      1  0.4433830000000  0.4622710000000  0.5562800000000 1.0
C      1  0.4452330000000  0.5326450000000  0.5530950000000 1.0
C      1  0.5149050000000  0.5556190000000  0.5567260000000 1.0
C      1  0.5654640000000  0.5032620000000  0.5566990000000 1.0
C      1  0.5176320000000  0.4501970000000  0.5577100000000 1.0
C      1  0.4819340000000  0.4280730000000  0.5372480000000 1.0
C      1  0.4165250000000  0.4907060000000  0.5300940000000 1.0
C      1  0.4657750000000  0.5686120000000  0.5326830000000 1.0
C      1  0.5568770000000  0.5522370000000  0.5347270000000 1.0
C      1  0.5678000000000  0.4629830000000  0.5334200000000 1.0
C      1  0.4973940000000  0.4983600000000  0.4554810000000 1.0
C      1  0.4973930000000  0.4899150000000  0.4233850000000 1.0
C      1  0.5209800000000  0.5012330000000  0.6059610000000 1.0
C      1  0.5242870000000  0.5022970000000  0.6308230000000 1.0
C      1  0.4712530000000  0.4947510000000  0.5718430000000 1.0
C      1  0.5112090000000  0.5105290000000  0.4095310000000 1.0
C      1  0.4934900000000  0.5035450000000  0.5300610000000 1.0
C      1  0.5219340000000  0.5003030000000  0.5771660000000 1.0
C      1  0.4949340000000  0.5096900000000  0.5624740000000 1.0
END
