TITL C-22219-5960-5 -56.6318182317458 125000 -269.117458958003 0 0 41 (C1) n - 1
REM
REM in /rds/project/t2_vol4/rds-t2-cs072/BORA/CARBON/from-Arr/AIRSS/Generating-Clusters/GAP-ML-2020/Higher-Symm/SD-CG/HFTN-CG
REM
REM
REM
REM
REM
REM ./C.cell (b20cbc046b6831c77cfcea5457e17084)
REM AIRSS Version 0.9.1 bugfix July 2018 build 013d7b7c2542+ Fri, 06 Jul 2018 19:26:36 +0100
REM compiler GCC version 9.3.0
REM options -cpp -mtune=generic -march=x86-64 -g -O0
REM seed -773593357 1792515049 -1316899603 -513393153 -812919971 -1871390881 -1465153716 -1875421029 -452994203 -1626994331 1270377307 1213383790 -1145156692 -1559379852 643902222 1996126994 -1994743417 -699221717 764755309 1224118812 -1584814895 -181518025 1467948559 -1876372848 -1375150753 -389461199 543304135 -964936718 1715564891 1518754597 -1612396584 -1600209165 -1924248045
REM
CELL 1.54180   50.00000   50.00000   50.00000   90.00000   90.00000   90.00000
LATT -1
SFAC C  
C      1  0.4956070000000  0.4617060000000  0.4726650000000 1.0
C      1  0.5025410000000  0.5348810000000  0.5274230000000 1.0
C      1  0.5070560000000  0.4362980000000  0.4825000000000 1.0
C      1  0.4975720000000  0.5626440000000  0.5203720000000 1.0
C      1  0.5472410000000  0.5180750000000  0.5123980000000 1.0
C      1  0.4481330000000  0.4745350000000  0.4856590000000 1.0
C      1  0.5312450000000  0.5285070000000  0.4613920000000 1.0
C      1  0.4666550000000  0.4710000000000  0.5373230000000 1.0
C      1  0.4547730000000  0.5076550000000  0.4468110000000 1.0
C      1  0.5449670000000  0.4887090000000  0.5525270000000 1.0
C      1  0.5124920000000  0.5377170000000  0.4813590000000 1.0
C      1  0.4872320000000  0.4598070000000  0.5175530000000 1.0
C      1  0.5072590000000  0.5659190000000  0.4919830000000 1.0
C      1  0.5039230000000  0.4349980000000  0.5129970000000 1.0
C      1  0.5372260000000  0.4708310000000  0.5121330000000 1.0
C      1  0.4628960000000  0.5223700000000  0.4880020000000 1.0
C      1  0.5149610000000  0.4841280000000  0.4734480000000 1.0
C      1  0.4776160000000  0.5215140000000  0.5345370000000 1.0
C      1  0.5523210000000  0.4928410000000  0.5266580000000 1.0
C      1  0.4501750000000  0.5009050000000  0.4733420000000 1.0
C      1  0.4402680000000  0.4665780000000  0.5312200000000 1.0
C      1  0.5568790000000  0.5359420000000  0.4682570000000 1.0
C      1  0.4612660000000  0.5334920000000  0.5143830000000 1.0
C      1  0.5387270000000  0.4688620000000  0.4823950000000 1.0
C      1  0.5174790000000  0.4856570000000  0.5502590000000 1.0
C      1  0.4777690000000  0.5226100000000  0.4436580000000 1.0
C      1  0.5191910000000  0.5045040000000  0.4498780000000 1.0
C      1  0.4759930000000  0.4965640000000  0.5487040000000 1.0
C      1  0.4746140000000  0.4646200000000  0.4906020000000 1.0
C      1  0.5184450000000  0.5229770000000  0.5063720000000 1.0
C      1  0.5332360000000  0.4417130000000  0.5142430000000 1.0
C      1  0.4795670000000  0.5644170000000  0.4826370000000 1.0
C      1  0.4974760000000  0.4937550000000  0.5659560000000 1.0
C      1  0.4992820000000  0.5101810000000  0.4323110000000 1.0
C      1  0.4318040000000  0.4677950000000  0.5071680000000 1.0
C      1  0.5620950000000  0.5297050000000  0.4929040000000 1.0
C      1  0.4704170000000  0.5616540000000  0.5101390000000 1.0
C      1  0.5355660000000  0.4399480000000  0.4838650000000 1.0
C      1  0.4831370000000  0.5354520000000  0.4722360000000 1.0
C      1  0.5099110000000  0.4792830000000  0.5201050000000 1.0
C      1  0.5070960000000  0.4979600000000  0.4988950000000 1.0
END
