TITL C-22178-853-5 -0.0929456508676279 125000 -368.317189274562 0 0 54 (C3) n - 1
REM
REM in /rds/project/t2_vol4/rds-t2-cs072/BORA/CARBON/from-Arr/AIRSS/Generating-Clusters/GAP-ML-2020/Higher-Symm/SD-CG/HFTN-CG
REM
REM
REM
REM
REM
REM ./C.cell (b20cbc046b6831c77cfcea5457e17084)
REM AIRSS Version 0.9.1 bugfix July 2018 build 013d7b7c2542+ Fri, 06 Jul 2018 19:26:36 +0100
REM compiler GCC version 9.3.0
REM options -cpp -mtune=generic -march=x86-64 -g -O0
REM seed 127781352 -27802911 376785984 -118939200 -2147382390 -505600022 -597814420 1281423817 229701641 -684778515 2120770294 1662331539 1829128365 1854633263 1222297373 -1615527214 -1400844842 2005273966 -1157613006 -1068371980 -1644018616 -1367589164 482858381 -765565441 970897769 -2065970146 803991863 -531389897 1422882233 -177390266 -1668070376 -1207457735 890618398
REM
CELL 1.54180   50.00000   50.00000   50.00000   90.00000   90.00000   90.00000
LATT -1
SFAC C  
C      1  0.4437050000000  0.4732270000000  0.5010900000000 1.0
C      1  0.4437010000000  0.5143430000000  0.5226250000000 1.0
C      1  0.4437110000000  0.5124340000000  0.4762500000000 1.0
C      1  0.5148650000000  0.5245290000000  0.4514940000000 1.0
C      1  0.5148520000000  0.4457250000000  0.5030150000000 1.0
C      1  0.5148450000000  0.5297450000000  0.5455000000000 1.0
C      1  0.5149400000000  0.5636400000000  0.5153480000000 1.0
C      1  0.5149540000000  0.4814680000000  0.4372170000000 1.0
C      1  0.5149300000000  0.4548910000000  0.5474450000000 1.0
C      1  0.5547730000000  0.5061040000000  0.5381460000000 1.0
C      1  0.5547860000000  0.5299720000000  0.4756560000000 1.0
C      1  0.5547830000000  0.4639200000000  0.4862320000000 1.0
C      1  0.5122930000000  0.4880640000000  0.4872050000000 1.0
C      1  0.5122870000000  0.4948840000000  0.5167380000000 1.0
C      1  0.5122920000000  0.5170510000000  0.4960650000000 1.0
C      1  0.5132510000000  0.4584800000000  0.4534850000000 1.0
C      1  0.5132290000000  0.4804740000000  0.5592190000000 1.0
C      1  0.5132460000000  0.5610450000000  0.4873050000000 1.0
C      1  0.4851610000000  0.4843440000000  0.5542210000000 1.0
C      1  0.4851770000000  0.5547870000000  0.4864440000000 1.0
C      1  0.4851800000000  0.4608690000000  0.4593260000000 1.0
C      1  0.5667510000000  0.5383620000000  0.4988610000000 1.0
C      1  0.5667560000000  0.4798180000000  0.4673670000000 1.0
C      1  0.5667420000000  0.4818150000000  0.5338140000000 1.0
C      1  0.4354630000000  0.4844240000000  0.4749040000000 1.0
C      1  0.4354520000000  0.4860680000000  0.5260180000000 1.0
C      1  0.4354590000000  0.5295120000000  0.4990370000000 1.0
C      1  0.4432750000000  0.5555620000000  0.5022860000000 1.0
C      1  0.4432840000000  0.4742110000000  0.4507220000000 1.0
C      1  0.4432640000000  0.4702310000000  0.5469560000000 1.0
C      1  0.4881030000000  0.5375690000000  0.5396290000000 1.0
C      1  0.4881220000000  0.5155380000000  0.4476460000000 1.0
C      1  0.4881070000000  0.4468940000000  0.5127170000000 1.0
C      1  0.5264630000000  0.5373010000000  0.4752700000000 1.0
C      1  0.5264610000000  0.4599270000000  0.4800690000000 1.0
C      1  0.5264480000000  0.5027700000000  0.5446770000000 1.0
C      1  0.4725630000000  0.5184420000000  0.5225000000000 1.0
C      1  0.4725730000000  0.5102700000000  0.4727700000000 1.0
C      1  0.4725650000000  0.4712890000000  0.5047120000000 1.0
C      1  0.4844410000000  0.4925410000000  0.5258120000000 1.0
C      1  0.4844480000000  0.5260870000000  0.4935490000000 1.0
C      1  0.4844500000000  0.4813730000000  0.4806290000000 1.0
C      1  0.5322490000000  0.5468740000000  0.5308010000000 1.0
C      1  0.5322660000000  0.5032300000000  0.4440150000000 1.0
C      1  0.5322480000000  0.4498930000000  0.5252040000000 1.0
C      1  0.4883540000000  0.4918530000000  0.4323320000000 1.0
C      1  0.4883300000000  0.4454730000000  0.5408860000000 1.0
C      1  0.4883360000000  0.5626740000000  0.5267750000000 1.0
C      1  0.5557450000000  0.5040970000000  0.4600770000000 1.0
C      1  0.5557320000000  0.4633640000000  0.5164300000000 1.0
C      1  0.5557320000000  0.5325340000000  0.5235290000000 1.0
C      1  0.4676310000000  0.4716780000000  0.4396330000000 1.0
C      1  0.4676070000000  0.4618890000000  0.5547020000000 1.0
C      1  0.4676190000000  0.5664360000000  0.5056450000000 1.0
END
