TITL C-22174-2054-9 -0.0171601253219306 125000 -680.899325497737 0 0 98 (D2) n - 1
REM
REM in /rds/project/t2_vol4/rds-t2-cs072/BORA/CARBON/from-Arr/AIRSS/Generating-Clusters/GAP-ML-2020/Higher-Symm/SD-CG/HFTN-CG
REM
REM
REM
REM
REM
REM ./C.cell (b20cbc046b6831c77cfcea5457e17084)
REM AIRSS Version 0.9.1 bugfix July 2018 build 013d7b7c2542+ Fri, 06 Jul 2018 19:26:36 +0100
REM compiler GCC version 9.3.0
REM options -cpp -mtune=generic -march=x86-64 -g -O0
REM seed -1327262130 -1064706706 -1408686681 -1174499586 1019311625 -920950935 -2119076865 1231920031 1738432862 1294071749 356204371 -2013607947 1108292831 1392916146 -749517453 -277026613 -1441957362 1907684367 980395040 444016454 1656411102 1896310526 405405536 530398746 973447202 696823844 -336916228 124293937 1203212346 869497252 1418710722 336678987 1855589285
REM
CELL 1.54180   50.00000   50.00000   50.00000   90.00000   90.00000   90.00000
LATT -1
SFAC C  
C      1  0.5822920000000  0.4738540000000  0.5003520000000 1.0
C      1  0.4177020000000  0.4738750000000  0.4996440000000 1.0
C      1  0.5822980000000  0.5250920000000  0.4996560000000 1.0
C      1  0.4177080000000  0.5251130000000  0.5003480000000 1.0
C      1  0.5608780000000  0.5597250000000  0.5232710000000 1.0
C      1  0.4391380000000  0.5597440000000  0.4767390000000 1.0
C      1  0.5608650000000  0.4392270000000  0.4767360000000 1.0
C      1  0.4391200000000  0.4392390000000  0.5232550000000 1.0
C      1  0.5258370000000  0.5215280000000  0.5135690000000 1.0
C      1  0.4741680000000  0.5215360000000  0.4864340000000 1.0
C      1  0.5258330000000  0.4774330000000  0.4864340000000 1.0
C      1  0.4741610000000  0.4774370000000  0.5135630000000 1.0
C      1  0.4673160000000  0.4451070000000  0.4328330000000 1.0
C      1  0.5326700000000  0.4450880000000  0.5671590000000 1.0
C      1  0.4673230000000  0.5538690000000  0.5671640000000 1.0
C      1  0.5326910000000  0.5538710000000  0.4328450000000 1.0
C      1  0.4618060000000  0.5758680000000  0.5154500000000 1.0
C      1  0.5382140000000  0.5758610000000  0.4845620000000 1.0
C      1  0.4617880000000  0.4231090000000  0.4845460000000 1.0
C      1  0.5381930000000  0.4230970000000  0.5154420000000 1.0
C      1  0.5017230000000  0.4767330000000  0.4730750000000 1.0
C      1  0.4982720000000  0.4767290000000  0.5269220000000 1.0
C      1  0.5017260000000  0.5222340000000  0.5269260000000 1.0
C      1  0.4982800000000  0.5222390000000  0.4730780000000 1.0
C      1  0.5013380000000  0.4251790000000  0.4488930000000 1.0
C      1  0.4986430000000  0.4251710000000  0.5510960000000 1.0
C      1  0.5013510000000  0.5737880000000  0.5511070000000 1.0
C      1  0.4986670000000  0.5737960000000  0.4489040000000 1.0
C      1  0.5740270000000  0.4473500000000  0.5009730000000 1.0
C      1  0.4259600000000  0.4473690000000  0.4990190000000 1.0
C      1  0.5740400000000  0.5515990000000  0.4990340000000 1.0
C      1  0.4259730000000  0.5516170000000  0.5009730000000 1.0
C      1  0.5275030000000  0.5165880000000  0.5782360000000 1.0
C      1  0.4725010000000  0.5166070000000  0.4217670000000 1.0
C      1  0.5275070000000  0.4823720000000  0.4217670000000 1.0
C      1  0.4724890000000  0.4823670000000  0.5782300000000 1.0
C      1  0.4997190000000  0.5277720000000  0.4191770000000 1.0
C      1  0.5002880000000  0.5277590000000  0.5808270000000 1.0
C      1  0.4997040000000  0.4711960000000  0.5808230000000 1.0
C      1  0.5002890000000  0.4712080000000  0.4191730000000 1.0
C      1  0.5055530000000  0.5544410000000  0.4283580000000 1.0
C      1  0.4944610000000  0.5544320000000  0.5716510000000 1.0
C      1  0.5055320000000  0.4445250000000  0.5716430000000 1.0
C      1  0.4944540000000  0.4445370000000  0.4283490000000 1.0
C      1  0.5640740000000  0.5372140000000  0.5434990000000 1.0
C      1  0.4359360000000  0.5372360000000  0.4565070000000 1.0
C      1  0.5640690000000  0.4617380000000  0.4565070000000 1.0
C      1  0.4359220000000  0.4617470000000  0.5434870000000 1.0
C      1  0.4613200000000  0.5761660000000  0.4866940000000 1.0
C      1  0.5386990000000  0.5761540000000  0.5133180000000 1.0
C      1  0.4612990000000  0.4228110000000  0.5133020000000 1.0
C      1  0.5386810000000  0.4228030000000  0.4866860000000 1.0
C      1  0.5792150000000  0.4822390000000  0.4733960000000 1.0
C      1  0.4207810000000  0.4822560000000  0.5266010000000 1.0
C      1  0.5792160000000  0.5167080000000  0.5266110000000 1.0
C      1  0.4207880000000  0.5167320000000  0.4733910000000 1.0
C      1  0.4518100000000  0.4688230000000  0.5650820000000 1.0
C      1  0.5481820000000  0.4688210000000  0.4349130000000 1.0
C      1  0.4518240000000  0.5301560000000  0.4349130000000 1.0
C      1  0.5481840000000  0.5301340000000  0.5650920000000 1.0
C      1  0.4863680000000  0.5826480000000  0.5285680000000 1.0
C      1  0.5136530000000  0.5826480000000  0.4714440000000 1.0
C      1  0.4863490000000  0.4163230000000  0.4714300000000 1.0
C      1  0.5136300000000  0.4163150000000  0.5285570000000 1.0
C      1  0.5148330000000  0.5824780000000  0.5279260000000 1.0
C      1  0.4851880000000  0.5824860000000  0.4720870000000 1.0
C      1  0.5148140000000  0.4164860000000  0.4720760000000 1.0
C      1  0.4851650000000  0.4164850000000  0.5279120000000 1.0
C      1  0.5457580000000  0.5302550000000  0.4335010000000 1.0
C      1  0.4542500000000  0.5302560000000  0.5665040000000 1.0
C      1  0.5457430000000  0.4687010000000  0.5665040000000 1.0
C      1  0.4542490000000  0.4687230000000  0.4334910000000 1.0
C      1  0.5252910000000  0.5123340000000  0.4212660000000 1.0
C      1  0.4747120000000  0.5123290000000  0.5787360000000 1.0
C      1  0.5252800000000  0.4866270000000  0.5787360000000 1.0
C      1  0.4747170000000  0.4866450000000  0.4212620000000 1.0
C      1  0.4397500000000  0.4411060000000  0.4748130000000 1.0
C      1  0.5602350000000  0.4410870000000  0.5251780000000 1.0
C      1  0.4397630000000  0.5578770000000  0.5251810000000 1.0
C      1  0.5602520000000  0.5578660000000  0.4748280000000 1.0
C      1  0.5401970000000  0.5028570000000  0.4773690000000 1.0
C      1  0.4598030000000  0.5028640000000  0.5226310000000 1.0
C      1  0.5401940000000  0.4961000000000  0.5226350000000 1.0
C      1  0.4598050000000  0.4961140000000  0.4773650000000 1.0
C      1  0.4368590000000  0.4646570000000  0.4567180000000 1.0
C      1  0.5631330000000  0.4646350000000  0.5432770000000 1.0
C      1  0.4368630000000  0.5343260000000  0.5432760000000 1.0
C      1  0.5631460000000  0.5343170000000  0.4567290000000 1.0
C      1  0.4288410000000  0.4880250000000  0.4753370000000 1.0
C      1  0.5711560000000  0.4880040000000  0.5246620000000 1.0
C      1  0.4288410000000  0.5109600000000  0.5246560000000 1.0
C      1  0.5711620000000  0.5109460000000  0.4753460000000 1.0
C      1  0.4770980000000  0.4750410000000  0.4862110000000 1.0
C      1  0.5228960000000  0.4750330000000  0.5137850000000 1.0
C      1  0.4771030000000  0.5239320000000  0.5137870000000 1.0
C      1  0.5229040000000  0.5239280000000  0.4862170000000 1.0
C      1  0.5000020000000  0.4994870000000  0.4569140000000 1.0
C      1  0.4999980000000  0.4994800000000  0.5430860000000 1.0
END
