TITL C-22166-1947-3 -39.357897878842 125000 -617.784590474917 0 0 90 (C1) n - 1
REM
REM in /rds/project/t2_vol4/rds-t2-cs072/BORA/CARBON/from-Arr/AIRSS/Generating-Clusters/GAP-ML-2020/Higher-Symm/SD-CG/HFTN-CG
REM
REM
REM
REM
REM
REM ./C.cell (b20cbc046b6831c77cfcea5457e17084)
REM AIRSS Version 0.9.1 bugfix July 2018 build 013d7b7c2542+ Fri, 06 Jul 2018 19:26:36 +0100
REM compiler GCC version 9.3.0
REM options -cpp -mtune=generic -march=x86-64 -g -O0
REM seed -1490014627 -1266017193 -1918662923 953319525 794010367 -253017317 1456819570 -1586673547 -665897965 -648633162 -729648912 -982220825 2096015718 -826253192 995031290 1331705976 -2040618065 -1263336100 1698569167 225030449 -830132432 1527606680 827088467 -1615310863 -1641418503 -1682723044 653928792 2140886784 1674681831 749985244 -355535897 230236806 489084310
REM
CELL 1.54180   50.00000   50.00000   50.00000   90.00000   90.00000   90.00000
LATT -1
SFAC C  
C      1  0.4447510000000  0.5668110000000  0.4843460000000 1.0
C      1  0.4194130000000  0.5141220000000  0.4864860000000 1.0
C      1  0.4257040000000  0.4577550000000  0.4842590000000 1.0
C      1  0.4725570000000  0.4234580000000  0.4863870000000 1.0
C      1  0.5263580000000  0.4243850000000  0.4851660000000 1.0
C      1  0.5699710000000  0.4598230000000  0.4863400000000 1.0
C      1  0.5794040000000  0.5133820000000  0.4847010000000 1.0
C      1  0.5511190000000  0.5612550000000  0.4865330000000 1.0
C      1  0.5018420000000  0.5808360000000  0.4839990000000 1.0
C      1  0.4410180000000  0.5325510000000  0.5544140000000 1.0
C      1  0.4355490000000  0.4786210000000  0.5543990000000 1.0
C      1  0.4525880000000  0.4545360000000  0.5510400000000 1.0
C      1  0.5085050000000  0.4341670000000  0.5558730000000 1.0
C      1  0.5356340000000  0.4463390000000  0.5537410000000 1.0
C      1  0.5679300000000  0.4965710000000  0.5558530000000 1.0
C      1  0.5598390000000  0.5259350000000  0.5523420000000 1.0
C      1  0.5133950000000  0.5642290000000  0.5556350000000 1.0
C      1  0.4841720000000  0.5619670000000  0.5470560000000 1.0
C      1  0.5231610000000  0.5646660000000  0.5278240000000 1.0
C      1  0.4744260000000  0.5735440000000  0.5232580000000 1.0
C      1  0.4387940000000  0.5367300000000  0.5268340000000 1.0
C      1  0.4319060000000  0.4868960000000  0.5265920000000 1.0
C      1  0.4499130000000  0.4426730000000  0.5256040000000 1.0
C      1  0.5001170000000  0.4321880000000  0.5274810000000 1.0
C      1  0.5459850000000  0.4442160000000  0.5255760000000 1.0
C      1  0.5698320000000  0.4884360000000  0.5276720000000 1.0
C      1  0.5653590000000  0.5361660000000  0.5259960000000 1.0
C      1  0.4623480000000  0.4930480000000  0.5228200000000 1.0
C      1  0.4811220000000  0.4776930000000  0.5372640000000 1.0
C      1  0.5009170000000  0.4633830000000  0.5229880000000 1.0
C      1  0.5275070000000  0.4681250000000  0.5333900000000 1.0
C      1  0.5395850000000  0.4926500000000  0.5242910000000 1.0
C      1  0.5344360000000  0.5182870000000  0.5364660000000 1.0
C      1  0.5138750000000  0.5346410000000  0.5243340000000 1.0
C      1  0.4876530000000  0.5329710000000  0.5382750000000 1.0
C      1  0.4657930000000  0.5225990000000  0.5228980000000 1.0
C      1  0.5426230000000  0.4483340000000  0.4455260000000 1.0
C      1  0.5650080000000  0.4879740000000  0.4458440000000 1.0
C      1  0.5578530000000  0.5332760000000  0.4454240000000 1.0
C      1  0.5228160000000  0.5621550000000  0.4457080000000 1.0
C      1  0.4766830000000  0.5634930000000  0.4450100000000 1.0
C      1  0.4421200000000  0.5337200000000  0.4466920000000 1.0
C      1  0.4338650000000  0.4885600000000  0.4461950000000 1.0
C      1  0.4560780000000  0.4484990000000  0.4457730000000 1.0
C      1  0.4991510000000  0.4335010000000  0.4461230000000 1.0
C      1  0.4718720000000  0.5205830000000  0.4926100000000 1.0
C      1  0.4678130000000  0.4927060000000  0.4927120000000 1.0
C      1  0.4806310000000  0.4752680000000  0.4777930000000 1.0
C      1  0.5011860000000  0.4688800000000  0.4938160000000 1.0
C      1  0.5238570000000  0.4739390000000  0.4807830000000 1.0
C      1  0.5334580000000  0.4942030000000  0.4952220000000 1.0
C      1  0.5317210000000  0.5169260000000  0.4815560000000 1.0
C      1  0.5124770000000  0.5291190000000  0.4953330000000 1.0
C      1  0.4912640000000  0.5326040000000  0.4795280000000 1.0
C      1  0.5645030000000  0.4621820000000  0.4595450000000 1.0
C      1  0.5740680000000  0.5127280000000  0.4580860000000 1.0
C      1  0.5479020000000  0.5569440000000  0.4596970000000 1.0
C      1  0.5002880000000  0.5756320000000  0.4575360000000 1.0
C      1  0.4507920000000  0.5592480000000  0.4584160000000 1.0
C      1  0.4258760000000  0.5132240000000  0.4599080000000 1.0
C      1  0.4334940000000  0.4619470000000  0.4583190000000 1.0
C      1  0.4737120000000  0.4296530000000  0.4599500000000 1.0
C      1  0.5249450000000  0.4293490000000  0.4585820000000 1.0
C      1  0.4307760000000  0.4595690000000  0.5106620000000 1.0
C      1  0.4720610000000  0.4267930000000  0.5132930000000 1.0
C      1  0.5265620000000  0.4271120000000  0.5113790000000 1.0
C      1  0.5691280000000  0.4596270000000  0.5131450000000 1.0
C      1  0.5779910000000  0.5141250000000  0.5111410000000 1.0
C      1  0.5515440000000  0.5597490000000  0.5134810000000 1.0
C      1  0.5000790000000  0.5789090000000  0.5103570000000 1.0
C      1  0.4486590000000  0.5641910000000  0.5112870000000 1.0
C      1  0.4217500000000  0.5137540000000  0.5126530000000 1.0
C      1  0.4851470000000  0.5399180000000  0.4302990000000 1.0
C      1  0.4631810000000  0.5212310000000  0.4308320000000 1.0
C      1  0.4580760000000  0.4927110000000  0.4307820000000 1.0
C      1  0.4720130000000  0.4673430000000  0.4302070000000 1.0
C      1  0.4993060000000  0.4576010000000  0.4303750000000 1.0
C      1  0.5266250000000  0.4671630000000  0.4303160000000 1.0
C      1  0.5409630000000  0.4923190000000  0.4303160000000 1.0
C      1  0.5362590000000  0.5209050000000  0.4304560000000 1.0
C      1  0.5141750000000  0.5393550000000  0.4304440000000 1.0
C      1  0.5006050000000  0.4566920000000  0.5739580000000 1.0
C      1  0.5282880000000  0.4683900000000  0.5723360000000 1.0
C      1  0.5438330000000  0.4924500000000  0.5739240000000 1.0
C      1  0.5347840000000  0.5205540000000  0.5690900000000 1.0
C      1  0.5130840000000  0.5391510000000  0.5739590000000 1.0
C      1  0.4862610000000  0.5294620000000  0.5670230000000 1.0
C      1  0.4594830000000  0.5192530000000  0.5719460000000 1.0
C      1  0.4551620000000  0.4915530000000  0.5717570000000 1.0
C      1  0.4756710000000  0.4698180000000  0.5647640000000 1.0
END
