TITL C-22185-9689-5 -34.820484905553 125000 -569.437493660905 0 0 79 (C1) n - 1
REM
REM in /rds/project/t2_vol4/rds-t2-cs072/BORA/CARBON/from-Arr/AIRSS/Generating-Clusters/GAP-ML-2020/Higher-Symm/SD-CG/HFTN-CG
REM
REM
REM
REM
REM
REM ./C.cell (b20cbc046b6831c77cfcea5457e17084)
REM AIRSS Version 0.9.1 bugfix July 2018 build 013d7b7c2542+ Fri, 06 Jul 2018 19:26:36 +0100
REM compiler GCC version 9.3.0
REM options -cpp -mtune=generic -march=x86-64 -g -O0
REM seed 2110425384 1252889804 -368601648 -1189732134 176611346 1785725164 1959869393 -690346365 -611964402 -407062398 877865790 410967181 -308056413 235949684 -408989746 -1693908229 -2047066032 -323197955 246598764 817005537 629316768 -1848153530 1282512819 -319472637 626746086 251915764 -131762112 -657199455 -1550830984 546860262 1592083109 1331835033 -717608471
REM
CELL 1.54180   50.00000   50.00000   50.00000   90.00000   90.00000   90.00000
LATT -1
SFAC C  
C      1  0.5801810000000  0.5080360000000  0.4993660000000 1.0
C      1  0.5429970000000  0.5369690000000  0.5112230000000 1.0
C      1  0.4704080000000  0.5244060000000  0.4316170000000 1.0
C      1  0.4750510000000  0.5010830000000  0.5816950000000 1.0
C      1  0.5028710000000  0.4284950000000  0.4887660000000 1.0
C      1  0.4559860000000  0.4475260000000  0.4744850000000 1.0
C      1  0.4512970000000  0.5110960000000  0.5703260000000 1.0
C      1  0.5376490000000  0.5186300000000  0.5338400000000 1.0
C      1  0.4768830000000  0.4790040000000  0.5604750000000 1.0
C      1  0.4972340000000  0.4770770000000  0.5122760000000 1.0
C      1  0.4877190000000  0.4788370000000  0.4174310000000 1.0
C      1  0.5047150000000  0.4891520000000  0.4708220000000 1.0
C      1  0.5274210000000  0.5615200000000  0.5127860000000 1.0
C      1  0.4866420000000  0.5457340000000  0.4428360000000 1.0
C      1  0.5295660000000  0.4360490000000  0.4810470000000 1.0
C      1  0.5263910000000  0.4395370000000  0.5283630000000 1.0
C      1  0.4713650000000  0.4612300000000  0.4331590000000 1.0
C      1  0.4483570000000  0.5190200000000  0.4489670000000 1.0
C      1  0.4384820000000  0.4928070000000  0.4583650000000 1.0
C      1  0.4872760000000  0.5685560000000  0.4869400000000 1.0
C      1  0.4732740000000  0.5575230000000  0.4644920000000 1.0
C      1  0.5372260000000  0.5266790000000  0.5608960000000 1.0
C      1  0.4857490000000  0.5680640000000  0.5375610000000 1.0
C      1  0.4883050000000  0.5073810000000  0.4178430000000 1.0
C      1  0.5456200000000  0.4903960000000  0.5311750000000 1.0
C      1  0.4509760000000  0.4670190000000  0.4529240000000 1.0
C      1  0.5587410000000  0.4636960000000  0.4518140000000 1.0
C      1  0.5153620000000  0.5166350000000  0.4230390000000 1.0
C      1  0.5150970000000  0.4701460000000  0.4191310000000 1.0
C      1  0.4968820000000  0.5443770000000  0.5766520000000 1.0
C      1  0.5584620000000  0.5351950000000  0.4669220000000 1.0
C      1  0.4860550000000  0.4946780000000  0.4902710000000 1.0
C      1  0.4455670000000  0.4511730000000  0.5012360000000 1.0
C      1  0.4916500000000  0.4914880000000  0.5363380000000 1.0
C      1  0.5240300000000  0.5226340000000  0.4891090000000 1.0
C      1  0.4474350000000  0.4869290000000  0.5540300000000 1.0
C      1  0.4572910000000  0.4407440000000  0.5237440000000 1.0
C      1  0.5326300000000  0.4930240000000  0.4218750000000 1.0
C      1  0.5024490000000  0.4283330000000  0.5177540000000 1.0
C      1  0.5558990000000  0.4895910000000  0.4373340000000 1.0
C      1  0.4892530000000  0.4409810000000  0.4436210000000 1.0
C      1  0.4472240000000  0.5556680000000  0.5127530000000 1.0
C      1  0.4918090000000  0.4528610000000  0.5570090000000 1.0
C      1  0.4949450000000  0.5187790000000  0.5913040000000 1.0
C      1  0.5372730000000  0.4445120000000  0.4547470000000 1.0
C      1  0.4753680000000  0.5537700000000  0.5607810000000 1.0
C      1  0.5715630000000  0.4864080000000  0.5161300000000 1.0
C      1  0.5756120000000  0.4686410000000  0.4742910000000 1.0
C      1  0.5832360000000  0.4964000000000  0.4734980000000 1.0
C      1  0.5292590000000  0.5447400000000  0.4662410000000 1.0
C      1  0.5276800000000  0.4778140000000  0.5077990000000 1.0
C      1  0.4305970000000  0.4753430000000  0.5054890000000 1.0
C      1  0.5671270000000  0.5332290000000  0.4949030000000 1.0
C      1  0.4263720000000  0.4941720000000  0.4840910000000 1.0
C      1  0.5161210000000  0.4466910000000  0.4357050000000 1.0
C      1  0.4517510000000  0.5378720000000  0.5595640000000 1.0
C      1  0.4387970000000  0.5395430000000  0.5347710000000 1.0
C      1  0.4311770000000  0.4895650000000  0.5309660000000 1.0
C      1  0.5024320000000  0.5166260000000  0.5294950000000 1.0
C      1  0.5691780000000  0.4617010000000  0.5007050000000 1.0
C      1  0.5158040000000  0.5653620000000  0.4866780000000 1.0
C      1  0.4484160000000  0.5428970000000  0.4656220000000 1.0
C      1  0.4960890000000  0.5203410000000  0.5016180000000 1.0
C      1  0.4227660000000  0.5192300000000  0.4967730000000 1.0
C      1  0.5204600000000  0.4547640000000  0.5521960000000 1.0
C      1  0.4252050000000  0.5166880000000  0.5246860000000 1.0
C      1  0.4810090000000  0.4362930000000  0.5354140000000 1.0
C      1  0.5303860000000  0.4941480000000  0.4828600000000 1.0
C      1  0.5420980000000  0.4489730000000  0.5046480000000 1.0
C      1  0.5365990000000  0.4786130000000  0.5568450000000 1.0
C      1  0.5327800000000  0.5012900000000  0.5751850000000 1.0
C      1  0.5187440000000  0.5052830000000  0.5981080000000 1.0
C      1  0.5141150000000  0.5643340000000  0.5376740000000 1.0
C      1  0.4350610000000  0.5434920000000  0.4896060000000 1.0
C      1  0.5144390000000  0.5399990000000  0.4409720000000 1.0
C      1  0.5679590000000  0.5106680000000  0.4541650000000 1.0
C      1  0.5206200000000  0.5495430000000  0.5620880000000 1.0
C      1  0.4811790000000  0.4332130000000  0.4698110000000 1.0
C      1  0.4723060000000  0.5690830000000  0.5122610000000 1.0
END
