TITL C-22084-8371-1 -0.230867608338799 125000 -1348.27170183326 0 0 196 (C1) n - 1
REM
REM in /rds/project/t2_vol4/rds-t2-cs072/BORA/CARBON/from-Arr/AIRSS/Generating-Clusters/GAP-ML-2020/Higher-Symm/SD-CG/HFTN-CG/C160-200
REM
REM
REM
REM
REM
REM ./C.cell (6b4489405718ea1b717e0baf1da4c2d9)
REM AIRSS Version 0.9.1 bugfix July 2018 build 013d7b7c2542+ Fri, 06 Jul 2018 19:26:36 +0100
REM compiler GCC version 9.3.0
REM options -cpp -mtune=generic -march=x86-64 -g -O0
REM seed -580509610 1439242609 772277391 935736257 -1502808333 1697795761 -482441456 -584435167 57760207 2114588988 -868176978 1015930168 46532998 -1209845959 -2065847671 -1996286193 388837998 -403270072 21886277 12240936 -1585509142 1020877892 -2127521338 1978471976 -716307559 1933064400 -178747515 519207668 39253694 274169236 801740675 -771599031 -1033161719
REM
CELL 1.54180   50.00000   50.00000   50.00000   90.00000   90.00000   90.00000
LATT -1
SFAC C  
C      1  0.5107990000000  0.4097590000000  0.5627460000000 1.0
C      1  0.5674550000000  0.4105950000000  0.4984440000000 1.0
C      1  0.5289850000000  0.4135290000000  0.4379660000000 1.0
C      1  0.4472660000000  0.4125100000000  0.4540020000000 1.0
C      1  0.4434650000000  0.4103470000000  0.5359980000000 1.0
C      1  0.5155720000000  0.5844430000000  0.5670800000000 1.0
C      1  0.5683030000000  0.5897830000000  0.5076750000000 1.0
C      1  0.5223130000000  0.5901840000000  0.4377880000000 1.0
C      1  0.4522430000000  0.5889640000000  0.4557370000000 1.0
C      1  0.4424490000000  0.5887550000000  0.5380850000000 1.0
C      1  0.4142450000000  0.5604150000000  0.4623070000000 1.0
C      1  0.4359890000000  0.5567440000000  0.5741620000000 1.0
C      1  0.5493120000000  0.5545990000000  0.5851920000000 1.0
C      1  0.5944230000000  0.5597220000000  0.4804350000000 1.0
C      1  0.5094890000000  0.5583210000000  0.4024490000000 1.0
C      1  0.4111650000000  0.4436730000000  0.4602370000000 1.0
C      1  0.4332590000000  0.4415890000000  0.5730190000000 1.0
C      1  0.5461930000000  0.4380330000000  0.5797540000000 1.0
C      1  0.5965720000000  0.4443710000000  0.4770670000000 1.0
C      1  0.5107360000000  0.4424940000000  0.4041970000000 1.0
C      1  0.4337590000000  0.5777230000000  0.4765820000000 1.0
C      1  0.4555230000000  0.5741570000000  0.5608650000000 1.0
C      1  0.5422240000000  0.5734060000000  0.5638640000000 1.0
C      1  0.5708150000000  0.5769770000000  0.4813140000000 1.0
C      1  0.5017010000000  0.5757570000000  0.4245460000000 1.0
C      1  0.4301380000000  0.4257330000000  0.4737160000000 1.0
C      1  0.4517960000000  0.4235360000000  0.5598030000000 1.0
C      1  0.5377570000000  0.4213440000000  0.5572210000000 1.0
C      1  0.5736350000000  0.4264810000000  0.4757980000000 1.0
C      1  0.5035250000000  0.4248410000000  0.4268720000000 1.0
C      1  0.4766960000000  0.5278540000000  0.5081580000000 1.0
C      1  0.4988040000000  0.5155780000000  0.5230540000000 1.0
C      1  0.5223520000000  0.5271510000000  0.5105350000000 1.0
C      1  0.5153060000000  0.5269370000000  0.4818770000000 1.0
C      1  0.4866650000000  0.5266260000000  0.4803190000000 1.0
C      1  0.4756210000000  0.4754670000000  0.5042740000000 1.0
C      1  0.5030950000000  0.4674950000000  0.5325280000000 1.0
C      1  0.5235140000000  0.4784260000000  0.5052860000000 1.0
C      1  0.5154330000000  0.4740210000000  0.4793430000000 1.0
C      1  0.4861590000000  0.4742220000000  0.4778450000000 1.0
C      1  0.4357510000000  0.5303840000000  0.4940220000000 1.0
C      1  0.4737340000000  0.5276200000000  0.5603210000000 1.0
C      1  0.5495890000000  0.5276010000000  0.5446380000000 1.0
C      1  0.5565710000000  0.5305730000000  0.4676890000000 1.0
C      1  0.4864860000000  0.5295650000000  0.4358920000000 1.0
C      1  0.4345740000000  0.4717840000000  0.4927360000000 1.0
C      1  0.4717770000000  0.4693790000000  0.5611350000000 1.0
C      1  0.5485470000000  0.4687090000000  0.5415610000000 1.0
C      1  0.5575140000000  0.4728680000000  0.4662170000000 1.0
C      1  0.4864600000000  0.4718820000000  0.4350480000000 1.0
C      1  0.4800970000000  0.5559190000000  0.5541090000000 1.0
C      1  0.5448310000000  0.5561890000000  0.5371860000000 1.0
C      1  0.5466670000000  0.5587860000000  0.4707850000000 1.0
C      1  0.4857990000000  0.5571430000000  0.4456050000000 1.0
C      1  0.4452750000000  0.5590650000000  0.4987440000000 1.0
C      1  0.4771720000000  0.4414900000000  0.5532390000000 1.0
C      1  0.5426430000000  0.4397770000000  0.5316910000000 1.0
C      1  0.5484650000000  0.4450640000000  0.4683160000000 1.0
C      1  0.4858490000000  0.4433240000000  0.4449160000000 1.0
C      1  0.4437500000000  0.4433570000000  0.4965680000000 1.0
C      1  0.5501740000000  0.6097560000000  0.5097810000000 1.0
C      1  0.5056970000000  0.6050890000000  0.4553860000000 1.0
C      1  0.4752870000000  0.6051790000000  0.4610720000000 1.0
C      1  0.4529120000000  0.6088340000000  0.5238500000000 1.0
C      1  0.5019890000000  0.5940930000000  0.5436300000000 1.0
C      1  0.5461220000000  0.3952990000000  0.4877580000000 1.0
C      1  0.5308670000000  0.3965500000000  0.4610010000000 1.0
C      1  0.4630440000000  0.3921800000000  0.4610190000000 1.0
C      1  0.4671260000000  0.3949000000000  0.5314670000000 1.0
C      1  0.4953840000000  0.3938080000000  0.5447100000000 1.0
C      1  0.5516610000000  0.4589440000000  0.4157640000000 1.0
C      1  0.4373010000000  0.4577100000000  0.4252840000000 1.0
C      1  0.4107900000000  0.4564530000000  0.5364820000000 1.0
C      1  0.5063270000000  0.4535870000000  0.5960400000000 1.0
C      1  0.5933650000000  0.4549010000000  0.5203140000000 1.0
C      1  0.5497530000000  0.5459750000000  0.4183860000000 1.0
C      1  0.4372570000000  0.5444630000000  0.4263010000000 1.0
C      1  0.4105140000000  0.5438020000000  0.5381290000000 1.0
C      1  0.5079630000000  0.5398460000000  0.5984400000000 1.0
C      1  0.5951660000000  0.5429370000000  0.5235040000000 1.0
C      1  0.4973140000000  0.5646590000000  0.5812030000000 1.0
C      1  0.5748660000000  0.5674210000000  0.5294470000000 1.0
C      1  0.5466410000000  0.5705300000000  0.4407390000000 1.0
C      1  0.4572320000000  0.5680300000000  0.4345290000000 1.0
C      1  0.4246830000000  0.5683610000000  0.5229170000000 1.0
C      1  0.4944250000000  0.4304330000000  0.5778910000000 1.0
C      1  0.5713000000000  0.4293390000000  0.5232680000000 1.0
C      1  0.5503460000000  0.4348550000000  0.4368420000000 1.0
C      1  0.4566070000000  0.4333790000000  0.4332920000000 1.0
C      1  0.4257900000000  0.4315360000000  0.5200780000000 1.0
C      1  0.5951250000000  0.4681470000000  0.4928520000000 1.0
C      1  0.5240620000000  0.4679040000000  0.4076090000000 1.0
C      1  0.4200390000000  0.4683050000000  0.4484300000000 1.0
C      1  0.4262370000000  0.4665120000000  0.5601590000000 1.0
C      1  0.5340320000000  0.4631640000000  0.5864620000000 1.0
C      1  0.5947230000000  0.5343840000000  0.4945130000000 1.0
C      1  0.5236170000000  0.5340950000000  0.4081930000000 1.0
C      1  0.4210040000000  0.5351580000000  0.4499060000000 1.0
C      1  0.4270340000000  0.5326600000000  0.5613560000000 1.0
C      1  0.5351550000000  0.5297100000000  0.5889370000000 1.0
C      1  0.4827230000000  0.5567510000000  0.3951000000000 1.0
C      1  0.3975120000000  0.5589240000000  0.4845900000000 1.0
C      1  0.4528490000000  0.5543790000000  0.5963110000000 1.0
C      1  0.5759090000000  0.5534610000000  0.5760910000000 1.0
C      1  0.5929250000000  0.5599590000000  0.4523590000000 1.0
C      1  0.4841680000000  0.4435950000000  0.3954510000000 1.0
C      1  0.3954750000000  0.4438870000000  0.4835550000000 1.0
C      1  0.4503710000000  0.4420810000000  0.5950600000000 1.0
C      1  0.5729010000000  0.4384450000000  0.5706920000000 1.0
C      1  0.5954520000000  0.4467090000000  0.4492790000000 1.0
C      1  0.5100630000000  0.6195770000000  0.4803480000000 1.0
C      1  0.4811630000000  0.6204960000000  0.4851070000000 1.0
C      1  0.4755370000000  0.6194980000000  0.5134870000000 1.0
C      1  0.5024920000000  0.6154260000000  0.5257940000000 1.0
C      1  0.5247520000000  0.6184720000000  0.5058310000000 1.0
C      1  0.5096240000000  0.3811940000000  0.4741470000000 1.0
C      1  0.4803880000000  0.3820220000000  0.4786010000000 1.0
C      1  0.4782980000000  0.3810100000000  0.5083560000000 1.0
C      1  0.5048530000000  0.3797540000000  0.5209480000000 1.0
C      1  0.5243040000000  0.3797260000000  0.4995380000000 1.0
C      1  0.4920320000000  0.5573040000000  0.4767450000000 1.0
C      1  0.4757570000000  0.5591320000000  0.5036380000000 1.0
C      1  0.4937450000000  0.5673020000000  0.5285930000000 1.0
C      1  0.5211800000000  0.5567620000000  0.5172830000000 1.0
C      1  0.5206550000000  0.5587520000000  0.4863140000000 1.0
C      1  0.4912490000000  0.4426960000000  0.4749200000000 1.0
C      1  0.4741220000000  0.4440280000000  0.5002370000000 1.0
C      1  0.4919710000000  0.4410370000000  0.5246890000000 1.0
C      1  0.5193110000000  0.4347960000000  0.5128350000000 1.0
C      1  0.5209260000000  0.4449310000000  0.4844800000000 1.0
C      1  0.4872380000000  0.5220520000000  0.6084410000000 1.0
C      1  0.5982580000000  0.5233950000000  0.5452670000000 1.0
C      1  0.5728530000000  0.5286060000000  0.4214460000000 1.0
C      1  0.4472880000000  0.5263570000000  0.4055490000000 1.0
C      1  0.3945330000000  0.5262000000000  0.5212200000000 1.0
C      1  0.4863480000000  0.4714960000000  0.6080180000000 1.0
C      1  0.5971100000000  0.4718490000000  0.5437670000000 1.0
C      1  0.5738930000000  0.4776240000000  0.4196100000000 1.0
C      1  0.4478510000000  0.4755050000000  0.4049310000000 1.0
C      1  0.3946610000000  0.4749040000000  0.5204900000000 1.0
C      1  0.5134440000000  0.5171190000000  0.4337970000000 1.0
C      1  0.4416150000000  0.5172910000000  0.4673880000000 1.0
C      1  0.4500580000000  0.5155590000000  0.5464710000000 1.0
C      1  0.5286110000000  0.5142540000000  0.5616790000000 1.0
C      1  0.5672910000000  0.5175430000000  0.4924240000000 1.0
C      1  0.5134960000000  0.4849700000000  0.4330190000000 1.0
C      1  0.4407900000000  0.4848120000000  0.4662560000000 1.0
C      1  0.4499040000000  0.4834280000000  0.5460170000000 1.0
C      1  0.5286390000000  0.4816390000000  0.5612820000000 1.0
C      1  0.5680560000000  0.4852200000000  0.4914010000000 1.0
C      1  0.4509130000000  0.5158320000000  0.5150070000000 1.0
C      1  0.4982900000000  0.5130750000000  0.5523850000000 1.0
C      1  0.5485460000000  0.5154800000000  0.5176570000000 1.0
C      1  0.5311330000000  0.5164140000000  0.4599990000000 1.0
C      1  0.4716480000000  0.5157130000000  0.4580330000000 1.0
C      1  0.4505630000000  0.4857650000000  0.5138170000000 1.0
C      1  0.4978630000000  0.4828870000000  0.5555860000000 1.0
C      1  0.5488960000000  0.4851860000000  0.5159870000000 1.0
C      1  0.5315880000000  0.4862590000000  0.4587950000000 1.0
C      1  0.4709260000000  0.4857450000000  0.4566540000000 1.0
C      1  0.4782170000000  0.4709930000000  0.4038020000000 1.0
C      1  0.4025170000000  0.4712450000000  0.4911920000000 1.0
C      1  0.4605210000000  0.4687890000000  0.5913680000000 1.0
C      1  0.5733420000000  0.4665090000000  0.5622950000000 1.0
C      1  0.5842620000000  0.4733530000000  0.4481170000000 1.0
C      1  0.4777320000000  0.5298660000000  0.4046910000000 1.0
C      1  0.4032300000000  0.5312240000000  0.4921900000000 1.0
C      1  0.4622530000000  0.5272220000000  0.5910110000000 1.0
C      1  0.5746640000000  0.5267010000000  0.5646730000000 1.0
C      1  0.5835050000000  0.5323470000000  0.4498020000000 1.0
C      1  0.5029330000000  0.5143830000000  0.3934390000000 1.0
C      1  0.4009380000000  0.5159540000000  0.4648940000000 1.0
C      1  0.4351160000000  0.5127790000000  0.5848260000000 1.0
C      1  0.5602340000000  0.5098950000000  0.5875230000000 1.0
C      1  0.6022340000000  0.5165050000000  0.4696830000000 1.0
C      1  0.5033500000000  0.4865760000000  0.3932090000000 1.0
C      1  0.4005510000000  0.4878720000000  0.4642360000000 1.0
C      1  0.4341460000000  0.4851430000000  0.5848600000000 1.0
C      1  0.5593500000000  0.4817890000000  0.5860940000000 1.0
C      1  0.6021630000000  0.4887940000000  0.4688450000000 1.0
C      1  0.5731580000000  0.5803390000000  0.4505080000000 1.0
C      1  0.4741740000000  0.5775060000000  0.4123860000000 1.0
C      1  0.4106860000000  0.5791030000000  0.4990240000000 1.0
C      1  0.4706810000000  0.5749390000000  0.5882250000000 1.0
C      1  0.5731460000000  0.5747810000000  0.5579480000000 1.0
C      1  0.5767780000000  0.4257680000000  0.4458840000000 1.0
C      1  0.4751320000000  0.4230070000000  0.4123430000000 1.0
C      1  0.4096390000000  0.4228030000000  0.4965640000000 1.0
C      1  0.4673990000000  0.4214870000000  0.5857440000000 1.0
C      1  0.5689160000000  0.4184410000000  0.5507990000000 1.0
C      1  0.6073320000000  0.4974570000000  0.5438770000000 1.0
C      1  0.3868500000000  0.5004380000000  0.5269210000000 1.0
C      1  0.4903350000000  0.4965740000000  0.6182410000000 1.0
C      1  0.5760610000000  0.5034830000000  0.4107670000000 1.0
C      1  0.4390590000000  0.5009390000000  0.3993850000000 1.0
C      1  0.4988810000000  0.4876770000000  0.5153480000000 1.0
END
