TITL C-22218-3639-8 54.9203036785467 125000 -892.91802416182 0 0 130 (Ci) n - 1
REM
REM in /rds/project/t2_vol4/rds-t2-cs072/BORA/CARBON/from-Arr/AIRSS/Generating-Clusters/GAP-ML-2020/Higher-Symm/SD-CG/HFTN-CG
REM
REM
REM
REM
REM
REM ./C.cell (b20cbc046b6831c77cfcea5457e17084)
REM AIRSS Version 0.9.1 bugfix July 2018 build 013d7b7c2542+ Fri, 06 Jul 2018 19:26:36 +0100
REM compiler GCC version 9.3.0
REM options -cpp -mtune=generic -march=x86-64 -g -O0
REM seed -1158152710 -1038044974 171013638 1147067982 -167619223 -1902717453 -77202096 1812182213 -456186828 356616116 255332308 -557820577 -1914209831 -826245201 1161535345 681985152 -946706653 -1969945944 910459548 -2018232593 -1851449853 -492574134 -1051173087 1489618291 134216515 1373872948 1479236105 -1820090653 -1058081151 2060097383 752246137 1949501642 804432198
REM
CELL 1.54180   50.00000   50.00000   50.00000   90.00000   90.00000   90.00000
LATT -1
SFAC C  
C      1  0.5388070000000  0.5410160000000  0.5377080000000 1.0
C      1  0.4611930000000  0.4589840000000  0.4622920000000 1.0
C      1  0.5134390000000  0.4646950000000  0.4729920000000 1.0
C      1  0.4865610000000  0.5353050000000  0.5270080000000 1.0
C      1  0.4219870000000  0.5412910000000  0.4777420000000 1.0
C      1  0.5780130000000  0.4587090000000  0.5222580000000 1.0
C      1  0.4814050000000  0.5081830000000  0.4298370000000 1.0
C      1  0.5185950000000  0.4918170000000  0.5701630000000 1.0
C      1  0.4549620000000  0.5728240000000  0.4508620000000 1.0
C      1  0.5450380000000  0.4271760000000  0.5491380000000 1.0
C      1  0.4214080000000  0.5147830000000  0.5285040000000 1.0
C      1  0.5785920000000  0.4852170000000  0.4714960000000 1.0
C      1  0.4015460000000  0.4810540000000  0.5032520000000 1.0
C      1  0.5984540000000  0.5189460000000  0.4967480000000 1.0
C      1  0.5387140000000  0.5424630000000  0.4263600000000 1.0
C      1  0.4612860000000  0.4575370000000  0.5736400000000 1.0
C      1  0.5743470000000  0.5038510000000  0.5377990000000 1.0
C      1  0.4256530000000  0.4961490000000  0.4622010000000 1.0
C      1  0.4756240000000  0.3946300000000  0.4956790000000 1.0
C      1  0.5243760000000  0.6053700000000  0.5043210000000 1.0
C      1  0.5651240000000  0.5778740000000  0.5134600000000 1.0
C      1  0.4348760000000  0.4221260000000  0.4865400000000 1.0
C      1  0.5594280000000  0.5260500000000  0.5202480000000 1.0
C      1  0.4405720000000  0.4739500000000  0.4797520000000 1.0
C      1  0.4475450000000  0.4845840000000  0.4168780000000 1.0
C      1  0.5524550000000  0.5154160000000  0.5831220000000 1.0
C      1  0.5894210000000  0.4733480000000  0.4986150000000 1.0
C      1  0.4105790000000  0.5266520000000  0.5013850000000 1.0
C      1  0.5641360000000  0.5588050000000  0.4624950000000 1.0
C      1  0.4358640000000  0.4411950000000  0.5375050000000 1.0
C      1  0.4269790000000  0.4777630000000  0.4362780000000 1.0
C      1  0.5730210000000  0.5222370000000  0.5637220000000 1.0
C      1  0.5615410000000  0.4748380000000  0.5412250000000 1.0
C      1  0.4384590000000  0.5251620000000  0.4587750000000 1.0
C      1  0.5227300000000  0.5160040000000  0.5463740000000 1.0
C      1  0.4772700000000  0.4839960000000  0.4536260000000 1.0
C      1  0.4956810000000  0.5867840000000  0.4685010000000 1.0
C      1  0.5043190000000  0.4132160000000  0.5314980000000 1.0
C      1  0.4943360000000  0.5532970000000  0.4325110000000 1.0
C      1  0.5056640000000  0.4467030000000  0.5674890000000 1.0
C      1  0.4805920000000  0.4381780000000  0.4722020000000 1.0
C      1  0.5194080000000  0.5618220000000  0.5277980000000 1.0
C      1  0.5049880000000  0.5647430000000  0.5569550000000 1.0
C      1  0.4950120000000  0.4352570000000  0.4430450000000 1.0
C      1  0.4583060000000  0.5853660000000  0.5025520000000 1.0
C      1  0.5416940000000  0.4146340000000  0.4974480000000 1.0
C      1  0.4634400000000  0.5570970000000  0.4310770000000 1.0
C      1  0.5365600000000  0.4429030000000  0.5689230000000 1.0
C      1  0.4744630000000  0.4680780000000  0.4108770000000 1.0
C      1  0.5255370000000  0.5319220000000  0.5891230000000 1.0
C      1  0.5017570000000  0.4815080000000  0.4093760000000 1.0
C      1  0.4982430000000  0.5184920000000  0.5906240000000 1.0
C      1  0.4972390000000  0.4901440000000  0.5894300000000 1.0
C      1  0.5027610000000  0.5098560000000  0.4105700000000 1.0
C      1  0.4754300000000  0.5467820000000  0.4888010000000 1.0
C      1  0.5245700000000  0.4532180000000  0.5111990000000 1.0
C      1  0.5566100000000  0.4359630000000  0.4817480000000 1.0
C      1  0.4433900000000  0.5640370000000  0.5182520000000 1.0
C      1  0.5730960000000  0.5640480000000  0.4891030000000 1.0
C      1  0.4269040000000  0.4359520000000  0.5108970000000 1.0
C      1  0.4746750000000  0.4435890000000  0.4241420000000 1.0
C      1  0.5253250000000  0.5564110000000  0.5758580000000 1.0
C      1  0.4599780000000  0.4968510000000  0.5470530000000 1.0
C      1  0.5400220000000  0.5031490000000  0.4529470000000 1.0
C      1  0.4499430000000  0.5086410000000  0.5202860000000 1.0
C      1  0.5500570000000  0.4913590000000  0.4797140000000 1.0
C      1  0.5392500000000  0.4628280000000  0.4864860000000 1.0
C      1  0.4607500000000  0.5371720000000  0.5135140000000 1.0
C      1  0.4865920000000  0.4633640000000  0.5850900000000 1.0
C      1  0.5134080000000  0.5366360000000  0.4149100000000 1.0
C      1  0.5665090000000  0.4677740000000  0.4471950000000 1.0
C      1  0.4334910000000  0.5322260000000  0.5528050000000 1.0
C      1  0.4689200000000  0.5736970000000  0.4760090000000 1.0
C      1  0.5310800000000  0.4263030000000  0.5239910000000 1.0
C      1  0.4587690000000  0.4870930000000  0.4994090000000 1.0
C      1  0.5412310000000  0.5129070000000  0.5005910000000 1.0
C      1  0.4609770000000  0.4364160000000  0.5542620000000 1.0
C      1  0.5390230000000  0.5635840000000  0.4457380000000 1.0
C      1  0.5788560000000  0.4449950000000  0.4994560000000 1.0
C      1  0.4211440000000  0.5550050000000  0.5005440000000 1.0
C      1  0.5301620000000  0.4738060000000  0.5299400000000 1.0
C      1  0.4698380000000  0.5261940000000  0.4700600000000 1.0
C      1  0.5001770000000  0.6039340000000  0.4917730000000 1.0
C      1  0.4998230000000  0.3960660000000  0.5082270000000 1.0
C      1  0.4450860000000  0.5342500000000  0.4309300000000 1.0
C      1  0.5549140000000  0.4657500000000  0.5690700000000 1.0
C      1  0.4475970000000  0.5556900000000  0.5465200000000 1.0
C      1  0.5524030000000  0.4443100000000  0.4534800000000 1.0
C      1  0.5819970000000  0.5608540000000  0.5306930000000 1.0
C      1  0.4180030000000  0.4391460000000  0.4693070000000 1.0
C      1  0.5139140000000  0.5150990000000  0.4637660000000 1.0
C      1  0.4860860000000  0.4849010000000  0.5362340000000 1.0
C      1  0.4789540000000  0.5517610000000  0.5563620000000 1.0
C      1  0.5210460000000  0.4482390000000  0.4436380000000 1.0
C      1  0.4440330000000  0.4783050000000  0.5630060000000 1.0
C      1  0.5559670000000  0.5216950000000  0.4369940000000 1.0
C      1  0.4506010000000  0.4426820000000  0.4394280000000 1.0
C      1  0.5493990000000  0.5573180000000  0.5605720000000 1.0
C      1  0.4757750000000  0.5311970000000  0.5773170000000 1.0
C      1  0.5242250000000  0.4688030000000  0.4226830000000 1.0
C      1  0.5941090000000  0.4970130000000  0.5148860000000 1.0
C      1  0.4058910000000  0.5029870000000  0.4851140000000 1.0
C      1  0.4887950000000  0.4267340000000  0.5512910000000 1.0
C      1  0.5112050000000  0.5732660000000  0.4487090000000 1.0
C      1  0.4554390000000  0.5116550000000  0.4181730000000 1.0
C      1  0.5445610000000  0.4883450000000  0.5818270000000 1.0
C      1  0.5216300000000  0.5298710000000  0.4881250000000 1.0
C      1  0.4783700000000  0.4701290000000  0.5118750000000 1.0
C      1  0.5035700000000  0.5468760000000  0.5040890000000 1.0
C      1  0.4964300000000  0.4531240000000  0.4959110000000 1.0
C      1  0.4907090000000  0.5286580000000  0.4489170000000 1.0
C      1  0.5092910000000  0.4713420000000  0.5510830000000 1.0
C      1  0.5900750000000  0.5128510000000  0.4703030000000 1.0
C      1  0.4099250000000  0.4871490000000  0.5296970000000 1.0
C      1  0.5838730000000  0.5421150000000  0.5077400000000 1.0
C      1  0.4161270000000  0.4578850000000  0.4922600000000 1.0
C      1  0.4752880000000  0.4995230000000  0.4796120000000 1.0
C      1  0.5247120000000  0.5004770000000  0.5203880000000 1.0
C      1  0.5752280000000  0.5323500000000  0.4546700000000 1.0
C      1  0.4247720000000  0.4676500000000  0.5453300000000 1.0
C      1  0.4239470000000  0.4488490000000  0.4421030000000 1.0
C      1  0.5760530000000  0.5511510000000  0.5578970000000 1.0
C      1  0.5008370000000  0.4899060000000  0.4703610000000 1.0
C      1  0.4991630000000  0.5100940000000  0.5296390000000 1.0
C      1  0.4529810000000  0.5168120000000  0.5669090000000 1.0
C      1  0.5470190000000  0.4831880000000  0.4330910000000 1.0
C      1  0.4623340000000  0.4140920000000  0.4820990000000 1.0
C      1  0.5376660000000  0.5859080000000  0.5179010000000 1.0
C      1  0.5257750000000  0.3931640000000  0.4948220000000 1.0
C      1  0.4742250000000  0.6068360000000  0.5051780000000 1.0
END
