TITL C-22186-8037-3 -6.29589170832386 125000 -1124.57480344955 0 0 160 (Ci) n - 1
REM
REM in /rds/project/t2_vol4/rds-t2-cs072/BORA/CARBON/from-Arr/AIRSS/Generating-Clusters/GAP-ML-2020/Higher-Symm/SD-CG/HFTN-CG/C160-200
REM
REM
REM
REM
REM
REM ./C.cell (6b4489405718ea1b717e0baf1da4c2d9)
REM AIRSS Version 0.9.1 bugfix July 2018 build 013d7b7c2542+ Fri, 06 Jul 2018 19:26:36 +0100
REM compiler GCC version 9.3.0
REM options -cpp -mtune=generic -march=x86-64 -g -O0
REM seed -599249865 1819007961 -1450601154 487155172 -718225972 -1569148196 -1255953021 -1445309511 -1376708515 1705474242 -978569685 -1410309245 -1470721618 -212723620 970182775 -586871373 -601859158 -2042478298 -475032658 -992814018 1328236783 -881359424 154433859 1055774892 -701554038 1869628559 1882661841 -952592979 -1443187337 -938110855 -1297037679 -1088597504 2102835335
REM
CELL 1.54180   50.00000   50.00000   50.00000   90.00000   90.00000   90.00000
LATT -1
SFAC C  
C      1  0.5183890000000  0.5350620000000  0.3943330000000 1.0
C      1  0.4816110000000  0.4649380000000  0.6056670000000 1.0
C      1  0.5714450000000  0.5424080000000  0.5586260000000 1.0
C      1  0.4285550000000  0.4575920000000  0.4413740000000 1.0
C      1  0.5836050000000  0.4900610000000  0.5573040000000 1.0
C      1  0.4163950000000  0.5099390000000  0.4426960000000 1.0
C      1  0.5015530000000  0.5824670000000  0.4507610000000 1.0
C      1  0.4984470000000  0.4175330000000  0.5492390000000 1.0
C      1  0.4952480000000  0.6038300000000  0.5482180000000 1.0
C      1  0.5047520000000  0.3961700000000  0.4517820000000 1.0
C      1  0.5755120000000  0.4211950000000  0.4999350000000 1.0
C      1  0.4244880000000  0.5788050000000  0.5000650000000 1.0
C      1  0.4427230000000  0.4286720000000  0.5027300000000 1.0
C      1  0.5572770000000  0.5713280000000  0.4972700000000 1.0
C      1  0.4754270000000  0.5629250000000  0.5674830000000 1.0
C      1  0.5245730000000  0.4370750000000  0.4325170000000 1.0
C      1  0.4862680000000  0.5411210000000  0.4614820000000 1.0
C      1  0.5137320000000  0.4588790000000  0.5385180000000 1.0
C      1  0.5029450000000  0.5041580000000  0.5909950000000 1.0
C      1  0.4970550000000  0.4958420000000  0.4090050000000 1.0
C      1  0.4735800000000  0.5543990000000  0.5381900000000 1.0
C      1  0.5264200000000  0.4456010000000  0.4618100000000 1.0
C      1  0.5075840000000  0.5483570000000  0.4177210000000 1.0
C      1  0.4924160000000  0.4516430000000  0.5822790000000 1.0
C      1  0.4145780000000  0.4818120000000  0.4485410000000 1.0
C      1  0.5854220000000  0.5181880000000  0.5514590000000 1.0
C      1  0.5885770000000  0.4692900000000  0.4941500000000 1.0
C      1  0.4114230000000  0.5307100000000  0.5058500000000 1.0
C      1  0.5567370000000  0.4473310000000  0.4653130000000 1.0
C      1  0.4432630000000  0.5526690000000  0.5346870000000 1.0
C      1  0.4801770000000  0.4920370000000  0.6077610000000 1.0
C      1  0.5198230000000  0.5079630000000  0.3922390000000 1.0
C      1  0.5917070000000  0.5492610000000  0.5167890000000 1.0
C      1  0.4082930000000  0.4507390000000  0.4832110000000 1.0
C      1  0.5583300000000  0.5186470000000  0.5122570000000 1.0
C      1  0.4416700000000  0.4813530000000  0.4877430000000 1.0
C      1  0.4314200000000  0.4456980000000  0.5536570000000 1.0
C      1  0.5685800000000  0.5543020000000  0.4463430000000 1.0
C      1  0.4398890000000  0.4178380000000  0.4745930000000 1.0
C      1  0.5601110000000  0.5821620000000  0.5254070000000 1.0
C      1  0.5457810000000  0.5403070000000  0.5703720000000 1.0
C      1  0.4542190000000  0.4596930000000  0.4296280000000 1.0
C      1  0.5398630000000  0.5453500000000  0.5101090000000 1.0
C      1  0.4601370000000  0.4546500000000  0.4898910000000 1.0
C      1  0.3995320000000  0.5199020000000  0.5308450000000 1.0
C      1  0.6004680000000  0.4800980000000  0.4691550000000 1.0
C      1  0.4632160000000  0.4844010000000  0.5553960000000 1.0
C      1  0.5367840000000  0.5155990000000  0.4446040000000 1.0
C      1  0.5099560000000  0.4578200000000  0.5076080000000 1.0
C      1  0.4900440000000  0.5421800000000  0.4923920000000 1.0
C      1  0.5220220000000  0.5604880000000  0.5299010000000 1.0
C      1  0.4779780000000  0.4395120000000  0.4700990000000 1.0
C      1  0.5313260000000  0.4957990000000  0.5954670000000 1.0
C      1  0.4686740000000  0.5042010000000  0.4045330000000 1.0
C      1  0.5336860000000  0.5875370000000  0.5329410000000 1.0
C      1  0.4663140000000  0.4124630000000  0.4670590000000 1.0
C      1  0.4600080000000  0.4176390000000  0.5247150000000 1.0
C      1  0.5399920000000  0.5823610000000  0.4752850000000 1.0
C      1  0.5159130000000  0.5116890000000  0.5164380000000 1.0
C      1  0.4840870000000  0.4883110000000  0.4835620000000 1.0
C      1  0.5340890000000  0.4812660000000  0.5449260000000 1.0
C      1  0.4659110000000  0.5187340000000  0.4550740000000 1.0
C      1  0.5334550000000  0.4020420000000  0.4968810000000 1.0
C      1  0.4665450000000  0.5979580000000  0.5031190000000 1.0
C      1  0.4534690000000  0.5467530000000  0.5805500000000 1.0
C      1  0.5465310000000  0.4532470000000  0.4194500000000 1.0
C      1  0.5384420000000  0.4863380000000  0.4444070000000 1.0
C      1  0.4615580000000  0.5136620000000  0.5555930000000 1.0
C      1  0.4905810000000  0.4666460000000  0.4055620000000 1.0
C      1  0.5094190000000  0.5333540000000  0.5944380000000 1.0
C      1  0.4081740000000  0.5492550000000  0.4649420000000 1.0
C      1  0.5918260000000  0.4507450000000  0.5350580000000 1.0
C      1  0.4909770000000  0.4725880000000  0.5583650000000 1.0
C      1  0.5090230000000  0.5274120000000  0.4416350000000 1.0
C      1  0.5441240000000  0.4031200000000  0.4700320000000 1.0
C      1  0.4558760000000  0.5968800000000  0.5299680000000 1.0
C      1  0.5122160000000  0.5902970000000  0.4767680000000 1.0
C      1  0.4877840000000  0.4097030000000  0.5232320000000 1.0
C      1  0.5918710000000  0.4428380000000  0.5082620000000 1.0
C      1  0.4081290000000  0.5571620000000  0.4917380000000 1.0
C      1  0.5867960000000  0.4834720000000  0.4442750000000 1.0
C      1  0.4132040000000  0.5165280000000  0.5557250000000 1.0
C      1  0.4622710000000  0.5127540000000  0.6163620000000 1.0
C      1  0.5377290000000  0.4872460000000  0.3836380000000 1.0
C      1  0.5117830000000  0.6044300000000  0.5269350000000 1.0
C      1  0.4882170000000  0.3955700000000  0.4730650000000 1.0
C      1  0.4359240000000  0.4716750000000  0.5647340000000 1.0
C      1  0.5640760000000  0.5283250000000  0.4352660000000 1.0
C      1  0.5356000000000  0.5195510000000  0.4732400000000 1.0
C      1  0.4644000000000  0.4804490000000  0.5267600000000 1.0
C      1  0.5594700000000  0.4709920000000  0.5626240000000 1.0
C      1  0.4405300000000  0.5290080000000  0.4373760000000 1.0
C      1  0.4500060000000  0.5740780000000  0.4584150000000 1.0
C      1  0.5499940000000  0.4259220000000  0.5415850000000 1.0
C      1  0.5598910000000  0.5135260000000  0.4846070000000 1.0
C      1  0.4401090000000  0.4864740000000  0.5153930000000 1.0
C      1  0.5092020000000  0.4959650000000  0.5611750000000 1.0
C      1  0.4907980000000  0.5040350000000  0.4388250000000 1.0
C      1  0.4408440000000  0.5367320000000  0.5104750000000 1.0
C      1  0.5591560000000  0.4632680000000  0.4895250000000 1.0
C      1  0.3988280000000  0.5052400000000  0.4887720000000 1.0
C      1  0.6011720000000  0.4947600000000  0.5112280000000 1.0
C      1  0.4590280000000  0.5304620000000  0.4138720000000 1.0
C      1  0.5409720000000  0.4695380000000  0.5861280000000 1.0
C      1  0.5663400000000  0.4204310000000  0.4724230000000 1.0
C      1  0.4336600000000  0.5795690000000  0.5275770000000 1.0
C      1  0.4800050000000  0.4552720000000  0.4451920000000 1.0
C      1  0.5199950000000  0.5447280000000  0.5548080000000 1.0
C      1  0.4961270000000  0.5926810000000  0.5024790000000 1.0
C      1  0.5038730000000  0.4073190000000  0.4975210000000 1.0
C      1  0.5441320000000  0.4647310000000  0.3941540000000 1.0
C      1  0.4558680000000  0.5352690000000  0.6058460000000 1.0
C      1  0.5618710000000  0.4673770000000  0.4414400000000 1.0
C      1  0.4381290000000  0.5326230000000  0.5585600000000 1.0
C      1  0.4665040000000  0.5251530000000  0.5038210000000 1.0
C      1  0.5334960000000  0.4748470000000  0.4961790000000 1.0
C      1  0.5221940000000  0.4477730000000  0.5798340000000 1.0
C      1  0.4778060000000  0.5522270000000  0.4201660000000 1.0
C      1  0.4785300000000  0.5249970000000  0.5357100000000 1.0
C      1  0.5214700000000  0.4750030000000  0.4642900000000 1.0
C      1  0.4134520000000  0.4880260000000  0.5582720000000 1.0
C      1  0.5865480000000  0.5119740000000  0.4417280000000 1.0
C      1  0.5765430000000  0.5618540000000  0.5375510000000 1.0
C      1  0.4234570000000  0.4381460000000  0.4624490000000 1.0
C      1  0.4113210000000  0.4798810000000  0.4773640000000 1.0
C      1  0.5886790000000  0.5201190000000  0.5226360000000 1.0
C      1  0.4106360000000  0.4492680000000  0.5337370000000 1.0
C      1  0.5893640000000  0.5507320000000  0.4662630000000 1.0
C      1  0.5274100000000  0.4085010000000  0.4455220000000 1.0
C      1  0.4725900000000  0.5914990000000  0.5544780000000 1.0
C      1  0.4939540000000  0.4809930000000  0.4576240000000 1.0
C      1  0.5060460000000  0.5190070000000  0.5423760000000 1.0
C      1  0.5209730000000  0.5707800000000  0.4344940000000 1.0
C      1  0.4790270000000  0.4292200000000  0.5655060000000 1.0
C      1  0.4630600000000  0.4753660000000  0.4074850000000 1.0
C      1  0.5369400000000  0.5246340000000  0.5925150000000 1.0
C      1  0.4817400000000  0.4691900000000  0.5053320000000 1.0
C      1  0.5182600000000  0.5308100000000  0.4946680000000 1.0
C      1  0.4004900000000  0.5217830000000  0.4624680000000 1.0
C      1  0.5995100000000  0.4782170000000  0.5375320000000 1.0
C      1  0.4543120000000  0.4285850000000  0.5507330000000 1.0
C      1  0.5456880000000  0.5714150000000  0.4492670000000 1.0
C      1  0.5058900000000  0.4366120000000  0.4840410000000 1.0
C      1  0.4941100000000  0.5633880000000  0.5159590000000 1.0
C      1  0.6014270000000  0.5242900000000  0.4632490000000 1.0
C      1  0.3985730000000  0.4757100000000  0.5367510000000 1.0
C      1  0.4311940000000  0.5545990000000  0.4496770000000 1.0
C      1  0.5688060000000  0.4454010000000  0.5503230000000 1.0
C      1  0.4762770000000  0.5668770000000  0.4465980000000 1.0
C      1  0.5237230000000  0.4331230000000  0.5534020000000 1.0
C      1  0.4462880000000  0.5879280000000  0.4840910000000 1.0
C      1  0.5537120000000  0.4120720000000  0.5159090000000 1.0
C      1  0.5839760000000  0.5607010000000  0.4916520000000 1.0
C      1  0.4160240000000  0.4392990000000  0.5083480000000 1.0
C      1  0.4609460000000  0.5047820000000  0.4817890000000 1.0
C      1  0.5390540000000  0.4952180000000  0.5182110000000 1.0
C      1  0.6098560000000  0.5038830000000  0.4814800000000 1.0
C      1  0.3901440000000  0.4961170000000  0.5185200000000 1.0
C      1  0.4980010000000  0.4462180000000  0.4236600000000 1.0
C      1  0.5019990000000  0.5537820000000  0.5763400000000 1.0
END
