TITL C-22461-4624-5 -48.894512693539 125000 -279.667967306764 0 0 42 (C1) n - 1
REM
REM in /rds/project/t2_vol4/rds-t2-cs072/BORA/CARBON/from-Arr/AIRSS/Generating-Clusters/GAP-ML-2020/Higher-Symm/SD-CG/HFTN-CG
REM
REM
REM
REM
REM
REM ./C.cell (b20cbc046b6831c77cfcea5457e17084)
REM AIRSS Version 0.9.1 bugfix July 2018 build 013d7b7c2542+ Fri, 06 Jul 2018 19:26:36 +0100
REM compiler GCC version 9.3.0
REM options -cpp -mtune=generic -march=x86-64 -g -O0
REM seed -2039075895 -1167434877 458355348 -1517712492 269206578 -749970751 -1325369419 1748241942 -1955611977 -1830451709 -1215252394 1669481616 1655181655 1644688374 -34367279 611740358 1687780712 527016249 -1087501694 -1153003033 1257913066 -1615902183 -2111258711 -914560300 849656449 576583529 911328982 -625296771 -1923944068 1937670488 -1057675853 -732020186 1578153735
REM
CELL 1.54180   50.00000   50.00000   50.00000   90.00000   90.00000   90.00000
LATT -1
SFAC C  
C      1  0.5465270000000  0.4558130000000  0.4720960000000 1.0
C      1  0.4892710000000  0.4630610000000  0.4468580000000 1.0
C      1  0.4501730000000  0.4605950000000  0.4964620000000 1.0
C      1  0.4828150000000  0.4589540000000  0.5472450000000 1.0
C      1  0.5427360000000  0.4603760000000  0.5327480000000 1.0
C      1  0.5151910000000  0.5104700000000  0.4555810000000 1.0
C      1  0.4592840000000  0.5098600000000  0.4692250000000 1.0
C      1  0.4485770000000  0.5203590000000  0.5270270000000 1.0
C      1  0.5198030000000  0.5112740000000  0.5448600000000 1.0
C      1  0.5521860000000  0.5027370000000  0.4980850000000 1.0
C      1  0.5461130000000  0.5293270000000  0.4840880000000 1.0
C      1  0.4978660000000  0.5342420000000  0.4643260000000 1.0
C      1  0.4323510000000  0.5108280000000  0.4736800000000 1.0
C      1  0.4740650000000  0.5235860000000  0.5351180000000 1.0
C      1  0.5333460000000  0.5312830000000  0.5278480000000 1.0
C      1  0.4772210000000  0.4698910000000  0.5700650000000 1.0
C      1  0.5569650000000  0.4704870000000  0.5519270000000 1.0
C      1  0.5675720000000  0.4669740000000  0.4614630000000 1.0
C      1  0.4873290000000  0.4775830000000  0.4253630000000 1.0
C      1  0.4257980000000  0.4676990000000  0.4972650000000 1.0
C      1  0.5565500000000  0.5132740000000  0.5256250000000 1.0
C      1  0.5439300000000  0.5143600000000  0.4595950000000 1.0
C      1  0.4764190000000  0.5219110000000  0.4494220000000 1.0
C      1  0.4253670000000  0.5119880000000  0.5200850000000 1.0
C      1  0.4913460000000  0.5153900000000  0.5590590000000 1.0
C      1  0.4872030000000  0.5171200000000  0.5096510000000 1.0
C      1  0.5070700000000  0.4988190000000  0.5220900000000 1.0
C      1  0.5246670000000  0.4904850000000  0.5004350000000 1.0
C      1  0.5074250000000  0.4913790000000  0.4778190000000 1.0
C      1  0.4792150000000  0.4978690000000  0.4881760000000 1.0
C      1  0.4949750000000  0.4692710000000  0.5218470000000 1.0
C      1  0.5235280000000  0.4619810000000  0.5119520000000 1.0
C      1  0.5238170000000  0.4489210000000  0.4850570000000 1.0
C      1  0.4985360000000  0.4616860000000  0.4734530000000 1.0
C      1  0.4781080000000  0.4690690000000  0.4972700000000 1.0
C      1  0.4824070000000  0.4959730000000  0.5757620000000 1.0
C      1  0.5466490000000  0.4951950000000  0.5455680000000 1.0
C      1  0.5588660000000  0.4913870000000  0.4701990000000 1.0
C      1  0.4933340000000  0.5021630000000  0.4358470000000 1.0
C      1  0.4245450000000  0.4965790000000  0.4964210000000 1.0
C      1  0.5005760000000  0.5375790000000  0.4921880000000 1.0
C      1  0.5268070000000  0.5401530000000  0.5013460000000 1.0
END
