TITL C-22174-9772-4 21.5255130466855 125000 -870.781342346085 0 0 120 (D6h) n - 1
REM
REM in /rds/project/t2_vol4/rds-t2-cs072/BORA/CARBON/from-Arr/AIRSS/Generating-Clusters/GAP-ML-2020/Higher-Symm/SD-CG/HFTN-CG
REM
REM
REM
REM
REM
REM ./C.cell (b20cbc046b6831c77cfcea5457e17084)
REM AIRSS Version 0.9.1 bugfix July 2018 build 013d7b7c2542+ Fri, 06 Jul 2018 19:26:36 +0100
REM compiler GCC version 9.3.0
REM options -cpp -mtune=generic -march=x86-64 -g -O0
REM seed 1019605750 2068215066 1237720584 -2124085015 -1970895742 -408290040 1346803201 384587415 -544996087 1377037984 -1589909489 99173855 122193005 970983074 -1860499100 -1645818733 -731524568 1033697525 -356989507 -1171126421 -387459359 -1001947571 440632085 -1600958984 -1722334516 -1371538791 -1497066360 -1077868027 1239232837 2016116366 1265614680 -240448058 1771340989
REM
CELL 1.54180   50.00000   50.00000   50.00000   90.00000   90.00000   90.00000
LATT -1
SFAC C  
C      1  0.4900320000000  0.4712660000000  0.4072120000000 1.0
C      1  0.5751560000000  0.4712740000000  0.4449720000000 1.0
C      1  0.5849250000000  0.4712890000000  0.5376130000000 1.0
C      1  0.5099700000000  0.4712510000000  0.5927830000000 1.0
C      1  0.4248460000000  0.4712600000000  0.5550230000000 1.0
C      1  0.4150770000000  0.4712900000000  0.4623820000000 1.0
C      1  0.4900300000000  0.5287490000000  0.4072170000000 1.0
C      1  0.5751540000000  0.5287400000000  0.4449770000000 1.0
C      1  0.5849230000000  0.5287100000000  0.5376170000000 1.0
C      1  0.5099680000000  0.5287340000000  0.5927880000000 1.0
C      1  0.4248440000000  0.5287260000000  0.5550280000000 1.0
C      1  0.4150750000000  0.5287110000000  0.4623870000000 1.0
C      1  0.5527060000000  0.5560110000000  0.4799840000000 1.0
C      1  0.5435660000000  0.5560060000000  0.5357920000000 1.0
C      1  0.4908490000000  0.5560290000000  0.5558680000000 1.0
C      1  0.4472900000000  0.5560040000000  0.5200250000000 1.0
C      1  0.4564300000000  0.5560090000000  0.4642170000000 1.0
C      1  0.5091470000000  0.5560390000000  0.4441410000000 1.0
C      1  0.5527100000000  0.4439960000000  0.4799750000000 1.0
C      1  0.5435700000000  0.4439910000000  0.5357830000000 1.0
C      1  0.4908530000000  0.4439610000000  0.5558590000000 1.0
C      1  0.4472940000000  0.4439890000000  0.5200160000000 1.0
C      1  0.4564340000000  0.4439940000000  0.4642080000000 1.0
C      1  0.5091510000000  0.4439710000000  0.4441320000000 1.0
C      1  0.5536780000000  0.4712630000000  0.5761220000000 1.0
C      1  0.4609560000000  0.4712500000000  0.5847560000000 1.0
C      1  0.4075150000000  0.4712850000000  0.5085580000000 1.0
C      1  0.4463240000000  0.4712720000000  0.4238730000000 1.0
C      1  0.5390460000000  0.4712670000000  0.4152390000000 1.0
C      1  0.5924870000000  0.4712930000000  0.4914370000000 1.0
C      1  0.5536760000000  0.5287280000000  0.5761270000000 1.0
C      1  0.4609540000000  0.5287330000000  0.5847610000000 1.0
C      1  0.4075130000000  0.5287070000000  0.5085630000000 1.0
C      1  0.4463220000000  0.5287370000000  0.4238780000000 1.0
C      1  0.5390440000000  0.5287500000000  0.4152440000000 1.0
C      1  0.5924850000000  0.5287150000000  0.4914420000000 1.0
C      1  0.5398890000000  0.5522660000000  0.5657000000000 1.0
C      1  0.4631090000000  0.5522990000000  0.5675600000000 1.0
C      1  0.4233800000000  0.5522930000000  0.5018260000000 1.0
C      1  0.4601070000000  0.5522750000000  0.4343090000000 1.0
C      1  0.5368870000000  0.5523130000000  0.4324480000000 1.0
C      1  0.5766160000000  0.5522990000000  0.4981830000000 1.0
C      1  0.5398930000000  0.4477250000000  0.5656910000000 1.0
C      1  0.4631130000000  0.4476870000000  0.5675520000000 1.0
C      1  0.4233840000000  0.4477010000000  0.5018170000000 1.0
C      1  0.4601110000000  0.4477340000000  0.4343000000000 1.0
C      1  0.5368910000000  0.4477010000000  0.4324400000000 1.0
C      1  0.5766200000000  0.4477070000000  0.4981740000000 1.0
C      1  0.5732300000000  0.4852560000000  0.5600750000000 1.0
C      1  0.4846360000000  0.4852410000000  0.5938150000000 1.0
C      1  0.4114330000000  0.4852530000000  0.5335780000000 1.0
C      1  0.4267710000000  0.4852610000000  0.4399220000000 1.0
C      1  0.5153650000000  0.4852580000000  0.4061820000000 1.0
C      1  0.5885680000000  0.4852640000000  0.4664200000000 1.0
C      1  0.5732290000000  0.5147390000000  0.5600780000000 1.0
C      1  0.4846350000000  0.5147420000000  0.5938180000000 1.0
C      1  0.4114320000000  0.5147360000000  0.5335800000000 1.0
C      1  0.4267700000000  0.5147440000000  0.4399250000000 1.0
C      1  0.5153640000000  0.5147590000000  0.4061850000000 1.0
C      1  0.5885670000000  0.5147470000000  0.4664220000000 1.0
C      1  0.5627240000000  0.4857140000000  0.4232630000000 1.0
C      1  0.5973050000000  0.4857230000000  0.5159340000000 1.0
C      1  0.5349700000000  0.4856990000000  0.5927340000000 1.0
C      1  0.4372760000000  0.4856970000000  0.5767340000000 1.0
C      1  0.4026960000000  0.4857190000000  0.4840630000000 1.0
C      1  0.4650300000000  0.4857120000000  0.4072640000000 1.0
C      1  0.5627230000000  0.5143030000000  0.4232660000000 1.0
C      1  0.5973040000000  0.5142810000000  0.5159370000000 1.0
C      1  0.5349690000000  0.5142880000000  0.5927360000000 1.0
C      1  0.4372750000000  0.5142860000000  0.5767370000000 1.0
C      1  0.4026950000000  0.5142770000000  0.4840660000000 1.0
C      1  0.4650300000000  0.5143010000000  0.4072660000000 1.0
C      1  0.4712630000000  0.5136380000000  0.5353730000000 1.0
C      1  0.4564680000000  0.5136060000000  0.4928720000000 1.0
C      1  0.4840480000000  0.5136440000000  0.4573110000000 1.0
C      1  0.5287360000000  0.5136450000000  0.4646290000000 1.0
C      1  0.5435310000000  0.5136070000000  0.5071300000000 1.0
C      1  0.5159510000000  0.5136380000000  0.5426910000000 1.0
C      1  0.4712640000000  0.4863550000000  0.5353710000000 1.0
C      1  0.4564690000000  0.4863930000000  0.4928700000000 1.0
C      1  0.4840480000000  0.4863620000000  0.4573090000000 1.0
C      1  0.5287370000000  0.4863620000000  0.4646270000000 1.0
C      1  0.5435320000000  0.4863940000000  0.5071280000000 1.0
C      1  0.5159520000000  0.4863550000000  0.5426890000000 1.0
C      1  0.4642160000000  0.4731250000000  0.4704550000000 1.0
C      1  0.5075700000000  0.4731000000000  0.4537810000000 1.0
C      1  0.5433400000000  0.4731260000000  0.4834130000000 1.0
C      1  0.5357860000000  0.4731220000000  0.5295410000000 1.0
C      1  0.4924320000000  0.4730920000000  0.5462140000000 1.0
C      1  0.4566620000000  0.4731210000000  0.5165830000000 1.0
C      1  0.4642140000000  0.5268780000000  0.4704590000000 1.0
C      1  0.5075680000000  0.5269080000000  0.4537860000000 1.0
C      1  0.5433380000000  0.5268790000000  0.4834180000000 1.0
C      1  0.5357840000000  0.5268750000000  0.5295450000000 1.0
C      1  0.4924300000000  0.5269000000000  0.5462190000000 1.0
C      1  0.4566600000000  0.5268730000000  0.5165870000000 1.0
C      1  0.4865890000000  0.4477000000000  0.4242020000000 1.0
C      1  0.5587650000000  0.4477360000000  0.4504570000000 1.0
C      1  0.5720360000000  0.4477040000000  0.5261620000000 1.0
C      1  0.5134140000000  0.4476880000000  0.5757890000000 1.0
C      1  0.4412390000000  0.4477230000000  0.5495350000000 1.0
C      1  0.4279670000000  0.4477040000000  0.4738290000000 1.0
C      1  0.4865860000000  0.5523120000000  0.4242110000000 1.0
C      1  0.5587610000000  0.5522770000000  0.4504650000000 1.0
C      1  0.5720330000000  0.5522960000000  0.5261710000000 1.0
C      1  0.5134110000000  0.5523000000000  0.5757980000000 1.0
C      1  0.4412350000000  0.5522640000000  0.5495430000000 1.0
C      1  0.4279640000000  0.5522960000000  0.4738380000000 1.0
C      1  0.4724500000000  0.4288500000000  0.5104480000000 1.0
C      1  0.4772230000000  0.4288530000000  0.4812980000000 1.0
C      1  0.5047790000000  0.4288440000000  0.4708280000000 1.0
C      1  0.5275550000000  0.4288540000000  0.4895410000000 1.0
C      1  0.5227810000000  0.4288510000000  0.5186900000000 1.0
C      1  0.4952260000000  0.4288390000000  0.5291600000000 1.0
C      1  0.4724450000000  0.5711460000000  0.5104590000000 1.0
C      1  0.4772190000000  0.5711490000000  0.4813100000000 1.0
C      1  0.5047740000000  0.5711610000000  0.4708400000000 1.0
C      1  0.5275500000000  0.5711500000000  0.4895520000000 1.0
C      1  0.5227770000000  0.5711470000000  0.5187020000000 1.0
C      1  0.4952210000000  0.5711560000000  0.5291720000000 1.0
END
