TITL C-22193-9798-3 -283.202935371591 125000 -821.373556672409 0 0 117 (C2) n - 1
REM
REM in /rds/project/t2_vol4/rds-t2-cs072/BORA/CARBON/from-Arr/AIRSS/Generating-Clusters/GAP-ML-2020/Higher-Symm/SD-CG/HFTN-CG
REM
REM
REM
REM
REM
REM ./C.cell (b20cbc046b6831c77cfcea5457e17084)
REM AIRSS Version 0.9.1 bugfix July 2018 build 013d7b7c2542+ Fri, 06 Jul 2018 19:26:36 +0100
REM compiler GCC version 9.3.0
REM options -cpp -mtune=generic -march=x86-64 -g -O0
REM seed -721829360 -1251941424 184477587 373393086 -1863928135 -159087236 767017431 669372053 -1067783119 220183290 -317011898 1242620363 -957216959 -1834159464 -2052549467 -2036827440 -1264977590 509830283 1713410729 -1944768570 -350921160 -58610277 891639580 1995080901 -228076181 1745942739 -1896753302 -824664811 1721928261 193276623 -196427331 -1445987686 -602081028
REM
CELL 1.54180   50.00000   50.00000   50.00000   90.00000   90.00000   90.00000
LATT -1
SFAC C  
C      1  0.5875640000000  0.4783270000000  0.4935380000000 1.0
C      1  0.4126870000000  0.4788100000000  0.5063760000000 1.0
C      1  0.4821340000000  0.5276870000000  0.5224130000000 1.0
C      1  0.5184500000000  0.5279330000000  0.4783240000000 1.0
C      1  0.4864770000000  0.5924670000000  0.5048410000000 1.0
C      1  0.5145430000000  0.5924380000000  0.4969780000000 1.0
C      1  0.5717650000000  0.4469840000000  0.4638550000000 1.0
C      1  0.4282720000000  0.4468700000000  0.5355300000000 1.0
C      1  0.4796740000000  0.5241490000000  0.4206250000000 1.0
C      1  0.5208800000000  0.5226770000000  0.5800390000000 1.0
C      1  0.4762130000000  0.5023750000000  0.5370730000000 1.0
C      1  0.5242000000000  0.5028300000000  0.4632430000000 1.0
C      1  0.5045540000000  0.4666240000000  0.4334010000000 1.0
C      1  0.4956120000000  0.4655430000000  0.5663030000000 1.0
C      1  0.5241650000000  0.5356950000000  0.4146010000000 1.0
C      1  0.4764670000000  0.5344210000000  0.5862570000000 1.0
C      1  0.5604620000000  0.5364420000000  0.4502060000000 1.0
C      1  0.4401790000000  0.5360080000000  0.5506720000000 1.0
C      1  0.5206220000000  0.5080530000000  0.4054400000000 1.0
C      1  0.4798230000000  0.5066060000000  0.5949550000000 1.0
C      1  0.5036660000000  0.5647920000000  0.5576210000000 1.0
C      1  0.4971700000000  0.5657660000000  0.4437430000000 1.0
C      1  0.5251170000000  0.4057540000000  0.4984530000000 1.0
C      1  0.4746420000000  0.4059100000000  0.5002440000000 1.0
C      1  0.4612380000000  0.5514130000000  0.5326710000000 1.0
C      1  0.5395060000000  0.5516860000000  0.4684630000000 1.0
C      1  0.5212190000000  0.5972030000000  0.4702240000000 1.0
C      1  0.4798320000000  0.5968290000000  0.5316700000000 1.0
C      1  0.4722510000000  0.4335800000000  0.5560770000000 1.0
C      1  0.5276980000000  0.4343370000000  0.4430910000000 1.0
C      1  0.4263880000000  0.5249420000000  0.5101710000000 1.0
C      1  0.5741740000000  0.5246070000000  0.4905150000000 1.0
C      1  0.5111890000000  0.4874580000000  0.5121760000000 1.0
C      1  0.4891230000000  0.4877360000000  0.4878890000000 1.0
C      1  0.4725610000000  0.4570290000000  0.5167010000000 1.0
C      1  0.5275440000000  0.4571260000000  0.4828530000000 1.0
C      1  0.4286800000000  0.5434710000000  0.4680920000000 1.0
C      1  0.5720060000000  0.5424450000000  0.5328980000000 1.0
C      1  0.5662620000000  0.4714700000000  0.5387500000000 1.0
C      1  0.4339450000000  0.4725670000000  0.4610540000000 1.0
C      1  0.5178740000000  0.5125660000000  0.5508990000000 1.0
C      1  0.4826100000000  0.5135320000000  0.4495910000000 1.0
C      1  0.4390770000000  0.4817440000000  0.4353340000000 1.0
C      1  0.5611910000000  0.4802500000000  0.5646200000000 1.0
C      1  0.5219820000000  0.5741970000000  0.4558510000000 1.0
C      1  0.4789120000000  0.5735920000000  0.5456570000000 1.0
C      1  0.5528390000000  0.5033420000000  0.5002400000000 1.0
C      1  0.4475800000000  0.5036990000000  0.5000910000000 1.0
C      1  0.4971790000000  0.4410440000000  0.4477770000000 1.0
C      1  0.5028150000000  0.4401570000000  0.5515020000000 1.0
C      1  0.4591650000000  0.4846670000000  0.5228470000000 1.0
C      1  0.5411270000000  0.4847720000000  0.4771700000000 1.0
C      1  0.4673380000000  0.4568040000000  0.5714960000000 1.0
C      1  0.5327690000000  0.4577820000000  0.4280620000000 1.0
C      1  0.5502250000000  0.5284940000000  0.4253570000000 1.0
C      1  0.4503600000000  0.5275770000000  0.5753840000000 1.0
C      1  0.5759110000000  0.4701850000000  0.4478330000000 1.0
C      1  0.4242820000000  0.4698270000000  0.5519380000000 1.0
C      1  0.5074870000000  0.5005060000000  0.5952740000000 1.0
C      1  0.4929170000000  0.5021460000000  0.4050200000000 1.0
C      1  0.5322740000000  0.5756110000000  0.5115620000000 1.0
C      1  0.4686340000000  0.5760070000000  0.4899780000000 1.0
C      1  0.5528510000000  0.5553830000000  0.5503240000000 1.0
C      1  0.4479220000000  0.5565690000000  0.4508840000000 1.0
C      1  0.5788330000000  0.5191300000000  0.4639350000000 1.0
C      1  0.4216910000000  0.5190530000000  0.5366560000000 1.0
C      1  0.4668120000000  0.4452570000000  0.4438380000000 1.0
C      1  0.5332100000000  0.4440990000000  0.5555090000000 1.0
C      1  0.4502030000000  0.5299170000000  0.4219290000000 1.0
C      1  0.5503880000000  0.5282670000000  0.5788290000000 1.0
C      1  0.5774390000000  0.5153280000000  0.5395800000000 1.0
C      1  0.4230640000000  0.5165070000000  0.4609580000000 1.0
C      1  0.5259600000000  0.5601450000000  0.5371120000000 1.0
C      1  0.4748450000000  0.5609280000000  0.4641720000000 1.0
C      1  0.5455500000000  0.4346900000000  0.4662950000000 1.0
C      1  0.4544030000000  0.4344420000000  0.5328830000000 1.0
C      1  0.4260590000000  0.4928950000000  0.4809620000000 1.0
C      1  0.5742850000000  0.4920750000000  0.5191840000000 1.0
C      1  0.5015000000000  0.5454420000000  0.5780190000000 1.0
C      1  0.4992060000000  0.5467460000000  0.4230240000000 1.0
C      1  0.4523800000000  0.4180990000000  0.5080710000000 1.0
C      1  0.5474620000000  0.4179220000000  0.4908300000000 1.0
C      1  0.5860200000000  0.4903400000000  0.4660150000000 1.0
C      1  0.4143110000000  0.4903500000000  0.5340960000000 1.0
C      1  0.4991470000000  0.4912130000000  0.4573370000000 1.0
C      1  0.5011870000000  0.4904920000000  0.5427820000000 1.0
C      1  0.5233820000000  0.4597820000000  0.5118600000000 1.0
C      1  0.4767430000000  0.4601410000000  0.4877420000000 1.0
C      1  0.5576690000000  0.5549620000000  0.5776160000000 1.0
C      1  0.4431030000000  0.5566370000000  0.4235890000000 1.0
C      1  0.4608270000000  0.4662030000000  0.4250440000000 1.0
C      1  0.5393360000000  0.4646870000000  0.5746500000000 1.0
C      1  0.4535880000000  0.4992220000000  0.5842220000000 1.0
C      1  0.5468060000000  0.5003140000000  0.4160460000000 1.0
C      1  0.5253560000000  0.5152690000000  0.5062300000000 1.0
C      1  0.4751440000000  0.5155380000000  0.4943000000000 1.0
C      1  0.4995990000000  0.4436410000000  0.4771870000000 1.0
C      1  0.5004150000000  0.4432620000000  0.5221390000000 1.0
C      1  0.5638270000000  0.4351370000000  0.5082020000000 1.0
C      1  0.4361320000000  0.4357120000000  0.4909900000000 1.0
C      1  0.5667740000000  0.5081870000000  0.5648920000000 1.0
C      1  0.4336820000000  0.5097180000000  0.4355290000000 1.0
C      1  0.4517470000000  0.4510570000000  0.4696330000000 1.0
C      1  0.5483150000000  0.4502270000000  0.5298130000000 1.0
C      1  0.5145420000000  0.5313200000000  0.5290340000000 1.0
C      1  0.4860670000000  0.5318950000000  0.4717670000000 1.0
C      1  0.5714760000000  0.5479600000000  0.5052070000000 1.0
C      1  0.4292450000000  0.5485190000000  0.4958720000000 1.0
C      1  0.4850340000000  0.4757100000000  0.4132740000000 1.0
C      1  0.5151920000000  0.4741590000000  0.5865790000000 1.0
C      1  0.5797600000000  0.4513340000000  0.4911410000000 1.0
C      1  0.4203080000000  0.4517290000000  0.5083210000000 1.0
C      1  0.5556360000000  0.4750590000000  0.4268710000000 1.0
C      1  0.4445880000000  0.4742120000000  0.5729770000000 1.0
C      1  0.4496320000000  0.5636030000000  0.5072840000000 1.0
C      1  0.5511920000000  0.5633710000000  0.4940500000000 1.0
C      1  0.4999270000000  0.4199460000000  0.4994670000000 1.0
END
