TITL C-22176-9758-4 -0.0735095435976378 125000 -309.445963354423 0 0 45 (C5v) n - 1
REM
REM in /rds/project/t2_vol4/rds-t2-cs072/BORA/CARBON/from-Arr/AIRSS/Generating-Clusters/GAP-ML-2020/Higher-Symm/SD-CG/HFTN-CG
REM
REM
REM
REM
REM
REM ./C.cell (b20cbc046b6831c77cfcea5457e17084)
REM AIRSS Version 0.9.1 bugfix July 2018 build 013d7b7c2542+ Fri, 06 Jul 2018 19:26:36 +0100
REM compiler GCC version 9.3.0
REM options -cpp -mtune=generic -march=x86-64 -g -O0
REM seed 1314404029 613200198 932154796 -1768114063 2147094352 1441578519 1137516235 1185850565 3723148 1026068765 1506718501 966076393 1005025480 -1019206372 572960838 705872557 1946246461 1442488308 2014893096 -71407846 -853550523 1162418619 -1365953858 -756793544 2102497738 1705927759 -1675858512 -1442518213 633183579 171850086 -1273094713 -293381592 1134140459
REM
CELL 1.54180   50.00000   50.00000   50.00000   90.00000   90.00000   90.00000
LATT -1
SFAC C  
C      1  0.4374390000000  0.5283090000000  0.5148930000000 1.0
C      1  0.4664990000000  0.5282940000000  0.4450970000000 1.0
C      1  0.5418590000000  0.5282900000000  0.4511670000000 1.0
C      1  0.5593740000000  0.5283030000000  0.5247140000000 1.0
C      1  0.4948390000000  0.5283150000000  0.5640980000000 1.0
C      1  0.4374390000000  0.5283030000000  0.4850940000000 1.0
C      1  0.4664990000000  0.5283150000000  0.5548900000000 1.0
C      1  0.5418590000000  0.5283090000000  0.5488210000000 1.0
C      1  0.5593740000000  0.5282940000000  0.4752740000000 1.0
C      1  0.4948390000000  0.5282900000000  0.4358890000000 1.0
C      1  0.4912940000000  0.5006000000000  0.4262760000000 1.0
C      1  0.5674250000000  0.5006040000000  0.4689380000000 1.0
C      1  0.5503770000000  0.5006220000000  0.5545250000000 1.0
C      1  0.4637100000000  0.5006290000000  0.5647600000000 1.0
C      1  0.4271950000000  0.5006160000000  0.4854970000000 1.0
C      1  0.4912940000000  0.5006290000000  0.5737220000000 1.0
C      1  0.5674250000000  0.5006160000000  0.5310610000000 1.0
C      1  0.5503770000000  0.5006000000000  0.4454730000000 1.0
C      1  0.4637100000000  0.5006040000000  0.4352390000000 1.0
C      1  0.4271950000000  0.5006220000000  0.5145010000000 1.0
C      1  0.4733180000000  0.4581390000000  0.4621910000000 1.0
C      1  0.5277190000000  0.4581360000000  0.4629480000000 1.0
C      1  0.5438100000000  0.4581450000000  0.5149200000000 1.0
C      1  0.4993540000000  0.4581540000000  0.5462840000000 1.0
C      1  0.4557870000000  0.4581510000000  0.5136960000000 1.0
C      1  0.4733170000000  0.4581540000000  0.5378240000000 1.0
C      1  0.5277190000000  0.4581510000000  0.5370680000000 1.0
C      1  0.5438100000000  0.4581390000000  0.4850950000000 1.0
C      1  0.4993540000000  0.4581360000000  0.4537310000000 1.0
C      1  0.4557870000000  0.4581450000000  0.4863190000000 1.0
C      1  0.4382360000000  0.4787460000000  0.5273850000000 1.0
C      1  0.4548720000000  0.4787290000000  0.4497250000000 1.0
C      1  0.5338720000000  0.4787230000000  0.4415480000000 1.0
C      1  0.5660600000000  0.4787350000000  0.5141550000000 1.0
C      1  0.5069540000000  0.4787490000000  0.5672050000000 1.0
C      1  0.4382360000000  0.4787350000000  0.4726220000000 1.0
C      1  0.4548720000000  0.4787490000000  0.5502820000000 1.0
C      1  0.5338720000000  0.4787460000000  0.5584590000000 1.0
C      1  0.5660600000000  0.4787290000000  0.4858520000000 1.0
C      1  0.5069540000000  0.4787230000000  0.4328020000000 1.0
C      1  0.4534450000000  0.5388230000000  0.4661660000000 1.0
C      1  0.5575510000000  0.5388230000000  0.4999920000000 1.0
C      1  0.4534450000000  0.5388360000000  0.5338170000000 1.0
C      1  0.5177860000000  0.5388140000000  0.4452600000000 1.0
C      1  0.5177860000000  0.5388360000000  0.5547230000000 1.0
END
