TITL C-22433-4757-3 -169.476200135962 125000 -686.370246652621 0 0 100 (C1) n - 1
REM
REM in /rds/project/t2_vol4/rds-t2-cs072/BORA/CARBON/from-Arr/AIRSS/Generating-Clusters/GAP-ML-2020/Higher-Symm/SD-CG/HFTN-CG
REM
REM
REM
REM
REM
REM ./C.cell (b20cbc046b6831c77cfcea5457e17084)
REM AIRSS Version 0.9.1 bugfix July 2018 build 013d7b7c2542+ Fri, 06 Jul 2018 19:26:36 +0100
REM compiler GCC version 9.3.0
REM options -cpp -mtune=generic -march=x86-64 -g -O0
REM seed 925524270 -1116110860 2049793948 -478492656 -777918614 -1753609849 -1169255964 658884872 -1308712693 -208849782 -1117702177 -169787768 -12149876 957716146 566586451 -1917269443 1476188368 1421115687 -857110538 1387749227 1253102337 1438704547 -276354552 -1057244653 26729499 1906062519 -899350596 568720780 535316409 -93704442 1952563001 -1241712239 -70186879
REM
CELL 1.54180   50.00000   50.00000   50.00000   90.00000   90.00000   90.00000
LATT -1
SFAC C  
C      1  0.4310220000000  0.4508330000000  0.4663620000000 1.0
C      1  0.4524610000000  0.4755320000000  0.4282770000000 1.0
C      1  0.4725900000000  0.4324470000000  0.4433010000000 1.0
C      1  0.4355780000000  0.5478180000000  0.5276680000000 1.0
C      1  0.5703240000000  0.4550540000000  0.5293240000000 1.0
C      1  0.5698330000000  0.5492840000000  0.4749240000000 1.0
C      1  0.4562020000000  0.5281960000000  0.5668590000000 1.0
C      1  0.5514000000000  0.4766340000000  0.5694450000000 1.0
C      1  0.5466730000000  0.5278270000000  0.4356240000000 1.0
C      1  0.4764650000000  0.5704170000000  0.5501820000000 1.0
C      1  0.5306050000000  0.4340420000000  0.5500610000000 1.0
C      1  0.5289820000000  0.5695610000000  0.4544520000000 1.0
C      1  0.4307430000000  0.4734970000000  0.4479700000000 1.0
C      1  0.4485390000000  0.4279430000000  0.4587670000000 1.0
C      1  0.4740420000000  0.4556910000000  0.4270980000000 1.0
C      1  0.4352090000000  0.5265990000000  0.5472900000000 1.0
C      1  0.5677780000000  0.5280450000000  0.4554390000000 1.0
C      1  0.5716170000000  0.4761000000000  0.5495080000000 1.0
C      1  0.4558920000000  0.5692030000000  0.5295930000000 1.0
C      1  0.5504610000000  0.5702820000000  0.4745490000000 1.0
C      1  0.5507130000000  0.4339190000000  0.5287290000000 1.0
C      1  0.4761580000000  0.5495360000000  0.5694810000000 1.0
C      1  0.5271380000000  0.5489740000000  0.4336050000000 1.0
C      1  0.5304910000000  0.4567400000000  0.5677050000000 1.0
C      1  0.5042870000000  0.4678710000000  0.5645100000000 1.0
C      1  0.4667820000000  0.5697520000000  0.5029270000000 1.0
C      1  0.5694480000000  0.5012430000000  0.4669710000000 1.0
C      1  0.5006450000000  0.5405800000000  0.4255390000000 1.0
C      1  0.5009380000000  0.4662240000000  0.4297660000000 1.0
C      1  0.5036980000000  0.5412620000000  0.5737350000000 1.0
C      1  0.4531560000000  0.4120240000000  0.4814870000000 1.0
C      1  0.5431120000000  0.5756430000000  0.5021260000000 1.0
C      1  0.5379610000000  0.4252350000000  0.5037890000000 1.0
C      1  0.5753760000000  0.5032730000000  0.5398600000000 1.0
C      1  0.4272100000000  0.4989960000000  0.5379660000000 1.0
C      1  0.4265400000000  0.5000980000000  0.4597870000000 1.0
C      1  0.5024400000000  0.5711120000000  0.4654150000000 1.0
C      1  0.4676140000000  0.5021200000000  0.5633640000000 1.0
C      1  0.5674580000000  0.4649850000000  0.5030220000000 1.0
C      1  0.5053870000000  0.4243720000000  0.5394770000000 1.0
C      1  0.4973010000000  0.4303220000000  0.4599520000000 1.0
C      1  0.5041710000000  0.5760400000000  0.5415980000000 1.0
C      1  0.4590670000000  0.5023650000000  0.4251060000000 1.0
C      1  0.5419160000000  0.5036900000000  0.5734830000000 1.0
C      1  0.5355790000000  0.5014090000000  0.4350110000000 1.0
C      1  0.5751310000000  0.5407660000000  0.5018840000000 1.0
C      1  0.4321790000000  0.5378830000000  0.5005080000000 1.0
C      1  0.4267960000000  0.4555530000000  0.4959530000000 1.0
C      1  0.5072750000000  0.4867380000000  0.5398490000000 1.0
C      1  0.4869680000000  0.5463750000000  0.5061010000000 1.0
C      1  0.5445740000000  0.5033130000000  0.4839960000000 1.0
C      1  0.4893700000000  0.5240720000000  0.4466920000000 1.0
C      1  0.4971810000000  0.4799690000000  0.4572760000000 1.0
C      1  0.5071060000000  0.5282350000000  0.5474670000000 1.0
C      1  0.4627210000000  0.4242230000000  0.5026480000000 1.0
C      1  0.5283530000000  0.5499390000000  0.5050630000000 1.0
C      1  0.5009120000000  0.4555310000000  0.5026500000000 1.0
C      1  0.5495080000000  0.5071050000000  0.5260820000000 1.0
C      1  0.4383910000000  0.4941040000000  0.5139610000000 1.0
C      1  0.4524240000000  0.4975380000000  0.4742720000000 1.0
C      1  0.5069800000000  0.5474870000000  0.4843560000000 1.0
C      1  0.4860260000000  0.5078210000000  0.5392750000000 1.0
C      1  0.5432780000000  0.4845530000000  0.5065680000000 1.0
C      1  0.5105710000000  0.4270690000000  0.5114160000000 1.0
C      1  0.4922570000000  0.4555800000000  0.4750180000000 1.0
C      1  0.5082040000000  0.5506110000000  0.5268650000000 1.0
C      1  0.4745690000000  0.4990830000000  0.4516220000000 1.0
C      1  0.5281210000000  0.5076220000000  0.5475260000000 1.0
C      1  0.5205060000000  0.4999300000000  0.4644540000000 1.0
C      1  0.5485940000000  0.5267420000000  0.5036480000000 1.0
C      1  0.4518770000000  0.5148660000000  0.4991290000000 1.0
C      1  0.4498360000000  0.4736950000000  0.4949040000000 1.0
C      1  0.5312560000000  0.5515750000000  0.5711090000000 1.0
C      1  0.5527910000000  0.5722380000000  0.5293340000000 1.0
C      1  0.5724890000000  0.5304760000000  0.5499210000000 1.0
C      1  0.5268190000000  0.4545580000000  0.4340380000000 1.0
C      1  0.4728920000000  0.5479900000000  0.4349830000000 1.0
C      1  0.4789000000000  0.4555100000000  0.5637760000000 1.0
C      1  0.5443790000000  0.4331170000000  0.4763020000000 1.0
C      1  0.4557220000000  0.5677280000000  0.4762860000000 1.0
C      1  0.4555320000000  0.4292640000000  0.5300200000000 1.0
C      1  0.5664750000000  0.4744600000000  0.4563220000000 1.0
C      1  0.4312160000000  0.5281920000000  0.4524160000000 1.0
C      1  0.4352560000000  0.4714980000000  0.5453640000000 1.0
C      1  0.5315090000000  0.5723110000000  0.5507180000000 1.0
C      1  0.5519540000000  0.5308700000000  0.5707700000000 1.0
C      1  0.5727030000000  0.5510670000000  0.5291400000000 1.0
C      1  0.5251800000000  0.4336160000000  0.4540730000000 1.0
C      1  0.4783250000000  0.4317570000000  0.5481670000000 1.0
C      1  0.4753850000000  0.5689030000000  0.4556600000000 1.0
C      1  0.5468120000000  0.4747910000000  0.4357240000000 1.0
C      1  0.4579380000000  0.4750620000000  0.5626390000000 1.0
C      1  0.4492190000000  0.5296550000000  0.4306080000000 1.0
C      1  0.5642530000000  0.4542140000000  0.4767550000000 1.0
C      1  0.4345430000000  0.4490860000000  0.5271060000000 1.0
C      1  0.4337340000000  0.5481200000000  0.4742260000000 1.0
C      1  0.5063130000000  0.5236020000000  0.4688190000000 1.0
C      1  0.4770820000000  0.5195820000000  0.5126860000000 1.0
C      1  0.5153550000000  0.4771930000000  0.5136750000000 1.0
C      1  0.4724660000000  0.4538840000000  0.4967700000000 1.0
END
