TITL C-22186-8037-4 -25.4352333754817 125000 -1293.68322179304 0 0 185 (D5) n - 1
REM
REM in /rds/project/t2_vol4/rds-t2-cs072/BORA/CARBON/from-Arr/AIRSS/Generating-Clusters/GAP-ML-2020/Higher-Symm/SD-CG/HFTN-CG/C160-200
REM
REM
REM
REM
REM
REM ./C.cell (6b4489405718ea1b717e0baf1da4c2d9)
REM AIRSS Version 0.9.1 bugfix July 2018 build 013d7b7c2542+ Fri, 06 Jul 2018 19:26:36 +0100
REM compiler GCC version 9.3.0
REM options -cpp -mtune=generic -march=x86-64 -g -O0
REM seed 215714700 793709209 -225943160 -2071563101 560786912 1230469594 -333795426 -914910686 1774371382 -2055088725 -1884687277 -1085447828 -1321878672 -387169433 -392227567 710730216 -1156920006 -1940156594 1319018660 -1276157138 -988251588 -1905782878 335707086 -693955344 -1933606911 -27851532 -1404398247 1960857103 -912835084 606638643 1790737378 13924491 1786114839
REM
CELL 1.54180   50.00000   50.00000   50.00000   90.00000   90.00000   90.00000
LATT -1
SFAC C  
C      1  0.5388070000000  0.5856860000000  0.4459760000000 1.0
C      1  0.4606040000000  0.5856780000000  0.4463930000000 1.0
C      1  0.4368340000000  0.5856740000000  0.5208960000000 1.0
C      1  0.5003460000000  0.5856780000000  0.5665260000000 1.0
C      1  0.5633680000000  0.5856860000000  0.5202230000000 1.0
C      1  0.5388080000000  0.4131650000000  0.5540340000000 1.0
C      1  0.4606060000000  0.4131570000000  0.5535960000000 1.0
C      1  0.4368560000000  0.4131570000000  0.4790860000000 1.0
C      1  0.5003810000000  0.4131650000000  0.4334750000000 1.0
C      1  0.5633900000000  0.4131690000000  0.4797950000000 1.0
C      1  0.5796600000000  0.5688890000000  0.4657330000000 1.0
C      1  0.4920200000000  0.5688820000000  0.4136450000000 1.0
C      1  0.4153990000000  0.5688730000000  0.4809000000000 1.0
C      1  0.4556850000000  0.5688740000000  0.5745540000000 1.0
C      1  0.5572040000000  0.5688830000000  0.5651800000000 1.0
C      1  0.5796640000000  0.4299690000000  0.5342890000000 1.0
C      1  0.4920090000000  0.4299600000000  0.5863530000000 1.0
C      1  0.4154060000000  0.4299540000000  0.5190770000000 1.0
C      1  0.4557180000000  0.4299610000000  0.4254340000000 1.0
C      1  0.5572350000000  0.4299710000000  0.4348360000000 1.0
C      1  0.5243430000000  0.4516530000000  0.6176290000000 1.0
C      1  0.6193990000000  0.4516650000000  0.5132010000000 1.0
C      1  0.5494560000000  0.4516620000000  0.3905280000000 1.0
C      1  0.4111730000000  0.4516480000000  0.4191390000000 1.0
C      1  0.3956520000000  0.4516420000000  0.5594950000000 1.0
C      1  0.5243660000000  0.5471950000000  0.3823780000000 1.0
C      1  0.6193930000000  0.5472010000000  0.4868320000000 1.0
C      1  0.5494160000000  0.5471900000000  0.6094860000000 1.0
C      1  0.4111410000000  0.5471780000000  0.5808360000000 1.0
C      1  0.3956600000000  0.5471810000000  0.4404760000000 1.0
C      1  0.5527650000000  0.4759180000000  0.4015560000000 1.0
C      1  0.4226820000000  0.4759050000000  0.4193980000000 1.0
C      1  0.3994530000000  0.4758990000000  0.5486280000000 1.0
C      1  0.5151790000000  0.4759080000000  0.6106540000000 1.0
C      1  0.6099320000000  0.4759200000000  0.5197590000000 1.0
C      1  0.5527330000000  0.5229350000000  0.5984580000000 1.0
C      1  0.4226550000000  0.5229230000000  0.5805800000000 1.0
C      1  0.3994620000000  0.5229250000000  0.4513440000000 1.0
C      1  0.5152060000000  0.5229380000000  0.3893500000000 1.0
C      1  0.6099330000000  0.5229440000000  0.4802710000000 1.0
C      1  0.5088390000000  0.4349970000000  0.5242860000000 1.0
C      1  0.5258350000000  0.4349990000000  0.4991030000000 1.0
C      1  0.5071360000000  0.4349980000000  0.4751560000000 1.0
C      1  0.4785840000000  0.4349950000000  0.4855400000000 1.0
C      1  0.4796360000000  0.4349950000000  0.5159040000000 1.0
C      1  0.5088340000000  0.5638480000000  0.4757160000000 1.0
C      1  0.5258230000000  0.5638490000000  0.5009050000000 1.0
C      1  0.5071170000000  0.5638460000000  0.5248460000000 1.0
C      1  0.4785670000000  0.5638440000000  0.5144540000000 1.0
C      1  0.4796280000000  0.5638450000000  0.4840900000000 1.0
C      1  0.5902120000000  0.4755720000000  0.5409330000000 1.0
C      1  0.5668090000000  0.4755740000000  0.4268540000000 1.0
C      1  0.4510810000000  0.4755630000000  0.4138600000000 1.0
C      1  0.4029610000000  0.4755550000000  0.5199070000000 1.0
C      1  0.4889480000000  0.4755610000000  0.5984430000000 1.0
C      1  0.5902190000000  0.5232880000000  0.4590920000000 1.0
C      1  0.5667840000000  0.5232820000000  0.5731640000000 1.0
C      1  0.4510530000000  0.5232710000000  0.5861270000000 1.0
C      1  0.4029620000000  0.5232690000000  0.4800660000000 1.0
C      1  0.4889710000000  0.5232800000000  0.4015540000000 1.0
C      1  0.5241610000000  0.3881680000000  0.5021380000000 1.0
C      1  0.5095100000000  0.3881680000000  0.4776900000000 1.0
C      1  0.4817320000000  0.3881650000000  0.4840690000000 1.0
C      1  0.4792140000000  0.3881640000000  0.5124590000000 1.0
C      1  0.5054360000000  0.3881660000000  0.5236260000000 1.0
C      1  0.5241400000000  0.6106790000000  0.4978680000000 1.0
C      1  0.5094830000000  0.6106770000000  0.5223120000000 1.0
C      1  0.4817060000000  0.6106750000000  0.5159260000000 1.0
C      1  0.4791960000000  0.6106750000000  0.4875350000000 1.0
C      1  0.5054220000000  0.6106780000000  0.4763750000000 1.0
C      1  0.5526090000000  0.5056540000000  0.5546010000000 1.0
C      1  0.5681850000000  0.5056590000000  0.4668380000000 1.0
C      1  0.4895310000000  0.5056520000000  0.4249040000000 1.0
C      1  0.4253440000000  0.5056440000000  0.4867500000000 1.0
C      1  0.4643280000000  0.5056460000000  0.5669070000000 1.0
C      1  0.5526250000000  0.4931990000000  0.4454140000000 1.0
C      1  0.5681770000000  0.4931970000000  0.5331810000000 1.0
C      1  0.4895110000000  0.4931890000000  0.5750930000000 1.0
C      1  0.4253420000000  0.4931850000000  0.5132290000000 1.0
C      1  0.4643480000000  0.4931910000000  0.4330830000000 1.0
C      1  0.5570360000000  0.4131920000000  0.5321070000000 1.0
C      1  0.5481690000000  0.4131940000000  0.4556830000000 1.0
C      1  0.4727450000000  0.4131870000000  0.4405000000000 1.0
C      1  0.4349980000000  0.4131810000000  0.5075400000000 1.0
C      1  0.4870930000000  0.4131850000000  0.5641560000000 1.0
C      1  0.5570290000000  0.5856620000000  0.4679090000000 1.0
C      1  0.5481400000000  0.5856580000000  0.5443310000000 1.0
C      1  0.4727120000000  0.5856510000000  0.5594920000000 1.0
C      1  0.4349840000000  0.5856490000000  0.4924420000000 1.0
C      1  0.4870940000000  0.5856560000000  0.4358400000000 1.0
C      1  0.4952860000000  0.5421710000000  0.5915500000000 1.0
C      1  0.5856090000000  0.5421820000000  0.5327700000000 1.0
C      1  0.5576170000000  0.5421820000000  0.4287050000000 1.0
C      1  0.4499950000000  0.5421720000000  0.4231690000000 1.0
C      1  0.4114730000000  0.5421650000000  0.5238120000000 1.0
C      1  0.4953200000000  0.4566710000000  0.4084490000000 1.0
C      1  0.5856260000000  0.4566780000000  0.4672530000000 1.0
C      1  0.5576050000000  0.4566720000000  0.5713110000000 1.0
C      1  0.4499820000000  0.4566610000000  0.5768170000000 1.0
C      1  0.4114870000000  0.4566610000000  0.4761630000000 1.0
C      1  0.5108930000000  0.4324350000000  0.4148430000000 1.0
C      1  0.4223830000000  0.4324250000000  0.4633300000000 1.0
C      1  0.4411460000000  0.4324230000000  0.5624910000000 1.0
C      1  0.5412520000000  0.4324330000000  0.5752890000000 1.0
C      1  0.5843580000000  0.4324390000000  0.4840370000000 1.0
C      1  0.5108560000000  0.5664100000000  0.5851600000000 1.0
C      1  0.4223600000000  0.5664040000000  0.5366490000000 1.0
C      1  0.4411510000000  0.5664080000000  0.4374930000000 1.0
C      1  0.5412600000000  0.5664180000000  0.4247230000000 1.0
C      1  0.5843410000000  0.5664200000000  0.5159860000000 1.0
C      1  0.4433630000000  0.4845470000000  0.5669230000000 1.0
C      1  0.5461470000000  0.4845560000000  0.5745460000000 1.0
C      1  0.5851590000000  0.4845630000000  0.4791490000000 1.0
C      1  0.5064860000000  0.4845570000000  0.4125660000000 1.0
C      1  0.4188510000000  0.4845470000000  0.4668140000000 1.0
C      1  0.4433790000000  0.5142860000000  0.4330610000000 1.0
C      1  0.5461650000000  0.5142960000000  0.4254670000000 1.0
C      1  0.5851510000000  0.5142960000000  0.5208750000000 1.0
C      1  0.5064590000000  0.5142870000000  0.5874350000000 1.0
C      1  0.4188390000000  0.5142800000000  0.5331640000000 1.0
C      1  0.4652490000000  0.4082600000000  0.4698410000000 1.0
C      1  0.4605870000000  0.4082580000000  0.5237360000000 1.0
C      1  0.5104040000000  0.4082620000000  0.5448250000000 1.0
C      1  0.5458550000000  0.4082660000000  0.5039630000000 1.0
C      1  0.5179480000000  0.4082650000000  0.4576200000000 1.0
C      1  0.4652240000000  0.5905770000000  0.5301500000000 1.0
C      1  0.4605760000000  0.5905780000000  0.4762530000000 1.0
C      1  0.5103990000000  0.5905830000000  0.4551780000000 1.0
C      1  0.5458390000000  0.5905850000000  0.4960490000000 1.0
C      1  0.5179190000000  0.5905810000000  0.5423850000000 1.0
C      1  0.5182620000000  0.4599030000000  0.5395340000000 1.0
C      1  0.5432460000000  0.4599070000000  0.4948510000000 1.0
C      1  0.5084700000000  0.4599050000000  0.4572820000000 1.0
C      1  0.4619940000000  0.4599000000000  0.4787460000000 1.0
C      1  0.4680460000000  0.4598990000000  0.5295810000000 1.0
C      1  0.5182660000000  0.5389430000000  0.4604710000000 1.0
C      1  0.5432370000000  0.5389440000000  0.5051610000000 1.0
C      1  0.5084510000000  0.5389400000000  0.5427200000000 1.0
C      1  0.4619810000000  0.5389360000000  0.5212430000000 1.0
C      1  0.4680470000000  0.5389380000000  0.4704100000000 1.0
C      1  0.4507560000000  0.5272600000000  0.4903040000000 1.0
C      1  0.4755590000000  0.5272600000000  0.5438360000000 1.0
C      1  0.5341350000000  0.5272660000000  0.5367890000000 1.0
C      1  0.5455340000000  0.5272690000000  0.4789020000000 1.0
C      1  0.4940030000000  0.5272650000000  0.4501730000000 1.0
C      1  0.4507580000000  0.4715740000000  0.5096820000000 1.0
C      1  0.4755760000000  0.4715780000000  0.4561570000000 1.0
C      1  0.5341510000000  0.4715830000000  0.4632200000000 1.0
C      1  0.5455340000000  0.4715830000000  0.5211110000000 1.0
C      1  0.4939940000000  0.4715770000000  0.5498250000000 1.0
C      1  0.5746730000000  0.5465350000000  0.5588030000000 1.0
C      1  0.5789960000000  0.5465390000000  0.4471500000000 1.0
C      1  0.4741430000000  0.5465310000000  0.4085360000000 1.0
C      1  0.4050180000000  0.5465210000000  0.4963240000000 1.0
C      1  0.4671480000000  0.5465240000000  0.5891950000000 1.0
C      1  0.5746980000000  0.4523220000000  0.4412180000000 1.0
C      1  0.5789900000000  0.4523190000000  0.5528720000000 1.0
C      1  0.4741260000000  0.4523080000000  0.5914570000000 1.0
C      1  0.4050250000000  0.4523040000000  0.5036490000000 1.0
C      1  0.4671820000000  0.4523130000000  0.4107960000000 1.0
C      1  0.5394550000000  0.5645340000000  0.5883510000000 1.0
C      1  0.5962130000000  0.5645430000000  0.4897730000000 1.0
C      1  0.5199990000000  0.5645380000000  0.4053320000000 1.0
C      1  0.4161390000000  0.5645270000000  0.4517210000000 1.0
C      1  0.4281630000000  0.5645250000000  0.5648330000000 1.0
C      1  0.5394920000000  0.4343160000000  0.4116600000000 1.0
C      1  0.5962220000000  0.4343180000000  0.5102530000000 1.0
C      1  0.5199850000000  0.4343090000000  0.5946740000000 1.0
C      1  0.4161380000000  0.4343000000000  0.5482560000000 1.0
C      1  0.4281940000000  0.4343050000000  0.4351470000000 1.0
C      1  0.5054960000000  0.5139980000000  0.4746750000000 1.0
C      1  0.4776110000000  0.5139950000000  0.4869460000000 1.0
C      1  0.4806650000000  0.5139940000000  0.5172580000000 1.0
C      1  0.5104370000000  0.5139970000000  0.5237210000000 1.0
C      1  0.5257830000000  0.5139990000000  0.4974030000000 1.0
C      1  0.5054920000000  0.4848470000000  0.5253270000000 1.0
C      1  0.4776110000000  0.4848440000000  0.5130480000000 1.0
C      1  0.4806730000000  0.4848460000000  0.4827370000000 1.0
C      1  0.5104470000000  0.4848490000000  0.4762820000000 1.0
C      1  0.5257850000000  0.4848490000000  0.5026040000000 1.0
C      1  0.6010430000000  0.4994310000000  0.5000140000000 1.0
C      1  0.5312110000000  0.4994210000000  0.5961020000000 1.0
C      1  0.5312370000000  0.4994280000000  0.4039060000000 1.0
C      1  0.4182460000000  0.4994120000000  0.5593800000000 1.0
C      1  0.4182620000000  0.4994160000000  0.4405970000000 1.0
END
