TITL C-22187-1986-1 -0.089321795706073 125000 -612.962447027279 0 0 91 (C1) n - 1
REM
REM in /rds/project/t2_vol4/rds-t2-cs072/BORA/CARBON/from-Arr/AIRSS/Generating-Clusters/GAP-ML-2020/Higher-Symm/SD-CG/HFTN-CG
REM
REM
REM
REM
REM
REM ./C.cell (b20cbc046b6831c77cfcea5457e17084)
REM AIRSS Version 0.9.1 bugfix July 2018 build 013d7b7c2542+ Fri, 06 Jul 2018 19:26:36 +0100
REM compiler GCC version 9.3.0
REM options -cpp -mtune=generic -march=x86-64 -g -O0
REM seed -647374375 1904439470 1148189967 -494428768 -1263408200 1605600133 -1259029309 -1081678253 1180356668 -1698551337 -1339689079 -570350484 1710599170 -1793052726 -1869076364 246594754 2086541527 -1315945222 1226440821 -672075226 -261617008 -672775352 582547545 125678316 1605642425 1200636566 -66039230 -337458415 1284976949 -544734849 -1924709180 -541484026 -1842926533
REM
CELL 1.54180   50.00000   50.00000   50.00000   90.00000   90.00000   90.00000
LATT -1
SFAC C  
C      1  0.5671140000000  0.4768020000000  0.5281760000000 1.0
C      1  0.5412310000000  0.5691050000000  0.4788180000000 1.0
C      1  0.4776420000000  0.5234350000000  0.5612990000000 1.0
C      1  0.4238410000000  0.4841450000000  0.4680450000000 1.0
C      1  0.5723210000000  0.5262910000000  0.4698800000000 1.0
C      1  0.4264980000000  0.5173070000000  0.5332780000000 1.0
C      1  0.4760570000000  0.5609110000000  0.5236590000000 1.0
C      1  0.5259960000000  0.4281810000000  0.5273230000000 1.0
C      1  0.4625920000000  0.4321290000000  0.4800670000000 1.0
C      1  0.5240580000000  0.5297600000000  0.4278020000000 1.0
C      1  0.4720770000000  0.4717300000000  0.4396700000000 1.0
C      1  0.5243640000000  0.4722700000000  0.5635330000000 1.0
C      1  0.5696650000000  0.5274850000000  0.5315130000000 1.0
C      1  0.5293550000000  0.4287610000000  0.4731240000000 1.0
C      1  0.4806320000000  0.4728450000000  0.5615730000000 1.0
C      1  0.4270400000000  0.5292060000000  0.4761550000000 1.0
C      1  0.5682980000000  0.4803540000000  0.4717690000000 1.0
C      1  0.4242650000000  0.4715730000000  0.5279140000000 1.0
C      1  0.4741270000000  0.4327720000000  0.5268700000000 1.0
C      1  0.5309310000000  0.5636260000000  0.5266400000000 1.0
C      1  0.4721330000000  0.5627550000000  0.4803270000000 1.0
C      1  0.5202660000000  0.4729450000000  0.4388730000000 1.0
C      1  0.4778470000000  0.5279150000000  0.4349830000000 1.0
C      1  0.5262620000000  0.5269770000000  0.5701000000000 1.0
C      1  0.5609900000000  0.5681410000000  0.4607720000000 1.0
C      1  0.4566520000000  0.5414930000000  0.5625240000000 1.0
C      1  0.5656400000000  0.4554620000000  0.5462890000000 1.0
C      1  0.4540700000000  0.5579960000000  0.5396170000000 1.0
C      1  0.5475300000000  0.4347760000000  0.5458700000000 1.0
C      1  0.4439890000000  0.4402360000000  0.4607590000000 1.0
C      1  0.5510190000000  0.5342540000000  0.4254900000000 1.0
C      1  0.4498740000000  0.4550260000000  0.4379990000000 1.0
C      1  0.5436730000000  0.4529390000000  0.5662960000000 1.0
C      1  0.4258030000000  0.4608540000000  0.4533400000000 1.0
C      1  0.5654590000000  0.5431920000000  0.4477050000000 1.0
C      1  0.4329100000000  0.5397940000000  0.5476890000000 1.0
C      1  0.5485060000000  0.4379250000000  0.4551020000000 1.0
C      1  0.4583820000000  0.4567870000000  0.5644110000000 1.0
C      1  0.5680910000000  0.5453250000000  0.5535050000000 1.0
C      1  0.4532010000000  0.4357430000000  0.5476620000000 1.0
C      1  0.5478620000000  0.5645220000000  0.5493000000000 1.0
C      1  0.4547390000000  0.5651080000000  0.4593000000000 1.0
C      1  0.5425810000000  0.4568060000000  0.4349540000000 1.0
C      1  0.4571720000000  0.5455460000000  0.4377510000000 1.0
C      1  0.5449020000000  0.5482870000000  0.5714800000000 1.0
C      1  0.4349990000000  0.5454700000000  0.4554250000000 1.0
C      1  0.5653490000000  0.4604460000000  0.4526390000000 1.0
C      1  0.4338750000000  0.4561450000000  0.5490010000000 1.0
C      1  0.5197420000000  0.4801580000000  0.4682900000000 1.0
C      1  0.4507160000000  0.5184930000000  0.4902490000000 1.0
C      1  0.4747140000000  0.4645270000000  0.5149280000000 1.0
C      1  0.4894530000000  0.4835220000000  0.5344400000000 1.0
C      1  0.5257320000000  0.5161190000000  0.5439580000000 1.0
C      1  0.4912440000000  0.5232200000000  0.4613430000000 1.0
C      1  0.5472400000000  0.5306220000000  0.5141550000000 1.0
C      1  0.4481330000000  0.4794180000000  0.5114270000000 1.0
C      1  0.5429970000000  0.4908340000000  0.4850230000000 1.0
C      1  0.5124820000000  0.4534470000000  0.4815110000000 1.0
C      1  0.4771270000000  0.5337300000000  0.4860360000000 1.0
C      1  0.5198090000000  0.5368690000000  0.5240880000000 1.0
C      1  0.5153030000000  0.5365140000000  0.4532840000000 1.0
C      1  0.4485260000000  0.4888860000000  0.4818660000000 1.0
C      1  0.4900480000000  0.5347730000000  0.5151280000000 1.0
C      1  0.4775640000000  0.5125010000000  0.5326980000000 1.0
C      1  0.5201950000000  0.4870930000000  0.5374250000000 1.0
C      1  0.4732480000000  0.4783680000000  0.4686730000000 1.0
C      1  0.5402050000000  0.4779240000000  0.5143760000000 1.0
C      1  0.4506180000000  0.5085730000000  0.5199440000000 1.0
C      1  0.5481460000000  0.5221390000000  0.4859210000000 1.0
C      1  0.5297180000000  0.5430130000000  0.4758730000000 1.0
C      1  0.4821160000000  0.4554330000000  0.4858020000000 1.0
C      1  0.5295340000000  0.4521180000000  0.5062660000000 1.0
C      1  0.4071270000000  0.4962920000000  0.5274250000000 1.0
C      1  0.5875790000000  0.5021180000000  0.4753240000000 1.0
C      1  0.5372080000000  0.4245530000000  0.4997960000000 1.0
C      1  0.4985780000000  0.5198400000000  0.4151180000000 1.0
C      1  0.5012140000000  0.4789130000000  0.5797490000000 1.0
C      1  0.4820760000000  0.5790600000000  0.5016740000000 1.0
C      1  0.4074000000000  0.5068160000000  0.4765080000000 1.0
C      1  0.5830680000000  0.5016230000000  0.5258190000000 1.0
C      1  0.4610710000000  0.4188850000000  0.5030270000000 1.0
C      1  0.4954440000000  0.4775380000000  0.4235750000000 1.0
C      1  0.5291230000000  0.5813420000000  0.5033940000000 1.0
C      1  0.4999510000000  0.5191590000000  0.5800760000000 1.0
C      1  0.5948710000000  0.5022110000000  0.5015140000000 1.0
C      1  0.5047970000000  0.5944730000000  0.5011900000000 1.0
C      1  0.4993420000000  0.4984550000000  0.5991930000000 1.0
C      1  0.4034030000000  0.5016240000000  0.5019600000000 1.0
C      1  0.4999500000000  0.4289570000000  0.5371610000000 1.0
C      1  0.4958640000000  0.4958200000000  0.4024890000000 1.0
C      1  0.4956510000000  0.4959570000000  0.4690440000000 1.0
END
