TITL C-22166-9692-7 118.863481622715 125000 -718.825382832566 0 0 106 (C1) n - 1
REM
REM in /rds/project/t2_vol4/rds-t2-cs072/BORA/CARBON/from-Arr/AIRSS/Generating-Clusters/GAP-ML-2020/Higher-Symm/SD-CG/HFTN-CG
REM
REM
REM
REM
REM
REM ./C.cell (b20cbc046b6831c77cfcea5457e17084)
REM AIRSS Version 0.9.1 bugfix July 2018 build 013d7b7c2542+ Fri, 06 Jul 2018 19:26:36 +0100
REM compiler GCC version 9.3.0
REM options -cpp -mtune=generic -march=x86-64 -g -O0
REM seed -199184735 -886381767 -571394145 -2101986778 487549050 1755538552 834921775 233386381 -2092157639 -1878589283 29844857 -312357413 846374871 -548224244 -330824307 -985933893 1179667520 -234252765 454290811 2005898410 -297714914 444808512 859168603 641050907 1984159371 -1357874417 -908738137 -1826305588 -1522739774 -1164445667 -515589613 -1748289086 1841742611
REM
CELL 1.54180   50.00000   50.00000   50.00000   90.00000   90.00000   90.00000
LATT -1
SFAC C  
C      1  0.4737250000000  0.5827420000000  0.5411350000000 1.0
C      1  0.4415710000000  0.4752990000000  0.4421940000000 1.0
C      1  0.5673780000000  0.5245370000000  0.4242960000000 1.0
C      1  0.4389870000000  0.4515040000000  0.5277740000000 1.0
C      1  0.4729020000000  0.5715560000000  0.4771120000000 1.0
C      1  0.5780250000000  0.5265520000000  0.4955820000000 1.0
C      1  0.5521470000000  0.4399740000000  0.5524210000000 1.0
C      1  0.5380650000000  0.4278480000000  0.4802740000000 1.0
C      1  0.5043200000000  0.5501380000000  0.5575290000000 1.0
C      1  0.4807980000000  0.5054580000000  0.5445340000000 1.0
C      1  0.5835400000000  0.4796010000000  0.4655750000000 1.0
C      1  0.5092110000000  0.4189300000000  0.5509090000000 1.0
C      1  0.5881840000000  0.5521000000000  0.4923430000000 1.0
C      1  0.4820400000000  0.4288860000000  0.5480870000000 1.0
C      1  0.4440450000000  0.4600140000000  0.5555170000000 1.0
C      1  0.4619450000000  0.5326660000000  0.5019290000000 1.0
C      1  0.5571380000000  0.4392120000000  0.5248240000000 1.0
C      1  0.4939940000000  0.5377570000000  0.4247010000000 1.0
C      1  0.4791780000000  0.5621520000000  0.5631080000000 1.0
C      1  0.5312840000000  0.5397280000000  0.4853030000000 1.0
C      1  0.4911240000000  0.4665360000000  0.4505310000000 1.0
C      1  0.4575600000000  0.5005490000000  0.4493100000000 1.0
C      1  0.4713280000000  0.5108060000000  0.5720220000000 1.0
C      1  0.5270860000000  0.4856640000000  0.4888420000000 1.0
C      1  0.5369520000000  0.4239860000000  0.5089750000000 1.0
C      1  0.4501000000000  0.5789680000000  0.4948420000000 1.0
C      1  0.4144230000000  0.4884510000000  0.5303380000000 1.0
C      1  0.5191620000000  0.5095920000000  0.5735150000000 1.0
C      1  0.5152360000000  0.4271490000000  0.4627450000000 1.0
C      1  0.4404460000000  0.5056450000000  0.5721110000000 1.0
C      1  0.4824540000000  0.4755510000000  0.5410790000000 1.0
C      1  0.4836340000000  0.4187500000000  0.5203030000000 1.0
C      1  0.4298670000000  0.4850780000000  0.5553310000000 1.0
C      1  0.4702700000000  0.5109570000000  0.5180870000000 1.0
C      1  0.5718160000000  0.5142800000000  0.5205380000000 1.0
C      1  0.4310790000000  0.5355440000000  0.4989660000000 1.0
C      1  0.5046370000000  0.4668570000000  0.5238720000000 1.0
C      1  0.4583540000000  0.4861260000000  0.4770450000000 1.0
C      1  0.5117290000000  0.5269530000000  0.5029500000000 1.0
C      1  0.4135960000000  0.4999550000000  0.4819970000000 1.0
C      1  0.4842910000000  0.4585020000000  0.5019370000000 1.0
C      1  0.5465370000000  0.5113160000000  0.5624290000000 1.0
C      1  0.4267860000000  0.5243910000000  0.4710150000000 1.0
C      1  0.5285360000000  0.4299240000000  0.5661070000000 1.0
C      1  0.5568300000000  0.5659120000000  0.4557510000000 1.0
C      1  0.5425270000000  0.5582360000000  0.5281500000000 1.0
C      1  0.5769360000000  0.4601370000000  0.4848370000000 1.0
C      1  0.4744140000000  0.5408220000000  0.4753830000000 1.0
C      1  0.5229360000000  0.5146290000000  0.5268030000000 1.0
C      1  0.4784390000000  0.5711220000000  0.4470910000000 1.0
C      1  0.4716980000000  0.5488750000000  0.5224320000000 1.0
C      1  0.4614120000000  0.4661740000000  0.4249470000000 1.0
C      1  0.5549270000000  0.5238210000000  0.4738690000000 1.0
C      1  0.5321150000000  0.4615380000000  0.4294960000000 1.0
C      1  0.4900350000000  0.4180020000000  0.4709960000000 1.0
C      1  0.4296830000000  0.5637720000000  0.5059690000000 1.0
C      1  0.4981610000000  0.5525530000000  0.5126400000000 1.0
C      1  0.5162810000000  0.5657540000000  0.5362050000000 1.0
C      1  0.4741420000000  0.4542830000000  0.5617350000000 1.0
C      1  0.4388450000000  0.4620670000000  0.4701130000000 1.0
C      1  0.5736470000000  0.4612600000000  0.5141120000000 1.0
C      1  0.5229020000000  0.4554570000000  0.5789730000000 1.0
C      1  0.5029540000000  0.5006070000000  0.4821170000000 1.0
C      1  0.5060170000000  0.5399260000000  0.4645200000000 1.0
C      1  0.5496560000000  0.4642570000000  0.5680130000000 1.0
C      1  0.4763470000000  0.4297260000000  0.4947550000000 1.0
C      1  0.5604910000000  0.4874470000000  0.5564400000000 1.0
C      1  0.4806910000000  0.4892350000000  0.4325180000000 1.0
C      1  0.5430870000000  0.5656480000000  0.4990940000000 1.0
C      1  0.5566830000000  0.4553190000000  0.4423430000000 1.0
C      1  0.4852630000000  0.4764570000000  0.4786410000000 1.0
C      1  0.5129450000000  0.5127870000000  0.4562370000000 1.0
C      1  0.4966620000000  0.4667190000000  0.5817870000000 1.0
C      1  0.4535000000000  0.5292870000000  0.4535730000000 1.0
C      1  0.5044630000000  0.5073080000000  0.4272160000000 1.0
C      1  0.5230220000000  0.5813690000000  0.4840460000000 1.0
C      1  0.5240630000000  0.4854580000000  0.5170420000000 1.0
C      1  0.5055380000000  0.5212640000000  0.5504290000000 1.0
C      1  0.5626420000000  0.5387840000000  0.4473630000000 1.0
C      1  0.5582990000000  0.4986900000000  0.4238110000000 1.0
C      1  0.5059940000000  0.5619050000000  0.4426700000000 1.0
C      1  0.5298700000000  0.5763470000000  0.4558090000000 1.0
C      1  0.5133760000000  0.4140680000000  0.5229200000000 1.0
C      1  0.4677690000000  0.4249770000000  0.4534160000000 1.0
C      1  0.5400370000000  0.4997200000000  0.4672450000000 1.0
C      1  0.4646560000000  0.5408010000000  0.5748160000000 1.0
C      1  0.4973000000000  0.5781890000000  0.4957460000000 1.0
C      1  0.5680190000000  0.5678520000000  0.4832090000000 1.0
C      1  0.5595180000000  0.4428840000000  0.4686000000000 1.0
C      1  0.5497560000000  0.5278880000000  0.5356200000000 1.0
C      1  0.5730050000000  0.4781230000000  0.4398730000000 1.0
C      1  0.5311260000000  0.4889680000000  0.4204000000000 1.0
C      1  0.4682980000000  0.5466890000000  0.4330830000000 1.0
C      1  0.4983840000000  0.5878560000000  0.5266420000000 1.0
C      1  0.4540630000000  0.5740290000000  0.5224020000000 1.0
C      1  0.4159990000000  0.4706930000000  0.4859310000000 1.0
C      1  0.4968850000000  0.4951770000000  0.5846370000000 1.0
C      1  0.4519660000000  0.4936970000000  0.5058450000000 1.0
C      1  0.4514630000000  0.4358150000000  0.4745070000000 1.0
C      1  0.4213380000000  0.5078070000000  0.5095230000000 1.0
C      1  0.4771360000000  0.4442560000000  0.4350890000000 1.0
C      1  0.5110500000000  0.4470350000000  0.4420740000000 1.0
C      1  0.4380760000000  0.5326900000000  0.5769010000000 1.0
C      1  0.4614010000000  0.4687420000000  0.5189040000000 1.0
C      1  0.4160940000000  0.4642720000000  0.5145050000000 1.0
C      1  0.5736870000000  0.4866340000000  0.5301510000000 1.0
END
