TITL C-22170-1971-9 47.0253412928164 125000 -337.782169103128 0 0 51 (C2) n - 1
REM
REM in /rds/project/t2_vol4/rds-t2-cs072/BORA/CARBON/from-Arr/AIRSS/Generating-Clusters/GAP-ML-2020/Higher-Symm/SD-CG/HFTN-CG
REM
REM
REM
REM
REM
REM ./C.cell (b20cbc046b6831c77cfcea5457e17084)
REM AIRSS Version 0.9.1 bugfix July 2018 build 013d7b7c2542+ Fri, 06 Jul 2018 19:26:36 +0100
REM compiler GCC version 9.3.0
REM options -cpp -mtune=generic -march=x86-64 -g -O0
REM seed -2134544753 1654931655 -1789201934 -1980760580 -52315478 -1412747054 1843503422 380281523 572054628 1533015422 925833649 241655467 -1346935248 -894779896 -1754604928 1339102080 -1197171242 946466138 -711460105 -886680751 -1874224577 503815352 -1127359034 1499828212 -58325759 1470285685 -297261178 2107045604 -820119080 -2070262712 295236390 1408077381 344519635
REM
CELL 1.54180   50.00000   50.00000   50.00000   90.00000   90.00000   90.00000
LATT -1
SFAC C  
C      1  0.5415030000000  0.4784330000000  0.5590050000000 1.0
C      1  0.4601040000000  0.5217170000000  0.5585440000000 1.0
C      1  0.4650600000000  0.4968000000000  0.4769720000000 1.0
C      1  0.5370760000000  0.5026070000000  0.4771790000000 1.0
C      1  0.5249960000000  0.5365990000000  0.5131490000000 1.0
C      1  0.4769050000000  0.4631370000000  0.5133270000000 1.0
C      1  0.5132000000000  0.4460740000000  0.5346370000000 1.0
C      1  0.4885640000000  0.5538540000000  0.5340670000000 1.0
C      1  0.5316140000000  0.4330140000000  0.4696180000000 1.0
C      1  0.4705740000000  0.5663220000000  0.4688140000000 1.0
C      1  0.4918340000000  0.4470270000000  0.4953260000000 1.0
C      1  0.5101850000000  0.5525440000000  0.4949050000000 1.0
C      1  0.5083000000000  0.4747970000000  0.4950630000000 1.0
C      1  0.4937200000000  0.5247730000000  0.4947880000000 1.0
C      1  0.4691210000000  0.5257630000000  0.4784300000000 1.0
C      1  0.5330050000000  0.4736580000000  0.4788740000000 1.0
C      1  0.5138090000000  0.5403770000000  0.5382300000000 1.0
C      1  0.4879290000000  0.4595880000000  0.5385140000000 1.0
C      1  0.5611140000000  0.5142620000000  0.5242390000000 1.0
C      1  0.4407170000000  0.4855730000000  0.5239790000000 1.0
C      1  0.4646120000000  0.4896440000000  0.5073730000000 1.0
C      1  0.5373270000000  0.5100390000000  0.5075160000000 1.0
C      1  0.4864760000000  0.4446230000000  0.4681030000000 1.0
C      1  0.5157200000000  0.5547010000000  0.4676970000000 1.0
C      1  0.4601730000000  0.4781550000000  0.4324260000000 1.0
C      1  0.5422530000000  0.5208470000000  0.4324980000000 1.0
C      1  0.4932290000000  0.4876290000000  0.4719060000000 1.0
C      1  0.5089410000000  0.5117310000000  0.4718470000000 1.0
C      1  0.4750530000000  0.5423710000000  0.4571750000000 1.0
C      1  0.5272110000000  0.4568580000000  0.4577330000000 1.0
C      1  0.5696120000000  0.5149800000000  0.5492010000000 1.0
C      1  0.4320570000000  0.4850820000000  0.5488900000000 1.0
C      1  0.5202870000000  0.4879740000000  0.5186830000000 1.0
C      1  0.4815800000000  0.5118110000000  0.5184490000000 1.0
C      1  0.4499710000000  0.4882350000000  0.4540440000000 1.0
C      1  0.5523140000000  0.5109640000000  0.4542730000000 1.0
C      1  0.4846270000000  0.4699200000000  0.4270000000000 1.0
C      1  0.5178350000000  0.5290310000000  0.4268390000000 1.0
C      1  0.4688920000000  0.5336070000000  0.5363390000000 1.0
C      1  0.5328580000000  0.4663420000000  0.5368530000000 1.0
C      1  0.4992160000000  0.4647010000000  0.4512080000000 1.0
C      1  0.5030890000000  0.5344700000000  0.4509030000000 1.0
C      1  0.4835790000000  0.4819030000000  0.5542000000000 1.0
C      1  0.5180570000000  0.5182050000000  0.5541470000000 1.0
C      1  0.5435850000000  0.5060060000000  0.5569430000000 1.0
C      1  0.4580330000000  0.4941270000000  0.5567200000000 1.0
C      1  0.4729800000000  0.5795980000000  0.4909760000000 1.0
C      1  0.5290630000000  0.4199400000000  0.4918840000000 1.0
C      1  0.5114980000000  0.4313020000000  0.5102430000000 1.0
C      1  0.4904250000000  0.5684040000000  0.5095510000000 1.0
C      1  0.5008680000000  0.4999840000000  0.5387530000000 1.0
END
