TITL C-22449-4518-4 -0.232221307900325 125000 -664.163974500629 0 0 97 (C1) n - 1
REM
REM in /rds/project/t2_vol4/rds-t2-cs072/BORA/CARBON/from-Arr/AIRSS/Generating-Clusters/GAP-ML-2020/Higher-Symm/SD-CG/HFTN-CG
REM
REM
REM
REM
REM
REM ./C.cell (b20cbc046b6831c77cfcea5457e17084)
REM AIRSS Version 0.9.1 bugfix July 2018 build 013d7b7c2542+ Fri, 06 Jul 2018 19:26:36 +0100
REM compiler GCC version 9.3.0
REM options -cpp -mtune=generic -march=x86-64 -g -O0
REM seed 1301483386 783076152 463103927 -1470866387 -1179383714 -1948712717 -1602561700 1414894411 -967643665 1612148459 1415200802 -820367657 -1377982174 2103556912 1834757982 -53725196 693872 90961431 765076115 -1834070635 250961578 1442358139 319589993 628383346 801104833 1465721518 752420347 -1128242636 1701032395 286307674 -1878902200 298610244 -1687829666
REM
CELL 1.54180   50.00000   50.00000   50.00000   90.00000   90.00000   90.00000
LATT -1
SFAC C  
C      1  0.4703690000000  0.5736850000000  0.5298670000000 1.0
C      1  0.4703550000000  0.4373290000000  0.5480210000000 1.0
C      1  0.4704850000000  0.4900320000000  0.4209270000000 1.0
C      1  0.5536840000000  0.5719510000000  0.5042830000000 1.0
C      1  0.5537550000000  0.4604380000000  0.5592620000000 1.0
C      1  0.5541000000000  0.4685920000000  0.4353710000000 1.0
C      1  0.4832060000000  0.4822560000000  0.5408160000000 1.0
C      1  0.4822620000000  0.4734070000000  0.4637540000000 1.0
C      1  0.4829740000000  0.5445300000000  0.4945240000000 1.0
C      1  0.5295270000000  0.4416250000000  0.4728350000000 1.0
C      1  0.5294020000000  0.5526620000000  0.4622910000000 1.0
C      1  0.5294820000000  0.5064000000000  0.5636760000000 1.0
C      1  0.4831270000000  0.5753020000000  0.4857920000000 1.0
C      1  0.4832240000000  0.4747390000000  0.5714730000000 1.0
C      1  0.4831660000000  0.4507780000000  0.4413610000000 1.0
C      1  0.5087410000000  0.4857780000000  0.4626240000000 1.0
C      1  0.5092150000000  0.5383070000000  0.5054460000000 1.0
C      1  0.5094620000000  0.4757900000000  0.5296610000000 1.0
C      1  0.4358280000000  0.4535650000000  0.4743970000000 1.0
C      1  0.4358920000000  0.5455650000000  0.4715490000000 1.0
C      1  0.4358660000000  0.5019380000000  0.5527480000000 1.0
C      1  0.4815410000000  0.4306880000000  0.4612960000000 1.0
C      1  0.4815040000000  0.5685470000000  0.4582570000000 1.0
C      1  0.4815400000000  0.5020100000000  0.5793160000000 1.0
C      1  0.5677780000000  0.5138560000000  0.4635240000000 1.0
C      1  0.5676710000000  0.5251290000000  0.5295090000000 1.0
C      1  0.5672470000000  0.4623300000000  0.5058440000000 1.0
C      1  0.4569410000000  0.5143770000000  0.5701260000000 1.0
C      1  0.4569000000000  0.4322950000000  0.4765360000000 1.0
C      1  0.4569530000000  0.5543730000000  0.4521050000000 1.0
C      1  0.5883920000000  0.5080280000000  0.5140560000000 1.0
C      1  0.5886430000000  0.4840840000000  0.4993220000000 1.0
C      1  0.5886320000000  0.5087360000000  0.4858400000000 1.0
C      1  0.4758000000000  0.5570200000000  0.5885290000000 1.0
C      1  0.4757610000000  0.3949350000000  0.5041700000000 1.0
C      1  0.4758980000000  0.5491850000000  0.4060130000000 1.0
C      1  0.4382750000000  0.4728890000000  0.5481320000000 1.0
C      1  0.4381980000000  0.4720880000000  0.4515040000000 1.0
C      1  0.4383150000000  0.5560680000000  0.4990200000000 1.0
C      1  0.5498180000000  0.4373310000000  0.4966290000000 1.0
C      1  0.5500300000000  0.5344420000000  0.4466330000000 1.0
C      1  0.5498830000000  0.5292820000000  0.5556500000000 1.0
C      1  0.5323150000000  0.4749800000000  0.5705640000000 1.0
C      1  0.5327380000000  0.4515040000000  0.4423610000000 1.0
C      1  0.5322160000000  0.5742320000000  0.4860750000000 1.0
C      1  0.4226430000000  0.4571710000000  0.4988900000000 1.0
C      1  0.4225920000000  0.5225350000000  0.4624840000000 1.0
C      1  0.4226680000000  0.5213010000000  0.5372590000000 1.0
C      1  0.5024300000000  0.5116030000000  0.4706950000000 1.0
C      1  0.5028500000000  0.5188460000000  0.5237470000000 1.0
C      1  0.5027500000000  0.4701700000000  0.5035320000000 1.0
C      1  0.5698800000000  0.5531190000000  0.5183180000000 1.0
C      1  0.5696680000000  0.4578650000000  0.5357640000000 1.0
C      1  0.5701210000000  0.4902580000000  0.4446220000000 1.0
C      1  0.4532090000000  0.5566380000000  0.5441750000000 1.0
C      1  0.4531270000000  0.4334480000000  0.5261310000000 1.0
C      1  0.4531330000000  0.5108830000000  0.4283040000000 1.0
C      1  0.4976590000000  0.4124050000000  0.5029020000000 1.0
C      1  0.4978280000000  0.5416410000000  0.4217240000000 1.0
C      1  0.4976820000000  0.5471430000000  0.5740390000000 1.0
C      1  0.5237690000000  0.4708110000000  0.4838710000000 1.0
C      1  0.5238310000000  0.5277450000000  0.4815100000000 1.0
C      1  0.5242390000000  0.5016620000000  0.5325840000000 1.0
C      1  0.4608120000000  0.4188810000000  0.5023350000000 1.0
C      1  0.4608660000000  0.5387740000000  0.4275800000000 1.0
C      1  0.4608820000000  0.5434010000000  0.5687210000000 1.0
C      1  0.5119160000000  0.5159450000000  0.4172760000000 1.0
C      1  0.5116950000000  0.5639310000000  0.5539660000000 1.0
C      1  0.5117160000000  0.4213330000000  0.5274980000000 1.0
C      1  0.5523660000000  0.4376630000000  0.5435840000000 1.0
C      1  0.5525920000000  0.4935720000000  0.4234080000000 1.0
C      1  0.5523630000000  0.5698020000000  0.5318490000000 1.0
C      1  0.4602920000000  0.5740620000000  0.5030890000000 1.0
C      1  0.4603520000000  0.4604270000000  0.5616330000000 1.0
C      1  0.4604980000000  0.4666930000000  0.4340980000000 1.0
C      1  0.5483310000000  0.4828000000000  0.4950570000000 1.0
C      1  0.5484460000000  0.5119830000000  0.4863680000000 1.0
C      1  0.5486950000000  0.5060410000000  0.5164840000000 1.0
C      1  0.4337440000000  0.4551020000000  0.5243260000000 1.0
C      1  0.4336880000000  0.5015910000000  0.4479550000000 1.0
C      1  0.4338300000000  0.5442760000000  0.5263060000000 1.0
C      1  0.5074450000000  0.5809700000000  0.5010730000000 1.0
C      1  0.5075240000000  0.4586110000000  0.5688000000000 1.0
C      1  0.5077810000000  0.4623250000000  0.4302160000000 1.0
C      1  0.4775060000000  0.5072710000000  0.5259550000000 1.0
C      1  0.4772330000000  0.4740420000000  0.4929480000000 1.0
C      1  0.4772990000000  0.5191300000000  0.4803590000000 1.0
C      1  0.5051500000000  0.4248040000000  0.4764140000000 1.0
C      1  0.5051870000000  0.5582150000000  0.4457900000000 1.0
C      1  0.5051740000000  0.5180090000000  0.5765560000000 1.0
C      1  0.4983790000000  0.5762120000000  0.5306900000000 1.0
C      1  0.4983790000000  0.4353650000000  0.5497890000000 1.0
C      1  0.4984720000000  0.4897120000000  0.4183080000000 1.0
C      1  0.5387500000000  0.5184180000000  0.4258190000000 1.0
C      1  0.5385910000000  0.5552710000000  0.5521750000000 1.0
C      1  0.5386260000000  0.4272170000000  0.5208840000000 1.0
C      1  0.4685810000000  0.5002320000000  0.4998190000000 1.0
END
