TITL C-22205-3739-7 -450.38866672259 125000 -1102.83393134276 0 0 152 (C1) n - 1
REM
REM in /rds/project/t2_vol4/rds-t2-cs072/BORA/CARBON/from-Arr/AIRSS/Generating-Clusters/GAP-ML-2020/Higher-Symm/SD-CG/HFTN-CG
REM
REM
REM
REM
REM
REM ./C.cell (b20cbc046b6831c77cfcea5457e17084)
REM AIRSS Version 0.9.1 bugfix July 2018 build 013d7b7c2542+ Fri, 06 Jul 2018 19:26:36 +0100
REM compiler GCC version 9.3.0
REM options -cpp -mtune=generic -march=x86-64 -g -O0
REM seed -1144354925 181543285 55725712 154032462 -1853633881 576175737 -1633432039 929882779 -824252877 1012191206 -675191775 -721590578 1259463846 -1405114838 -1451263545 1623029573 -1197232366 1547147655 1334801183 -609766810 1856595538 767751313 1871717451 -1442840514 1528856969 -541512988 -901090188 -142794317 -1881770536 459737337 370754994 394118421 -1060381475
REM
CELL 1.54180   50.00000   50.00000   50.00000   90.00000   90.00000   90.00000
LATT -1
SFAC C  
C      1  0.5621020000000  0.5751010000000  0.4906640000000 1.0
C      1  0.5130660000000  0.5941650000000  0.4924230000000 1.0
C      1  0.4618670000000  0.5846210000000  0.4937420000000 1.0
C      1  0.4231400000000  0.5506830000000  0.4940880000000 1.0
C      1  0.4062840000000  0.5024920000000  0.4940160000000 1.0
C      1  0.4175000000000  0.4526050000000  0.4932220000000 1.0
C      1  0.4532140000000  0.4167110000000  0.4920280000000 1.0
C      1  0.5009430000000  0.4026000000000  0.4880390000000 1.0
C      1  0.5680980000000  0.4341610000000  0.4968900000000 1.0
C      1  0.5928330000000  0.4786730000000  0.4911050000000 1.0
C      1  0.5929640000000  0.5314550000000  0.4893130000000 1.0
C      1  0.5125400000000  0.5427530000000  0.5618010000000 1.0
C      1  0.4899160000000  0.5257490000000  0.5713860000000 1.0
C      1  0.4695780000000  0.5203550000000  0.5511130000000 1.0
C      1  0.4521170000000  0.5011330000000  0.5600110000000 1.0
C      1  0.4670800000000  0.4798460000000  0.5511270000000 1.0
C      1  0.4877470000000  0.4704870000000  0.5709610000000 1.0
C      1  0.5088950000000  0.4508470000000  0.5578960000000 1.0
C      1  0.5334840000000  0.4669040000000  0.5557710000000 1.0
C      1  0.5633710000000  0.4936710000000  0.5909220000000 1.0
C      1  0.5567700000000  0.5174640000000  0.5750870000000 1.0
C      1  0.5390180000000  0.5401990000000  0.5812550000000 1.0
C      1  0.4384250000000  0.4358800000000  0.5635390000000 1.0
C      1  0.4853430000000  0.4167870000000  0.5643990000000 1.0
C      1  0.5435220000000  0.4223160000000  0.5655670000000 1.0
C      1  0.5803960000000  0.4586230000000  0.5658830000000 1.0
C      1  0.5970230000000  0.5059130000000  0.5598570000000 1.0
C      1  0.5785220000000  0.5537770000000  0.5584470000000 1.0
C      1  0.5362520000000  0.5817370000000  0.5617330000000 1.0
C      1  0.4861600000000  0.5839520000000  0.5617080000000 1.0
C      1  0.4403890000000  0.5666310000000  0.5635480000000 1.0
C      1  0.4111860000000  0.5269920000000  0.5642520000000 1.0
C      1  0.4100140000000  0.4769420000000  0.5640560000000 1.0
C      1  0.5026590000000  0.4488950000000  0.4225470000000 1.0
C      1  0.5311960000000  0.4607580000000  0.4236830000000 1.0
C      1  0.5481360000000  0.4861250000000  0.4235170000000 1.0
C      1  0.5488890000000  0.5165730000000  0.4236320000000 1.0
C      1  0.5336570000000  0.5422480000000  0.4228050000000 1.0
C      1  0.5065090000000  0.5545780000000  0.4231930000000 1.0
C      1  0.4770040000000  0.5501850000000  0.4231250000000 1.0
C      1  0.4541000000000  0.5305870000000  0.4231050000000 1.0
C      1  0.4450380000000  0.5020320000000  0.4236510000000 1.0
C      1  0.4513770000000  0.4733020000000  0.4225480000000 1.0
C      1  0.4731720000000  0.4532960000000  0.4218410000000 1.0
C      1  0.5418570000000  0.4520090000000  0.6001980000000 1.0
C      1  0.5428070000000  0.4798050000000  0.6043700000000 1.0
C      1  0.5180720000000  0.5188870000000  0.6194180000000 1.0
C      1  0.5216950000000  0.5426140000000  0.6075290000000 1.0
C      1  0.5014070000000  0.5599300000000  0.5997130000000 1.0
C      1  0.4746010000000  0.5461280000000  0.5907610000000 1.0
C      1  0.4471840000000  0.5314270000000  0.5956210000000 1.0
C      1  0.4415680000000  0.5015310000000  0.5893000000000 1.0
C      1  0.4451530000000  0.4715450000000  0.5949480000000 1.0
C      1  0.4691070000000  0.4566360000000  0.5899530000000 1.0
C      1  0.5181350000000  0.4387580000000  0.5987090000000 1.0
C      1  0.5362970000000  0.4951330000000  0.4861180000000 1.0
C      1  0.5399790000000  0.5216460000000  0.4951330000000 1.0
C      1  0.5242870000000  0.5391130000000  0.4806810000000 1.0
C      1  0.4973560000000  0.5357240000000  0.4841890000000 1.0
C      1  0.4837440000000  0.5167340000000  0.4660170000000 1.0
C      1  0.4648010000000  0.4996490000000  0.4799460000000 1.0
C      1  0.4659680000000  0.4725260000000  0.4748360000000 1.0
C      1  0.4890710000000  0.4602480000000  0.4844570000000 1.0
C      1  0.5106370000000  0.4629670000000  0.4681480000000 1.0
C      1  0.5431280000000  0.4199210000000  0.4947880000000 1.0
C      1  0.5350320000000  0.4790650000000  0.5097790000000 1.0
C      1  0.5293110000000  0.4199840000000  0.4483490000000 1.0
C      1  0.5691180000000  0.4545380000000  0.4525680000000 1.0
C      1  0.5849040000000  0.5014590000000  0.4501940000000 1.0
C      1  0.5720420000000  0.5493180000000  0.4498440000000 1.0
C      1  0.5354700000000  0.5815740000000  0.4502310000000 1.0
C      1  0.4871760000000  0.5869270000000  0.4521620000000 1.0
C      1  0.4437410000000  0.5661360000000  0.4527660000000 1.0
C      1  0.4166380000000  0.5265690000000  0.4528300000000 1.0
C      1  0.4137780000000  0.4785840000000  0.4521390000000 1.0
C      1  0.4373030000000  0.4365320000000  0.4505270000000 1.0
C      1  0.4803920000000  0.4146270000000  0.4482770000000 1.0
C      1  0.4301150000000  0.4606110000000  0.4384780000000 1.0
C      1  0.4615430000000  0.4311520000000  0.4368770000000 1.0
C      1  0.5046380000000  0.4232520000000  0.4358100000000 1.0
C      1  0.5460650000000  0.4420570000000  0.4404290000000 1.0
C      1  0.5716050000000  0.4790640000000  0.4389360000000 1.0
C      1  0.5725360000000  0.5234730000000  0.4382250000000 1.0
C      1  0.5498840000000  0.5609770000000  0.4377240000000 1.0
C      1  0.5102150000000  0.5787850000000  0.4387750000000 1.0
C      1  0.4673410000000  0.5721010000000  0.4394010000000 1.0
C      1  0.4341460000000  0.5437060000000  0.4396130000000 1.0
C      1  0.4203570000000  0.5025560000000  0.4394660000000 1.0
C      1  0.5526610000000  0.4779610000000  0.5338720000000 1.0
C      1  0.5456560000000  0.5064950000000  0.5453130000000 1.0
C      1  0.5387330000000  0.5260060000000  0.5245820000000 1.0
C      1  0.5153160000000  0.5395770000000  0.5320360000000 1.0
C      1  0.4933050000000  0.5367230000000  0.5134840000000 1.0
C      1  0.4712640000000  0.5237060000000  0.5232450000000 1.0
C      1  0.4620280000000  0.5014350000000  0.5087100000000 1.0
C      1  0.4689590000000  0.4777510000000  0.5234640000000 1.0
C      1  0.4922890000000  0.4638390000000  0.5141790000000 1.0
C      1  0.5021350000000  0.4409820000000  0.5306800000000 1.0
C      1  0.5283460000000  0.4200840000000  0.5200590000000 1.0
C      1  0.5572370000000  0.4444520000000  0.5768500000000 1.0
C      1  0.5855870000000  0.4837850000000  0.5759310000000 1.0
C      1  0.5834730000000  0.5284380000000  0.5691340000000 1.0
C      1  0.5546650000000  0.5629870000000  0.5712720000000 1.0
C      1  0.5095490000000  0.5728630000000  0.5728360000000 1.0
C      1  0.4657360000000  0.5697690000000  0.5745540000000 1.0
C      1  0.4286170000000  0.5447500000000  0.5778410000000 1.0
C      1  0.4141760000000  0.5019190000000  0.5768400000000 1.0
C      1  0.4267200000000  0.4582270000000  0.5773730000000 1.0
C      1  0.4642640000000  0.4314100000000  0.5757360000000 1.0
C      1  0.5138680000000  0.4257670000000  0.5739690000000 1.0
C      1  0.4174340000000  0.4524910000000  0.5216780000000 1.0
C      1  0.4550160000000  0.4186850000000  0.5206370000000 1.0
C      1  0.5035480000000  0.4041150000000  0.5160300000000 1.0
C      1  0.5717500000000  0.4357190000000  0.5250990000000 1.0
C      1  0.5953300000000  0.4813260000000  0.5192120000000 1.0
C      1  0.5949040000000  0.5329600000000  0.5174710000000 1.0
C      1  0.5627160000000  0.5756430000000  0.5188120000000 1.0
C      1  0.5129710000000  0.5935370000000  0.5208210000000 1.0
C      1  0.4610010000000  0.5848900000000  0.5218420000000 1.0
C      1  0.4215410000000  0.5514630000000  0.5221810000000 1.0
C      1  0.4057490000000  0.5025200000000  0.5223350000000 1.0
C      1  0.4122060000000  0.5275640000000  0.4807530000000 1.0
C      1  0.4091370000000  0.4771470000000  0.4802330000000 1.0
C      1  0.4333070000000  0.4326830000000  0.4788020000000 1.0
C      1  0.4759470000000  0.4071390000000  0.4758400000000 1.0
C      1  0.5260670000000  0.4101910000000  0.4749010000000 1.0
C      1  0.5797250000000  0.4541290000000  0.4795380000000 1.0
C      1  0.5942970000000  0.5040500000000  0.4767970000000 1.0
C      1  0.5791480000000  0.5545350000000  0.4767550000000 1.0
C      1  0.5382730000000  0.5870040000000  0.4780640000000 1.0
C      1  0.4868190000000  0.5923760000000  0.4800620000000 1.0
C      1  0.4412930000000  0.5690180000000  0.4807420000000 1.0
C      1  0.4078190000000  0.4762830000000  0.5355900000000 1.0
C      1  0.4344200000000  0.4327000000000  0.5352000000000 1.0
C      1  0.4823800000000  0.4155710000000  0.5339230000000 1.0
C      1  0.5502400000000  0.4215850000000  0.5387560000000 1.0
C      1  0.5798940000000  0.4612910000000  0.5360400000000 1.0
C      1  0.5994890000000  0.5071270000000  0.5314040000000 1.0
C      1  0.5823200000000  0.5568000000000  0.5305750000000 1.0
C      1  0.5386180000000  0.5870410000000  0.5337800000000 1.0
C      1  0.4865640000000  0.5910820000000  0.5345300000000 1.0
C      1  0.4387960000000  0.5707130000000  0.5353660000000 1.0
C      1  0.4099090000000  0.5282290000000  0.5357780000000 1.0
C      1  0.4980860000000  0.5015550000000  0.3613900000000 1.0
C      1  0.5175790000000  0.4893010000000  0.4637260000000 1.0
C      1  0.5183930000000  0.4958290000000  0.6049730000000 1.0
C      1  0.4980640000000  0.5016940000000  0.4151230000000 1.0
C      1  0.4996670000000  0.5036400000000  0.4429330000000 1.0
C      1  0.5022720000000  0.4969220000000  0.5780840000000 1.0
C      1  0.4984990000000  0.5020960000000  0.3885850000000 1.0
C      1  0.5103440000000  0.4853710000000  0.5226000000000 1.0
C      1  0.5188910000000  0.4929040000000  0.5521090000000 1.0
END
