TITL C-22191-9775-1 19.7013307835456 125000 -350.379463665291 0 0 51 (C1) n - 1
REM
REM in /rds/project/t2_vol4/rds-t2-cs072/BORA/CARBON/from-Arr/AIRSS/Generating-Clusters/GAP-ML-2020/Higher-Symm/SD-CG/HFTN-CG
REM
REM
REM
REM
REM
REM ./C.cell (b20cbc046b6831c77cfcea5457e17084)
REM AIRSS Version 0.9.1 bugfix July 2018 build 013d7b7c2542+ Fri, 06 Jul 2018 19:26:36 +0100
REM compiler GCC version 9.3.0
REM options -cpp -mtune=generic -march=x86-64 -g -O0
REM seed 269812619 -1385509358 2050983500 -984956323 2078141567 -1043091863 1800358403 1906745838 -32901908 1257376650 -462126275 1154320128 -950492946 1927313302 787883102 202107215 38748332 -718792458 -2134952507 893002398 -1488097971 1421966796 2111580971 1450612481 -1409841316 -1395194618 2106979952 1994477036 707658185 1933319031 -978546457 -844300043 494809979
REM
CELL 1.54180   50.00000   50.00000   50.00000   90.00000   90.00000   90.00000
LATT -1
SFAC C  
C      1  0.5367080000000  0.5448060000000  0.5146370000000 1.0
C      1  0.5372880000000  0.5276400000000  0.4601860000000 1.0
C      1  0.5363640000000  0.4700160000000  0.4604790000000 1.0
C      1  0.5347980000000  0.4533300000000  0.5144640000000 1.0
C      1  0.5342440000000  0.4990510000000  0.5471120000000 1.0
C      1  0.4750770000000  0.5557310000000  0.4803940000000 1.0
C      1  0.4745080000000  0.4970890000000  0.4409860000000 1.0
C      1  0.4758630000000  0.4434150000000  0.4801320000000 1.0
C      1  0.4727130000000  0.4648700000000  0.5516940000000 1.0
C      1  0.4742640000000  0.5398130000000  0.5489830000000 1.0
C      1  0.4514860000000  0.4594710000000  0.4843210000000 1.0
C      1  0.4470790000000  0.4764020000000  0.5380120000000 1.0
C      1  0.4486330000000  0.5326770000000  0.5346210000000 1.0
C      1  0.4486100000000  0.5425090000000  0.4828330000000 1.0
C      1  0.4474710000000  0.4992380000000  0.4531690000000 1.0
C      1  0.4527330000000  0.4680460000000  0.5112730000000 1.0
C      1  0.4499910000000  0.5041620000000  0.5362260000000 1.0
C      1  0.4432900000000  0.5432470000000  0.5102340000000 1.0
C      1  0.4428010000000  0.5250370000000  0.4624770000000 1.0
C      1  0.4417320000000  0.4746340000000  0.4640750000000 1.0
C      1  0.4918280000000  0.5548960000000  0.5047100000000 1.0
C      1  0.4914420000000  0.5198460000000  0.4496620000000 1.0
C      1  0.4930160000000  0.4504340000000  0.4582410000000 1.0
C      1  0.4903190000000  0.4512870000000  0.5299720000000 1.0
C      1  0.4900010000000  0.5137820000000  0.5555590000000 1.0
C      1  0.5192830000000  0.4395850000000  0.4950370000000 1.0
C      1  0.5183770000000  0.4770300000000  0.5550190000000 1.0
C      1  0.5202230000000  0.5446680000000  0.5380040000000 1.0
C      1  0.5203660000000  0.5489020000000  0.4688970000000 1.0
C      1  0.5195380000000  0.4845780000000  0.4430540000000 1.0
C      1  0.5502290000000  0.4757400000000  0.5067880000000 1.0
C      1  0.5498570000000  0.4989030000000  0.5234360000000 1.0
C      1  0.5519880000000  0.5223350000000  0.5071130000000 1.0
C      1  0.5528280000000  0.5134570000000  0.4794940000000 1.0
C      1  0.5516140000000  0.4845580000000  0.4795800000000 1.0
C      1  0.4801700000000  0.5049380000000  0.5270350000000 1.0
C      1  0.4887100000000  0.5228410000000  0.5061390000000 1.0
C      1  0.4859960000000  0.5073990000000  0.4803720000000 1.0
C      1  0.4979160000000  0.4828770000000  0.4903800000000 1.0
C      1  0.4831070000000  0.4776550000000  0.5143160000000 1.0
C      1  0.4922060000000  0.4744160000000  0.4423410000000 1.0
C      1  0.4919410000000  0.4367080000000  0.5031070000000 1.0
C      1  0.4908170000000  0.4839760000000  0.5632910000000 1.0
C      1  0.4928670000000  0.5554250000000  0.5344690000000 1.0
C      1  0.4925750000000  0.5471800000000  0.4595900000000 1.0
C      1  0.5194850000000  0.5122300000000  0.4439750000000 1.0
C      1  0.5205060000000  0.4476110000000  0.4682300000000 1.0
C      1  0.5183770000000  0.4552340000000  0.5377160000000 1.0
C      1  0.5185990000000  0.5216980000000  0.5528860000000 1.0
C      1  0.5202030000000  0.5566020000000  0.4951220000000 1.0
C      1  0.5109430000000  0.5076100000000  0.4957450000000 1.0
END
