TITL C-22455-4488-12 61.1294562959117 125000 -937.873942130599 0 0 129 (C1) n - 1
REM
REM in /rds/project/t2_vol4/rds-t2-cs072/BORA/CARBON/from-Arr/AIRSS/Generating-Clusters/GAP-ML-2020/Higher-Symm/SD-CG/HFTN-CG
REM
REM
REM
REM
REM
REM ./C.cell (b20cbc046b6831c77cfcea5457e17084)
REM AIRSS Version 0.9.1 bugfix July 2018 build 013d7b7c2542+ Fri, 06 Jul 2018 19:26:36 +0100
REM compiler GCC version 9.3.0
REM options -cpp -mtune=generic -march=x86-64 -g -O0
REM seed 1833053474 -1971288172 -1507489028 1453290912 1077073973 1109343616 -1561230933 -1710884218 3594600 -2053948551 -983055554 -7855761 -448303706 803262996 -859429224 -2123129037 -581563860 -1461455702 -1296448952 2046052404 301501739 -677617365 -2082477794 394725337 -1031496967 1382213238 -1045461976 -1558217392 2087719738 -640110570 -1141474907 1309258202 1554613630
REM
CELL 1.54180   50.00000   50.00000   50.00000   90.00000   90.00000   90.00000
LATT -1
SFAC C  
C      1  0.4662320000000  0.4330850000000  0.4338250000000 1.0
C      1  0.4680710000000  0.5668100000000  0.4326410000000 1.0
C      1  0.4697990000000  0.5680540000000  0.5668720000000 1.0
C      1  0.4671820000000  0.4320290000000  0.5658290000000 1.0
C      1  0.4929120000000  0.4972020000000  0.5982750000000 1.0
C      1  0.4903080000000  0.4007400000000  0.4962140000000 1.0
C      1  0.4909400000000  0.5033450000000  0.4019240000000 1.0
C      1  0.4923780000000  0.6018600000000  0.5014210000000 1.0
C      1  0.4904350000000  0.5470030000000  0.5338340000000 1.0
C      1  0.4778010000000  0.4608980000000  0.5412240000000 1.0
C      1  0.4944470000000  0.4624820000000  0.4654280000000 1.0
C      1  0.4976830000000  0.5419930000000  0.4631120000000 1.0
C      1  0.6020170000000  0.4986100000000  0.5183940000000 1.0
C      1  0.6019570000000  0.4799950000000  0.4965880000000 1.0
C      1  0.6018510000000  0.5017780000000  0.4778610000000 1.0
C      1  0.6018190000000  0.5204170000000  0.4996500000000 1.0
C      1  0.5531750000000  0.4746920000000  0.4289880000000 1.0
C      1  0.5524410000000  0.5693620000000  0.4711680000000 1.0
C      1  0.5542880000000  0.5262610000000  0.5684670000000 1.0
C      1  0.5546360000000  0.4294810000000  0.5256920000000 1.0
C      1  0.4757370000000  0.5195180000000  0.5927510000000 1.0
C      1  0.4716300000000  0.4037740000000  0.5183280000000 1.0
C      1  0.4727760000000  0.4812280000000  0.4065000000000 1.0
C      1  0.4735750000000  0.5977370000000  0.4796360000000 1.0
C      1  0.4748840000000  0.4783200000000  0.4794520000000 1.0
C      1  0.4760570000000  0.5055900000000  0.4714920000000 1.0
C      1  0.4599450000000  0.5168730000000  0.4941720000000 1.0
C      1  0.4570460000000  0.4861330000000  0.5011300000000 1.0
C      1  0.4913210000000  0.5941020000000  0.5280770000000 1.0
C      1  0.4906200000000  0.4705840000000  0.5887050000000 1.0
C      1  0.4873300000000  0.4072800000000  0.4690420000000 1.0
C      1  0.4886620000000  0.5307050000000  0.4073670000000 1.0
C      1  0.4390790000000  0.4334090000000  0.4736090000000 1.0
C      1  0.4415930000000  0.5266190000000  0.4339920000000 1.0
C      1  0.4440580000000  0.5649860000000  0.5261050000000 1.0
C      1  0.4389990000000  0.4731630000000  0.5653510000000 1.0
C      1  0.5137440000000  0.4147620000000  0.4589190000000 1.0
C      1  0.5147720000000  0.5416070000000  0.4130740000000 1.0
C      1  0.5173590000000  0.5879580000000  0.5392650000000 1.0
C      1  0.5162470000000  0.4604560000000  0.5812380000000 1.0
C      1  0.4337780000000  0.4981430000000  0.4353290000000 1.0
C      1  0.4386380000000  0.5642280000000  0.4982230000000 1.0
C      1  0.4335620000000  0.5018740000000  0.5660140000000 1.0
C      1  0.4324560000000  0.4335530000000  0.5025850000000 1.0
C      1  0.5040240000000  0.4544930000000  0.5365590000000 1.0
C      1  0.5174210000000  0.4730770000000  0.4551850000000 1.0
C      1  0.4968280000000  0.5544040000000  0.4854770000000 1.0
C      1  0.5078510000000  0.5349440000000  0.5554670000000 1.0
C      1  0.5530480000000  0.5610040000000  0.5361450000000 1.0
C      1  0.5575490000000  0.4597750000000  0.5622890000000 1.0
C      1  0.5521790000000  0.4391660000000  0.4619650000000 1.0
C      1  0.5549770000000  0.5392450000000  0.4345520000000 1.0
C      1  0.4996370000000  0.5152160000000  0.4618460000000 1.0
C      1  0.4787720000000  0.5247780000000  0.5165910000000 1.0
C      1  0.4683520000000  0.4819030000000  0.5256300000000 1.0
C      1  0.4937370000000  0.4596230000000  0.4923600000000 1.0
C      1  0.4213530000000  0.5180110000000  0.5443710000000 1.0
C      1  0.4185070000000  0.4548510000000  0.5187570000000 1.0
C      1  0.4204310000000  0.4824290000000  0.4572050000000 1.0
C      1  0.4325720000000  0.5373460000000  0.4852840000000 1.0
C      1  0.5368960000000  0.4198610000000  0.4764850000000 1.0
C      1  0.5381740000000  0.5244270000000  0.4162970000000 1.0
C      1  0.5390630000000  0.5811930000000  0.5212600000000 1.0
C      1  0.5406750000000  0.4755890000000  0.5797780000000 1.0
C      1  0.5444600000000  0.4364500000000  0.5520840000000 1.0
C      1  0.5360080000000  0.4523150000000  0.4412720000000 1.0
C      1  0.5419590000000  0.5628120000000  0.4443310000000 1.0
C      1  0.5374680000000  0.5499060000000  0.5585690000000 1.0
C      1  0.4471620000000  0.4177240000000  0.5220800000000 1.0
C      1  0.4484580000000  0.4782050000000  0.4202920000000 1.0
C      1  0.4503040000000  0.5815840000000  0.4780040000000 1.0
C      1  0.4505400000000  0.5214930000000  0.5803250000000 1.0
C      1  0.5331030000000  0.4829850000000  0.5092430000000 1.0
C      1  0.5372090000000  0.5036770000000  0.4887330000000 1.0
C      1  0.5273880000000  0.5244000000000  0.5082050000000 1.0
C      1  0.5277980000000  0.5036610000000  0.5283840000000 1.0
C      1  0.5753310000000  0.4492180000000  0.5204510000000 1.0
C      1  0.5734940000000  0.4785970000000  0.4484340000000 1.0
C      1  0.5732380000000  0.5495820000000  0.4760990000000 1.0
C      1  0.5751920000000  0.5221250000000  0.5490190000000 1.0
C      1  0.4989120000000  0.5369860000000  0.5855560000000 1.0
C      1  0.4939910000000  0.4047220000000  0.5366520000000 1.0
C      1  0.4946760000000  0.4626990000000  0.4080770000000 1.0
C      1  0.4953670000000  0.5959080000000  0.4603650000000 1.0
C      1  0.5075330000000  0.5060390000000  0.5466410000000 1.0
C      1  0.5131310000000  0.4636810000000  0.5112820000000 1.0
C      1  0.5225340000000  0.4992430000000  0.4656090000000 1.0
C      1  0.5030420000000  0.5400090000000  0.5080920000000 1.0
C      1  0.4922520000000  0.4381860000000  0.4217260000000 1.0
C      1  0.4938520000000  0.5804230000000  0.4367400000000 1.0
C      1  0.4957420000000  0.5658610000000  0.5797510000000 1.0
C      1  0.4929680000000  0.4196430000000  0.5604570000000 1.0
C      1  0.5410850000000  0.5050190000000  0.5841990000000 1.0
C      1  0.5382220000000  0.4145260000000  0.5058820000000 1.0
C      1  0.5387090000000  0.4948830000000  0.4132480000000 1.0
C      1  0.5383440000000  0.5850610000000  0.4916130000000 1.0
C      1  0.4441070000000  0.4288620000000  0.5483910000000 1.0
C      1  0.4455460000000  0.4525610000000  0.4316980000000 1.0
C      1  0.4477570000000  0.5685920000000  0.4528300000000 1.0
C      1  0.4493370000000  0.5475640000000  0.5682270000000 1.0
C      1  0.5737480000000  0.4562660000000  0.4681410000000 1.0
C      1  0.5747280000000  0.5309580000000  0.4534690000000 1.0
C      1  0.5748760000000  0.5441910000000  0.5293280000000 1.0
C      1  0.5771230000000  0.4682530000000  0.5432450000000 1.0
C      1  0.5858410000000  0.5040660000000  0.4555570000000 1.0
C      1  0.5851310000000  0.5422170000000  0.5018430000000 1.0
C      1  0.5865350000000  0.4959970000000  0.5409590000000 1.0
C      1  0.5859130000000  0.4577420000000  0.4946120000000 1.0
C      1  0.5132390000000  0.4033720000000  0.5140940000000 1.0
C      1  0.5135600000000  0.4853840000000  0.4041540000000 1.0
C      1  0.5148420000000  0.5985880000000  0.4829100000000 1.0
C      1  0.5166330000000  0.5135820000000  0.5953880000000 1.0
C      1  0.4714850000000  0.5735520000000  0.5379020000000 1.0
C      1  0.4678100000000  0.4609820000000  0.5714180000000 1.0
C      1  0.4629300000000  0.4205790000000  0.4591750000000 1.0
C      1  0.4649330000000  0.5410050000000  0.4207970000000 1.0
C      1  0.5175260000000  0.5654400000000  0.4288990000000 1.0
C      1  0.5188130000000  0.5736840000000  0.5640240000000 1.0
C      1  0.5161880000000  0.4392140000000  0.5607020000000 1.0
C      1  0.5157220000000  0.4303250000000  0.4354800000000 1.0
C      1  0.4089640000000  0.4920170000000  0.4814330000000 1.0
C      1  0.4108490000000  0.5185310000000  0.4937030000000 1.0
C      1  0.4092950000000  0.5070040000000  0.5206980000000 1.0
C      1  0.4078230000000  0.4797870000000  0.5087290000000 1.0
C      1  0.4334340000000  0.5456160000000  0.5448900000000 1.0
C      1  0.4288470000000  0.4530230000000  0.5464960000000 1.0
C      1  0.4297320000000  0.4541470000000  0.4551420000000 1.0
C      1  0.4351290000000  0.5437390000000  0.4558740000000 1.0
C      1  0.4829560000000  0.5033580000000  0.5336200000000 1.0
END
