TITL C-22434-4666-5 -113.259769881274 125000 -947.898424296946 0 0 136 (C1) n - 1
REM
REM in /rds/project/t2_vol4/rds-t2-cs072/BORA/CARBON/from-Arr/AIRSS/Generating-Clusters/GAP-ML-2020/Higher-Symm/SD-CG/HFTN-CG
REM
REM
REM
REM
REM
REM ./C.cell (b20cbc046b6831c77cfcea5457e17084)
REM AIRSS Version 0.9.1 bugfix July 2018 build 013d7b7c2542+ Fri, 06 Jul 2018 19:26:36 +0100
REM compiler GCC version 9.3.0
REM options -cpp -mtune=generic -march=x86-64 -g -O0
REM seed 1128121164 1640848694 -1501695240 -1974675541 -1675385709 92542860 -1113517606 -992030032 -1786014053 -150142691 1137606303 1154824532 1798795198 -1806433789 537791045 -603407998 -1350932356 1927665801 -961108752 -1536950350 727024336 -1731814828 -401822744 -2133826394 1165640714 -2119821621 1403898309 176994578 -747379439 -1877054868 -439424712 114593755 2091863708
REM
CELL 1.54180   50.00000   50.00000   50.00000   90.00000   90.00000   90.00000
LATT -1
SFAC C  
C      1  0.5662520000000  0.5564380000000  0.5041510000000 1.0
C      1  0.5561990000000  0.5744500000000  0.4543930000000 1.0
C      1  0.5181110000000  0.5615670000000  0.4304710000000 1.0
C      1  0.4622810000000  0.5613950000000  0.4319810000000 1.0
C      1  0.4332410000000  0.5740120000000  0.4744700000000 1.0
C      1  0.4373610000000  0.5559590000000  0.5169660000000 1.0
C      1  0.4647210000000  0.5742920000000  0.5592010000000 1.0
C      1  0.5070490000000  0.5566170000000  0.5638790000000 1.0
C      1  0.5542390000000  0.5745830000000  0.5448320000000 1.0
C      1  0.5413950000000  0.4148970000000  0.4857920000000 1.0
C      1  0.5195900000000  0.4194090000000  0.4662990000000 1.0
C      1  0.4924150000000  0.4144000000000  0.4575530000000 1.0
C      1  0.4686970000000  0.4186610000000  0.4737080000000 1.0
C      1  0.4560670000000  0.4139920000000  0.4993730000000 1.0
C      1  0.4692190000000  0.4182850000000  0.5250480000000 1.0
C      1  0.4924440000000  0.4135430000000  0.5415830000000 1.0
C      1  0.5200620000000  0.4187440000000  0.5331520000000 1.0
C      1  0.5416400000000  0.4144400000000  0.5139120000000 1.0
C      1  0.4339760000000  0.4370480000000  0.4995130000000 1.0
C      1  0.4486610000000  0.4368380000000  0.5424110000000 1.0
C      1  0.4886570000000  0.4373170000000  0.5637870000000 1.0
C      1  0.5333160000000  0.4370290000000  0.5571760000000 1.0
C      1  0.5624370000000  0.4362240000000  0.5226780000000 1.0
C      1  0.5619410000000  0.4364300000000  0.4773940000000 1.0
C      1  0.5333240000000  0.4377280000000  0.4426280000000 1.0
C      1  0.4888480000000  0.4383410000000  0.4354700000000 1.0
C      1  0.4487840000000  0.4367450000000  0.4564520000000 1.0
C      1  0.4471800000000  0.5135660000000  0.4375640000000 1.0
C      1  0.4178420000000  0.5109090000000  0.4842840000000 1.0
C      1  0.4295480000000  0.5116340000000  0.5410280000000 1.0
C      1  0.4701190000000  0.5107580000000  0.5760300000000 1.0
C      1  0.5280020000000  0.5121810000000  0.5759120000000 1.0
C      1  0.5705560000000  0.5108590000000  0.5431140000000 1.0
C      1  0.5807450000000  0.5118920000000  0.4859080000000 1.0
C      1  0.5533990000000  0.5109920000000  0.4381140000000 1.0
C      1  0.5017990000000  0.5140940000000  0.4200420000000 1.0
C      1  0.4298770000000  0.5425230000000  0.5436670000000 1.0
C      1  0.4624930000000  0.5394130000000  0.5824480000000 1.0
C      1  0.5312980000000  0.5428610000000  0.5757870000000 1.0
C      1  0.5759070000000  0.5394120000000  0.5515200000000 1.0
C      1  0.5825060000000  0.5428560000000  0.4823090000000 1.0
C      1  0.5642460000000  0.5392210000000  0.4343190000000 1.0
C      1  0.5015560000000  0.5442700000000  0.4136630000000 1.0
C      1  0.4397740000000  0.5436690000000  0.4360420000000 1.0
C      1  0.4091250000000  0.5396990000000  0.4775360000000 1.0
C      1  0.4674810000000  0.4848920000000  0.5927370000000 1.0
C      1  0.5374700000000  0.4868630000000  0.5920580000000 1.0
C      1  0.5862680000000  0.4846230000000  0.5485220000000 1.0
C      1  0.5972200000000  0.4858860000000  0.4799470000000 1.0
C      1  0.5611110000000  0.4854600000000  0.4224730000000 1.0
C      1  0.4990750000000  0.4881790000000  0.4033740000000 1.0
C      1  0.4337370000000  0.4879450000000  0.4254170000000 1.0
C      1  0.4017220000000  0.4847790000000  0.4840850000000 1.0
C      1  0.4155740000000  0.4862150000000  0.5529000000000 1.0
C      1  0.5135320000000  0.4990450000000  0.4656350000000 1.0
C      1  0.4863370000000  0.4887790000000  0.4600430000000 1.0
C      1  0.4652850000000  0.4963170000000  0.4794410000000 1.0
C      1  0.4574360000000  0.4869250000000  0.5053190000000 1.0
C      1  0.4744020000000  0.4976590000000  0.5284830000000 1.0
C      1  0.4983870000000  0.4872390000000  0.5418110000000 1.0
C      1  0.5248120000000  0.4976840000000  0.5301030000000 1.0
C      1  0.5431480000000  0.4873850000000  0.5103730000000 1.0
C      1  0.5377820000000  0.4875140000000  0.4803900000000 1.0
C      1  0.5766420000000  0.5534790000000  0.4573680000000 1.0
C      1  0.5461450000000  0.5607370000000  0.4307480000000 1.0
C      1  0.4775920000000  0.5574950000000  0.4103600000000 1.0
C      1  0.4220460000000  0.5542990000000  0.4552270000000 1.0
C      1  0.4184290000000  0.5599360000000  0.4952420000000 1.0
C      1  0.4440190000000  0.5539640000000  0.5648240000000 1.0
C      1  0.4817220000000  0.5602120000000  0.5778450000000 1.0
C      1  0.5549050000000  0.5541350000000  0.5659400000000 1.0
C      1  0.5756270000000  0.5602340000000  0.5314890000000 1.0
C      1  0.4915040000000  0.4591590000000  0.4596000000000 1.0
C      1  0.4695610000000  0.4481730000000  0.4753260000000 1.0
C      1  0.4580950000000  0.4579530000000  0.5007550000000 1.0
C      1  0.4705530000000  0.4478140000000  0.5248970000000 1.0
C      1  0.4940510000000  0.4580700000000  0.5402150000000 1.0
C      1  0.5200680000000  0.4476550000000  0.5318500000000 1.0
C      1  0.5411380000000  0.4577470000000  0.5143680000000 1.0
C      1  0.5395790000000  0.4580270000000  0.4839140000000 1.0
C      1  0.5185700000000  0.4484580000000  0.4672550000000 1.0
C      1  0.4838670000000  0.5350570000000  0.4627600000000 1.0
C      1  0.4621990000000  0.5260370000000  0.4799840000000 1.0
C      1  0.4540080000000  0.5321820000000  0.5071920000000 1.0
C      1  0.4787620000000  0.5260510000000  0.5231690000000 1.0
C      1  0.4993600000000  0.5327620000000  0.5466950000000 1.0
C      1  0.5224830000000  0.5264330000000  0.5252120000000 1.0
C      1  0.5468120000000  0.5322890000000  0.5079140000000 1.0
C      1  0.5385290000000  0.5303770000000  0.4795050000000 1.0
C      1  0.5093910000000  0.5257030000000  0.4773530000000 1.0
C      1  0.5649740000000  0.5092030000000  0.5121040000000 1.0
C      1  0.5561850000000  0.5081460000000  0.4688280000000 1.0
C      1  0.5232540000000  0.5081450000000  0.4392530000000 1.0
C      1  0.4785890000000  0.5126570000000  0.4404220000000 1.0
C      1  0.4424360000000  0.5088540000000  0.4668270000000 1.0
C      1  0.4349100000000  0.5087560000000  0.5108010000000 1.0
C      1  0.4569760000000  0.5051000000000  0.5498990000000 1.0
C      1  0.4992520000000  0.5091610000000  0.5646340000000 1.0
C      1  0.5422250000000  0.5057000000000  0.5510950000000 1.0
C      1  0.5759050000000  0.4651610000000  0.4390660000000 1.0
C      1  0.5205890000000  0.4672980000000  0.4045310000000 1.0
C      1  0.4540530000000  0.4682620000000  0.4158100000000 1.0
C      1  0.4086580000000  0.4653440000000  0.4621080000000 1.0
C      1  0.4079120000000  0.4662490000000  0.5312990000000 1.0
C      1  0.4472830000000  0.4645030000000  0.5835490000000 1.0
C      1  0.5150480000000  0.4666700000000  0.5951110000000 1.0
C      1  0.5732590000000  0.4645630000000  0.5666940000000 1.0
C      1  0.5972950000000  0.4657910000000  0.5026850000000 1.0
C      1  0.5323530000000  0.5817370000000  0.5268520000000 1.0
C      1  0.5426100000000  0.5782150000000  0.4991420000000 1.0
C      1  0.5336380000000  0.5806170000000  0.4718220000000 1.0
C      1  0.5091810000000  0.5746780000000  0.4550840000000 1.0
C      1  0.4802720000000  0.5672920000000  0.4604070000000 1.0
C      1  0.4609550000000  0.5786430000000  0.4817940000000 1.0
C      1  0.4609390000000  0.5773820000000  0.5111550000000 1.0
C      1  0.4783220000000  0.5810370000000  0.5340770000000 1.0
C      1  0.5072290000000  0.5786030000000  0.5402820000000 1.0
C      1  0.3957410000000  0.4744660000000  0.5083130000000 1.0
C      1  0.4219060000000  0.4742100000000  0.5769680000000 1.0
C      1  0.4902870000000  0.4748670000000  0.6029790000000 1.0
C      1  0.5622370000000  0.4746710000000  0.5904930000000 1.0
C      1  0.6009820000000  0.4743890000000  0.5283550000000 1.0
C      1  0.5956470000000  0.4735680000000  0.4559070000000 1.0
C      1  0.5466650000000  0.4760460000000  0.4011060000000 1.0
C      1  0.4745840000000  0.4776030000000  0.4007800000000 1.0
C      1  0.4116080000000  0.4754240000000  0.4362610000000 1.0
C      1  0.5148570000000  0.4438210000000  0.4213250000000 1.0
C      1  0.4602030000000  0.4434140000000  0.4302390000000 1.0
C      1  0.4244460000000  0.4423630000000  0.4709940000000 1.0
C      1  0.4242790000000  0.4423290000000  0.5271660000000 1.0
C      1  0.4590190000000  0.4422010000000  0.5688660000000 1.0
C      1  0.5139900000000  0.4427360000000  0.5781480000000 1.0
C      1  0.5612050000000  0.4419180000000  0.5525040000000 1.0
C      1  0.5809300000000  0.4416390000000  0.5003240000000 1.0
C      1  0.5613580000000  0.4418070000000  0.4482100000000 1.0
C      1  0.5017870000000  0.5297410000000  0.5049900000000 1.0
END
