TITL C-22162-1988-5 6.5443442104491 125000 -188.597698373087 0 0 30 (Td) n - 1
REM
REM in /rds/project/t2_vol4/rds-t2-cs072/BORA/CARBON/from-Arr/AIRSS/Generating-Clusters/GAP-ML-2020/Higher-Symm/SD-CG/HFTN-CG
REM
REM
REM
REM
REM
REM ./C.cell (b20cbc046b6831c77cfcea5457e17084)
REM AIRSS Version 0.9.1 bugfix July 2018 build 013d7b7c2542+ Fri, 06 Jul 2018 19:26:36 +0100
REM compiler GCC version 9.3.0
REM options -cpp -mtune=generic -march=x86-64 -g -O0
REM seed -1820160335 -981266353 1378063673 157753934 -298434898 776764665 -575629043 -14645054 1814461278 -1232397737 694033513 -1223984902 1275482996 -2091912494 521285913 -290868945 852353627 -1836023267 1586221814 -2083253902 -20681045 -763715188 235906390 -1327363633 -798861291 -72844681 -1841685453 -911094380 1665333474 -1017342616 7581625 1886159695 744244072
REM
CELL 1.54180   50.00000   50.00000   50.00000   90.00000   90.00000   90.00000
LATT -1
SFAC C  
C      1  0.5495230000000  0.5110870000000  0.4723730000000 1.0
C      1  0.5099350000000  0.4728910000000  0.5501570000000 1.0
C      1  0.4717390000000  0.5506750000000  0.5105690000000 1.0
C      1  0.5495230000000  0.4920850000000  0.5297630000000 1.0
C      1  0.4513450000000  0.5110870000000  0.5297630000000 1.0
C      1  0.4513450000000  0.4920850000000  0.4723730000000 1.0
C      1  0.5099350000000  0.5302810000000  0.4519790000000 1.0
C      1  0.4909330000000  0.4728910000000  0.4519790000000 1.0
C      1  0.4909330000000  0.5302810000000  0.5501570000000 1.0
C      1  0.4717390000000  0.4524970000000  0.4915670000000 1.0
C      1  0.5291280000000  0.5506750000000  0.4915670000000 1.0
C      1  0.5291290000000  0.4524970000000  0.5105690000000 1.0
C      1  0.5495230000000  0.4728910000000  0.5105690000000 1.0
C      1  0.5099350000000  0.5506750000000  0.4723730000000 1.0
C      1  0.4717390000000  0.5110870000000  0.5501570000000 1.0
C      1  0.5495230000000  0.5302810000000  0.4915670000000 1.0
C      1  0.4513450000000  0.5302810000000  0.5105690000000 1.0
C      1  0.4513450000000  0.4728910000000  0.4915670000000 1.0
C      1  0.5099350000000  0.4524970000000  0.5297630000000 1.0
C      1  0.4909330000000  0.4524970000000  0.4723730000000 1.0
C      1  0.4909330000000  0.5506750000000  0.5297630000000 1.0
C      1  0.4717390000000  0.4920850000000  0.4519790000000 1.0
C      1  0.5291290000000  0.4920850000000  0.5501570000000 1.0
C      1  0.5291290000000  0.5110870000000  0.4519790000000 1.0
C      1  0.5521420000000  0.5015860000000  0.5010680000000 1.0
C      1  0.5004340000000  0.5532940000000  0.5010680000000 1.0
C      1  0.4487260000000  0.5015860000000  0.5010680000000 1.0
C      1  0.5004340000000  0.5015860000000  0.4493600000000 1.0
C      1  0.5004340000000  0.5015860000000  0.5527760000000 1.0
C      1  0.5004340000000  0.4498780000000  0.5010680000000 1.0
END
