TITL C-22438-4506-10 -0.0378375315791487 125000 -674.731790162474 0 0 97 (C3) n - 1
REM
REM in /rds/project/t2_vol4/rds-t2-cs072/BORA/CARBON/from-Arr/AIRSS/Generating-Clusters/GAP-ML-2020/Higher-Symm/SD-CG/HFTN-CG
REM
REM
REM
REM
REM
REM ./C.cell (b20cbc046b6831c77cfcea5457e17084)
REM AIRSS Version 0.9.1 bugfix July 2018 build 013d7b7c2542+ Fri, 06 Jul 2018 19:26:36 +0100
REM compiler GCC version 9.3.0
REM options -cpp -mtune=generic -march=x86-64 -g -O0
REM seed -110981570 986570117 -1553561869 1751098844 2012049293 126137710 -903957511 -126780421 -238864225 -999368884 1472388361 -1191539761 -619534258 -2108919609 -796098049 889392958 632246331 -2026911847 -393205289 -414376385 -106868913 -851254574 -1364810004 -1013553994 1473888922 1857604208 1152224276 705072959 -1889829089 -937657592 -1360231797 420999339 -2089916287
REM
CELL 1.54180   50.00000   50.00000   50.00000   90.00000   90.00000   90.00000
LATT -1
SFAC C  
C      1  0.5600650000000  0.4803600000000  0.4586310000000 1.0
C      1  0.4378500000000  0.4546000000000  0.4962900000000 1.0
C      1  0.5600690000000  0.4743960000000  0.5378180000000 1.0
C      1  0.4378470000000  0.5198700000000  0.5412970000000 1.0
C      1  0.5600620000000  0.5459560000000  0.5033900000000 1.0
C      1  0.4378430000000  0.5262130000000  0.4622680000000 1.0
C      1  0.5168250000000  0.5721160000000  0.4517670000000 1.0
C      1  0.4831170000000  0.4942090000000  0.4159860000000 1.0
C      1  0.5168380000000  0.4225670000000  0.4617870000000 1.0
C      1  0.4831280000000  0.4305280000000  0.5471470000000 1.0
C      1  0.5168360000000  0.5060190000000  0.5862910000000 1.0
C      1  0.4831160000000  0.5759570000000  0.5367160000000 1.0
C      1  0.4459850000000  0.5465620000000  0.5430390000000 1.0
C      1  0.5518530000000  0.5611990000000  0.4809290000000 1.0
C      1  0.4459820000000  0.5143760000000  0.4382820000000 1.0
C      1  0.5518600000000  0.4532850000000  0.4566610000000 1.0
C      1  0.4459920000000  0.4397470000000  0.5185340000000 1.0
C      1  0.5518620000000  0.4862260000000  0.5622510000000 1.0
C      1  0.5280160000000  0.5780330000000  0.4779720000000 1.0
C      1  0.4741700000000  0.5190110000000  0.4295210000000 1.0
C      1  0.5280250000000  0.4423050000000  0.4435610000000 1.0
C      1  0.4741810000000  0.4298470000000  0.5189000000000 1.0
C      1  0.5280280000000  0.4803670000000  0.5783100000000 1.0
C      1  0.4741730000000  0.5518340000000  0.5514290000000 1.0
C      1  0.5099930000000  0.4900040000000  0.5277740000000 1.0
C      1  0.4847970000000  0.5288110000000  0.5307770000000 1.0
C      1  0.5099880000000  0.5294450000000  0.4948950000000 1.0
C      1  0.4847950000000  0.5126390000000  0.4597860000000 1.0
C      1  0.5099910000000  0.4812510000000  0.4771770000000 1.0
C      1  0.4848020000000  0.4592450000000  0.5092870000000 1.0
C      1  0.4419150000000  0.4837340000000  0.5050000000000 1.0
C      1  0.5562960000000  0.4971410000000  0.5170340000000 1.0
C      1  0.4419130000000  0.5128470000000  0.5117120000000 1.0
C      1  0.5562930000000  0.5165840000000  0.4940840000000 1.0
C      1  0.4419120000000  0.5041040000000  0.4831430000000 1.0
C      1  0.5562950000000  0.4869870000000  0.4887210000000 1.0
C      1  0.4732650000000  0.5624340000000  0.4695930000000 1.0
C      1  0.5267610000000  0.5054800000000  0.4299490000000 1.0
C      1  0.4732740000000  0.4428390000000  0.4612600000000 1.0
C      1  0.5267710000000  0.4369920000000  0.5304050000000 1.0
C      1  0.4732750000000  0.4954200000000  0.5689980000000 1.0
C      1  0.5267620000000  0.5582330000000  0.5394890000000 1.0
C      1  0.5689800000000  0.4400010000000  0.5060620000000 1.0
C      1  0.4305400000000  0.4755090000000  0.5558270000000 1.0
C      1  0.5689750000000  0.5356530000000  0.5490550000000 1.0
C      1  0.4305310000000  0.5609760000000  0.4934220000000 1.0
C      1  0.5689710000000  0.5250600000000  0.4447210000000 1.0
C      1  0.4305370000000  0.4641980000000  0.4506080000000 1.0
C      1  0.4662110000000  0.4910630000000  0.4684660000000 1.0
C      1  0.5315420000000  0.4672370000000  0.4917680000000 1.0
C      1  0.4662150000000  0.4775480000000  0.5236320000000 1.0
C      1  0.5315410000000  0.5096510000000  0.5326150000000 1.0
C      1  0.4662100000000  0.5320800000000  0.5077540000000 1.0
C      1  0.5315370000000  0.5238180000000  0.4754600000000 1.0
C      1  0.5519120000000  0.5438780000000  0.4567620000000 1.0
C      1  0.4471980000000  0.4847050000000  0.4419150000000 1.0
C      1  0.5519210000000  0.4410170000000  0.4837450000000 1.0
C      1  0.4472050000000  0.4577290000000  0.5424130000000 1.0
C      1  0.5519190000000  0.5158160000000  0.5593330000000 1.0
C      1  0.4471960000000  0.5582510000000  0.5155260000000 1.0
C      1  0.5335600000000  0.5538570000000  0.4375900000000 1.0
C      1  0.4661070000000  0.4734820000000  0.4236410000000 1.0
C      1  0.5335720000000  0.4194210000000  0.4846880000000 1.0
C      1  0.4661150000000  0.4475180000000  0.5612700000000 1.0
C      1  0.5335680000000  0.5274280000000  0.5775640000000 1.0
C      1  0.4661020000000  0.5796910000000  0.5149410000000 1.0
C      1  0.5144020000000  0.5337210000000  0.5245480000000 1.0
C      1  0.4834580000000  0.5346130000000  0.4825530000000 1.0
C      1  0.5144020000000  0.5047950000000  0.4586480000000 1.0
C      1  0.4834630000000  0.4679750000000  0.4788730000000 1.0
C      1  0.5144080000000  0.4621860000000  0.5166490000000 1.0
C      1  0.4834630000000  0.4981060000000  0.5384230000000 1.0
C      1  0.4917700000000  0.5420800000000  0.4267760000000 1.0
C      1  0.5085470000000  0.4570300000000  0.4282510000000 1.0
C      1  0.4917830000000  0.4159380000000  0.5002950000000 1.0
C      1  0.5085530000000  0.4597430000000  0.5732130000000 1.0
C      1  0.4917760000000  0.5426790000000  0.5727780000000 1.0
C      1  0.5085400000000  0.5839280000000  0.4983820000000 1.0
C      1  0.5565370000000  0.4471280000000  0.5291170000000 1.0
C      1  0.4427610000000  0.4995020000000  0.5607190000000 1.0
C      1  0.5565290000000  0.5520540000000  0.5313550000000 1.0
C      1  0.4427530000000  0.5532180000000  0.4701970000000 1.0
C      1  0.5565290000000  0.5015290000000  0.4393670000000 1.0
C      1  0.4427610000000  0.4479650000000  0.4689380000000 1.0
C      1  0.4808820000000  0.4515730000000  0.4336160000000 1.0
C      1  0.5188720000000  0.4173130000000  0.5085580000000 1.0
C      1  0.4808870000000  0.4671140000000  0.5752560000000 1.0
C      1  0.5188640000000  0.5491510000000  0.5674550000000 1.0
C      1  0.4808750000000  0.5820070000000  0.4909770000000 1.0
C      1  0.5188590000000  0.5342390000000  0.4238320000000 1.0
C      1  0.5097650000000  0.5788040000000  0.5272110000000 1.0
C      1  0.4902000000000  0.5640720000000  0.4456990000000 1.0
C      1  0.5097670000000  0.4845580000000  0.4182730000000 1.0
C      1  0.4902120000000  0.4213290000000  0.4717880000000 1.0
C      1  0.5097770000000  0.4373390000000  0.5543620000000 1.0
C      1  0.4902090000000  0.5152950000000  0.5823620000000 1.0
C      1  0.5054010000000  0.5002330000000  0.4999490000000 1.0
END
