TITL C-22171-1924-2 -73.4681607150855 125000 -87.8201325625635 0 0 14 (Cs) n - 1
REM
REM in /rds/project/t2_vol4/rds-t2-cs072/BORA/CARBON/from-Arr/AIRSS/Generating-Clusters/GAP-ML-2020/Higher-Symm/SD-CG/HFTN-CG
REM
REM
REM
REM
REM
REM ./C.cell (b20cbc046b6831c77cfcea5457e17084)
REM AIRSS Version 0.9.1 bugfix July 2018 build 013d7b7c2542+ Fri, 06 Jul 2018 19:26:36 +0100
REM compiler GCC version 9.3.0
REM options -cpp -mtune=generic -march=x86-64 -g -O0
REM seed -165907172 1895864290 1400946275 -1271130376 -1670572181 1640453952 -1838622917 961718721 628968399 159770774 294581726 136363630 1481558965 -1519652160 -1340289705 698853814 -1162780597 -1641326199 1761316190 -2117773116 1273010421 1884735809 1071862090 -1529982799 -323834818 1687983534 -1951116660 2045369063 -1363528609 -1136956506 -810676843 -660522678 1609271091
REM
CELL 1.54180   50.00000   50.00000   50.00000   90.00000   90.00000   90.00000
LATT -1
SFAC C  
C      1  0.4799420000000  0.5066180000000  0.5183250000000 1.0
C      1  0.5214890000000  0.5070430000000  0.4858150000000 1.0
C      1  0.5322830000000  0.4305860000000  0.4830990000000 1.0
C      1  0.4756910000000  0.4300080000000  0.5273980000000 1.0
C      1  0.4761300000000  0.4562580000000  0.5265860000000 1.0
C      1  0.5310590000000  0.4568200000000  0.4835950000000 1.0
C      1  0.4674850000000  0.5318900000000  0.5232940000000 1.0
C      1  0.5289860000000  0.5325190000000  0.4751710000000 1.0
C      1  0.4746970000000  0.4812840000000  0.5233970000000 1.0
C      1  0.5279930000000  0.4818300000000  0.4816910000000 1.0
C      1  0.4826630000000  0.5532190000000  0.5215940000000 1.0
C      1  0.5234160000000  0.5536360000000  0.4897050000000 1.0
C      1  0.5064210000000  0.5444970000000  0.5098540000000 1.0
C      1  0.5041500000000  0.5153400000000  0.5065700000000 1.0
END
