TITL C-22457-4571-8 -30.3862070001784 125000 -798.317472476929 0 0 110 (Cs) n - 1
REM
REM in /rds/project/t2_vol4/rds-t2-cs072/BORA/CARBON/from-Arr/AIRSS/Generating-Clusters/GAP-ML-2020/Higher-Symm/SD-CG/HFTN-CG
REM
REM
REM
REM
REM
REM ./C.cell (b20cbc046b6831c77cfcea5457e17084)
REM AIRSS Version 0.9.1 bugfix July 2018 build 013d7b7c2542+ Fri, 06 Jul 2018 19:26:36 +0100
REM compiler GCC version 9.3.0
REM options -cpp -mtune=generic -march=x86-64 -g -O0
REM seed 1931624891 -121305425 245063918 1926170825 921879327 -961916047 1510092517 -1140679868 -429595373 85806520 -604204007 -1300393504 -460133315 917850123 -1574535324 1139495882 -1248837461 -59456372 896360698 -1421448824 419030641 -1810252370 -1968519638 2091438755 754997630 -256614315 1910754279 1760809111 1601109150 1911693282 -838558585 -1358590251 47273395
REM
CELL 1.54180   50.00000   50.00000   50.00000   90.00000   90.00000   90.00000
LATT -1
SFAC C  
C      1  0.4250040000000  0.4621520000000  0.4776240000000 1.0
C      1  0.5749940000000  0.4621350000000  0.4776430000000 1.0
C      1  0.4732400000000  0.5679050000000  0.4784700000000 1.0
C      1  0.5267800000000  0.5678990000000  0.4784770000000 1.0
C      1  0.5873250000000  0.5492560000000  0.4928970000000 1.0
C      1  0.4126870000000  0.5492750000000  0.4928750000000 1.0
C      1  0.4257950000000  0.4704640000000  0.4506900000000 1.0
C      1  0.5742110000000  0.4704480000000  0.4507090000000 1.0
C      1  0.4321450000000  0.5549800000000  0.4516580000000 1.0
C      1  0.5678790000000  0.5549650000000  0.4516750000000 1.0
C      1  0.4090160000000  0.5257740000000  0.5081590000000 1.0
C      1  0.5909880000000  0.5257540000000  0.5081820000000 1.0
C      1  0.5290870000000  0.5499630000000  0.4298370000000 1.0
C      1  0.4709420000000  0.5499690000000  0.4298300000000 1.0
C      1  0.5792800000000  0.4980600000000  0.4431700000000 1.0
C      1  0.4207330000000  0.4980770000000  0.4431510000000 1.0
C      1  0.5566160000000  0.5408780000000  0.5423610000000 1.0
C      1  0.4433820000000  0.5408900000000  0.5423470000000 1.0
C      1  0.4369790000000  0.4508220000000  0.5205430000000 1.0
C      1  0.5630050000000  0.4508080000000  0.5205580000000 1.0
C      1  0.4851670000000  0.4197890000000  0.4985370000000 1.0
C      1  0.5148150000000  0.4197860000000  0.4985410000000 1.0
C      1  0.4307940000000  0.5691530000000  0.4968860000000 1.0
C      1  0.5692220000000  0.5691380000000  0.4969040000000 1.0
C      1  0.5317240000000  0.5562790000000  0.5321380000000 1.0
C      1  0.4682800000000  0.5562860000000  0.5321300000000 1.0
C      1  0.5153450000000  0.5056370000000  0.4213940000000 1.0
C      1  0.4846760000000  0.5056400000000  0.4213900000000 1.0
C      1  0.5618870000000  0.5118130000000  0.4247610000000 1.0
C      1  0.4381340000000  0.5118270000000  0.4247450000000 1.0
C      1  0.4836900000000  0.4473140000000  0.4590240000000 1.0
C      1  0.5163090000000  0.4473100000000  0.4590280000000 1.0
C      1  0.5275750000000  0.4284680000000  0.5480400000000 1.0
C      1  0.4723970000000  0.4284740000000  0.5480330000000 1.0
C      1  0.4716440000000  0.5044200000000  0.5960210000000 1.0
C      1  0.5283330000000  0.5044140000000  0.5960290000000 1.0
C      1  0.4718970000000  0.4587290000000  0.5832070000000 1.0
C      1  0.5280730000000  0.4587230000000  0.5832140000000 1.0
C      1  0.4037590000000  0.5046150000000  0.4895750000000 1.0
C      1  0.5962450000000  0.5045940000000  0.4896000000000 1.0
C      1  0.4854440000000  0.4780260000000  0.4975610000000 1.0
C      1  0.5145520000000  0.4780230000000  0.4975650000000 1.0
C      1  0.4484640000000  0.4627910000000  0.5673520000000 1.0
C      1  0.5515110000000  0.4627800000000  0.5673650000000 1.0
C      1  0.5799550000000  0.4738250000000  0.5224140000000 1.0
C      1  0.4200330000000  0.4738430000000  0.5223940000000 1.0
C      1  0.5139320000000  0.5345110000000  0.4129240000000 1.0
C      1  0.4860970000000  0.5345140000000  0.4129210000000 1.0
C      1  0.4752950000000  0.5231430000000  0.4698040000000 1.0
C      1  0.5247180000000  0.5231370000000  0.4698100000000 1.0
C      1  0.4362550000000  0.4879960000000  0.5656280000000 1.0
C      1  0.5637260000000  0.4879820000000  0.5656440000000 1.0
C      1  0.5137940000000  0.5290040000000  0.5950080000000 1.0
C      1  0.4861890000000  0.5290070000000  0.5950050000000 1.0
C      1  0.4826630000000  0.5529400000000  0.5057090000000 1.0
C      1  0.5173470000000  0.5529360000000  0.5057140000000 1.0
C      1  0.4078150000000  0.5138580000000  0.4627930000000 1.0
C      1  0.5921980000000  0.5138370000000  0.4628160000000 1.0
C      1  0.5554540000000  0.5400110000000  0.4311760000000 1.0
C      1  0.4445720000000  0.5400230000000  0.4311620000000 1.0
C      1  0.5267090000000  0.5469870000000  0.5772780000000 1.0
C      1  0.4732820000000  0.5469930000000  0.5772710000000 1.0
C      1  0.5157940000000  0.4774120000000  0.4673150000000 1.0
C      1  0.4842100000000  0.4774160000000  0.4673110000000 1.0
C      1  0.5878930000000  0.5415440000000  0.4651150000000 1.0
C      1  0.4121250000000  0.5415640000000  0.4650930000000 1.0
C      1  0.5505400000000  0.4447120000000  0.5448960000000 1.0
C      1  0.4494360000000  0.4447230000000  0.5448830000000 1.0
C      1  0.4233590000000  0.5221090000000  0.5318680000000 1.0
C      1  0.5766370000000  0.5220930000000  0.5318870000000 1.0
C      1  0.5146000000000  0.4796490000000  0.5965420000000 1.0
C      1  0.4853720000000  0.4796520000000  0.5965380000000 1.0
C      1  0.4684930000000  0.4463650000000  0.4334540000000 1.0
C      1  0.5315120000000  0.4463580000000  0.4334620000000 1.0
C      1  0.5413610000000  0.4662620000000  0.4155040000000 1.0
C      1  0.4586520000000  0.4662710000000  0.4154940000000 1.0
C      1  0.4868020000000  0.4973340000000  0.5379910000000 1.0
C      1  0.5131880000000  0.4973310000000  0.5379950000000 1.0
C      1  0.5264700000000  0.5240950000000  0.4972800000000 1.0
C      1  0.4735360000000  0.5241000000000  0.4972730000000 1.0
C      1  0.4463000000000  0.5707110000000  0.4735810000000 1.0
C      1  0.5537220000000  0.5707000000000  0.4735940000000 1.0
C      1  0.4595940000000  0.4943030000000  0.4122270000000 1.0
C      1  0.5404270000000  0.4942940000000  0.4122370000000 1.0
C      1  0.5144980000000  0.4157150000000  0.5273290000000 1.0
C      1  0.4854760000000  0.4157180000000  0.5273250000000 1.0
C      1  0.4231710000000  0.4947320000000  0.5415940000000 1.0
C      1  0.5768170000000  0.4947150000000  0.5416130000000 1.0
C      1  0.4493200000000  0.5345020000000  0.5690930000000 1.0
C      1  0.5506700000000  0.5344910000000  0.5691060000000 1.0
C      1  0.4109660000000  0.4787900000000  0.4963800000000 1.0
C      1  0.5890300000000  0.4787700000000  0.4964030000000 1.0
C      1  0.5318720000000  0.4332910000000  0.4816060000000 1.0
C      1  0.4681170000000  0.4332980000000  0.4815980000000 1.0
C      1  0.4862110000000  0.4374080000000  0.5712280000000 1.0
C      1  0.5137580000000  0.4374050000000  0.5712320000000 1.0
C      1  0.4856460000000  0.5594510000000  0.5550210000000 1.0
C      1  0.5143530000000  0.5594480000000  0.5550250000000 1.0
C      1  0.4851480000000  0.5526770000000  0.4564880000000 1.0
C      1  0.5148750000000  0.5526740000000  0.4564920000000 1.0
C      1  0.4413810000000  0.4542150000000  0.4334200000000 1.0
C      1  0.5586260000000  0.4542020000000  0.4334350000000 1.0
C      1  0.5263280000000  0.5000330000000  0.5128430000000 1.0
C      1  0.4736690000000  0.5000390000000  0.5128360000000 1.0
C      1  0.5238490000000  0.5013650000000  0.4534550000000 1.0
C      1  0.4761630000000  0.5013700000000  0.4534490000000 1.0
C      1  0.5566290000000  0.4452900000000  0.4921190000000 1.0
C      1  0.4433610000000  0.4453030000000  0.4921040000000 1.0
C      1  0.5522030000000  0.5085210000000  0.5809570000000 1.0
C      1  0.4477780000000  0.5085330000000  0.5809440000000 1.0
END
