TITL C-22180-1977-4 -25.9698330993711 125000 -388.998521414107 0 0 58 (C1) n - 1
REM
REM in /rds/project/t2_vol4/rds-t2-cs072/BORA/CARBON/from-Arr/AIRSS/Generating-Clusters/GAP-ML-2020/Higher-Symm/SD-CG/HFTN-CG
REM
REM
REM
REM
REM
REM ./C.cell (b20cbc046b6831c77cfcea5457e17084)
REM AIRSS Version 0.9.1 bugfix July 2018 build 013d7b7c2542+ Fri, 06 Jul 2018 19:26:36 +0100
REM compiler GCC version 9.3.0
REM options -cpp -mtune=generic -march=x86-64 -g -O0
REM seed 953024522 263384283 -516256827 237437245 -1782044222 379358969 -65359040 267075038 31881199 907339882 1529489811 1644132344 -1492184877 1059075153 530144877 593213655 -398310626 -341565734 -786560857 646995369 284336916 2092134858 -634393055 1706835166 -1204640109 363812079 831982539 141656827 2005124917 598745120 -58527432 828410974 -910647229
REM
CELL 1.54180   50.00000   50.00000   50.00000   90.00000   90.00000   90.00000
LATT -1
SFAC C  
C      1  0.5271000000000  0.5313430000000  0.5483930000000 1.0
C      1  0.5390150000000  0.4846200000000  0.5482980000000 1.0
C      1  0.4984500000000  0.4602120000000  0.5466400000000 1.0
C      1  0.4625870000000  0.4902820000000  0.5461840000000 1.0
C      1  0.4792460000000  0.5348970000000  0.5486290000000 1.0
C      1  0.4636240000000  0.5562480000000  0.4498520000000 1.0
C      1  0.5312530000000  0.5386640000000  0.4483000000000 1.0
C      1  0.5621500000000  0.4740100000000  0.4500320000000 1.0
C      1  0.4991370000000  0.4414670000000  0.4471710000000 1.0
C      1  0.4443330000000  0.4861940000000  0.4472550000000 1.0
C      1  0.4991650000000  0.4757710000000  0.5709830000000 1.0
C      1  0.4774630000000  0.4939500000000  0.5708570000000 1.0
C      1  0.4881280000000  0.5203320000000  0.5720250000000 1.0
C      1  0.5166960000000  0.5184370000000  0.5722880000000 1.0
C      1  0.5234410000000  0.4906010000000  0.5719380000000 1.0
C      1  0.5163460000000  0.5350970000000  0.4915430000000 1.0
C      1  0.5502510000000  0.4898860000000  0.4910110000000 1.0
C      1  0.5075470000000  0.4579130000000  0.4884080000000 1.0
C      1  0.4641140000000  0.4796320000000  0.4880820000000 1.0
C      1  0.4650160000000  0.5359480000000  0.4898660000000 1.0
C      1  0.4316270000000  0.4553620000000  0.5078820000000 1.0
C      1  0.4357340000000  0.5538030000000  0.5098690000000 1.0
C      1  0.5307440000000  0.5761480000000  0.5073230000000 1.0
C      1  0.5843940000000  0.4933570000000  0.5095880000000 1.0
C      1  0.5204780000000  0.4193510000000  0.5091590000000 1.0
C      1  0.4821300000000  0.4404080000000  0.4911840000000 1.0
C      1  0.4399000000000  0.5006490000000  0.4921330000000 1.0
C      1  0.4800950000000  0.5620710000000  0.4944350000000 1.0
C      1  0.5482150000000  0.5335470000000  0.4920700000000 1.0
C      1  0.5535360000000  0.4594940000000  0.4942580000000 1.0
C      1  0.5516620000000  0.5632150000000  0.5000840000000 1.0
C      1  0.5804190000000  0.4678540000000  0.5045500000000 1.0
C      1  0.4962120000000  0.4157910000000  0.5014010000000 1.0
C      1  0.4212590000000  0.4780690000000  0.5018000000000 1.0
C      1  0.4538740000000  0.5718830000000  0.5049490000000 1.0
C      1  0.4629590000000  0.4565820000000  0.5080100000000 1.0
C      1  0.4471080000000  0.5239300000000  0.5099020000000 1.0
C      1  0.5052450000000  0.5573380000000  0.5102640000000 1.0
C      1  0.5581400000000  0.5112760000000  0.5103340000000 1.0
C      1  0.5301120000000  0.4494690000000  0.5098520000000 1.0
C      1  0.5505650000000  0.5247310000000  0.4625370000000 1.0
C      1  0.5485300000000  0.4540520000000  0.4641080000000 1.0
C      1  0.4753490000000  0.4446860000000  0.4606970000000 1.0
C      1  0.4401480000000  0.5094200000000  0.4624280000000 1.0
C      1  0.4870680000000  0.5625670000000  0.4644940000000 1.0
C      1  0.5454210000000  0.5107920000000  0.5362070000000 1.0
C      1  0.5255440000000  0.4621030000000  0.5352610000000 1.0
C      1  0.4728740000000  0.4652830000000  0.5338450000000 1.0
C      1  0.4596380000000  0.5170150000000  0.5349650000000 1.0
C      1  0.5033830000000  0.5462330000000  0.5368960000000 1.0
C      1  0.5575180000000  0.4974710000000  0.4639990000000 1.0
C      1  0.5207540000000  0.4485730000000  0.4632420000000 1.0
C      1  0.4576020000000  0.4667860000000  0.4614270000000 1.0
C      1  0.4528080000000  0.5348010000000  0.4633640000000 1.0
C      1  0.5107860000000  0.5469280000000  0.4647720000000 1.0
C      1  0.4938730000000  0.4856980000000  0.4830890000000 1.0
C      1  0.5026790000000  0.5018580000000  0.5247230000000 1.0
C      1  0.5041220000000  0.5064450000000  0.4981710000000 1.0
END
