TITL C-22176-1988-3 -0.409177980025403 125000 -849.764582007852 0 0 120 (D2d) n - 1
REM
REM in /rds/project/t2_vol4/rds-t2-cs072/BORA/CARBON/from-Arr/AIRSS/Generating-Clusters/GAP-ML-2020/Higher-Symm/SD-CG/HFTN-CG
REM
REM
REM
REM
REM
REM ./C.cell (b20cbc046b6831c77cfcea5457e17084)
REM AIRSS Version 0.9.1 bugfix July 2018 build 013d7b7c2542+ Fri, 06 Jul 2018 19:26:36 +0100
REM compiler GCC version 9.3.0
REM options -cpp -mtune=generic -march=x86-64 -g -O0
REM seed 747019172 872375728 768843221 -658779231 -77471235 192791819 1054972990 -1667875595 841772007 1279347445 -466751625 -459620280 -1202109700 1594137288 -282576857 951868631 -1991259919 503789857 -697911805 -848088012 1511385053 -494453908 1117923999 1054165507 -2141834998 -1611748660 -1763949144 -464902426 -1147807045 106072171 326991866 -806881354 138376879
REM
CELL 1.54180   50.00000   50.00000   50.00000   90.00000   90.00000   90.00000
LATT -1
SFAC C  
C      1  0.4598970000000  0.4106280000000  0.4758370000000 1.0
C      1  0.5401030000000  0.5893780000000  0.4758570000000 1.0
C      1  0.5401030000000  0.4106220000000  0.5241430000000 1.0
C      1  0.4598970000000  0.5893720000000  0.5241630000000 1.0
C      1  0.4106250000000  0.4598990000000  0.4758430000000 1.0
C      1  0.5893750000000  0.5401060000000  0.4758510000000 1.0
C      1  0.4106250000000  0.5401010000000  0.5241580000000 1.0
C      1  0.5893750000000  0.4598940000000  0.5241480000000 1.0
C      1  0.4579010000000  0.5819710000000  0.4954110000000 1.0
C      1  0.5420990000000  0.4180300000000  0.4953920000000 1.0
C      1  0.5420990000000  0.5819700000000  0.5046070000000 1.0
C      1  0.4579010000000  0.4180290000000  0.5045900000000 1.0
C      1  0.5819700000000  0.4579010000000  0.4953960000000 1.0
C      1  0.4180300000000  0.5421000000000  0.4954070000000 1.0
C      1  0.5819700000000  0.5420990000000  0.5046030000000 1.0
C      1  0.4180300000000  0.4579000000000  0.5045940000000 1.0
C      1  0.3894390000000  0.4785160000000  0.4839620000000 1.0
C      1  0.6105610000000  0.5214870000000  0.4839650000000 1.0
C      1  0.6105610000000  0.4785130000000  0.5160330000000 1.0
C      1  0.3894390000000  0.5214840000000  0.5160400000000 1.0
C      1  0.4785140000000  0.3894410000000  0.4839510000000 1.0
C      1  0.5214850000000  0.6105630000000  0.4839760000000 1.0
C      1  0.4785150000000  0.6105590000000  0.5160490000000 1.0
C      1  0.5214860000000  0.3894370000000  0.5160240000000 1.0
C      1  0.5300230000000  0.5779140000000  0.4516950000000 1.0
C      1  0.4699760000000  0.4220970000000  0.4516790000000 1.0
C      1  0.4699770000000  0.5779030000000  0.5483220000000 1.0
C      1  0.5300240000000  0.4220860000000  0.5483040000000 1.0
C      1  0.5779080000000  0.5300290000000  0.4516900000000 1.0
C      1  0.4220910000000  0.4699820000000  0.4516840000000 1.0
C      1  0.5779090000000  0.4699710000000  0.5483090000000 1.0
C      1  0.4220920000000  0.5300180000000  0.5483170000000 1.0
C      1  0.4564010000000  0.4934010000000  0.5120420000000 1.0
C      1  0.5435990000000  0.5065960000000  0.5120430000000 1.0
C      1  0.5435990000000  0.4934040000000  0.4879570000000 1.0
C      1  0.4564010000000  0.5065990000000  0.4879590000000 1.0
C      1  0.4934030000000  0.4564000000000  0.5120370000000 1.0
C      1  0.5065980000000  0.5435980000000  0.5120470000000 1.0
C      1  0.4934020000000  0.5436000000000  0.4879630000000 1.0
C      1  0.5065970000000  0.4564020000000  0.4879530000000 1.0
C      1  0.5466650000000  0.4948200000000  0.5719410000000 1.0
C      1  0.4533350000000  0.5051640000000  0.5719430000000 1.0
C      1  0.4533350000000  0.4948360000000  0.4280580000000 1.0
C      1  0.5466650000000  0.5051800000000  0.4280580000000 1.0
C      1  0.4948280000000  0.5466570000000  0.5719470000000 1.0
C      1  0.5051730000000  0.4533270000000  0.5719370000000 1.0
C      1  0.4948270000000  0.4533430000000  0.4280530000000 1.0
C      1  0.5051720000000  0.5466730000000  0.4280630000000 1.0
C      1  0.4965680000000  0.3940060000000  0.5294430000000 1.0
C      1  0.5034320000000  0.6059870000000  0.5294660000000 1.0
C      1  0.5034320000000  0.3940130000000  0.4705340000000 1.0
C      1  0.4965680000000  0.6059940000000  0.4705570000000 1.0
C      1  0.3940100000000  0.4965650000000  0.5294550000000 1.0
C      1  0.6059900000000  0.5034290000000  0.5294540000000 1.0
C      1  0.3940100000000  0.5034350000000  0.4705460000000 1.0
C      1  0.6059900000000  0.4965710000000  0.4705440000000 1.0
C      1  0.4790790000000  0.4999200000000  0.5613580000000 1.0
C      1  0.5209220000000  0.5000670000000  0.5613580000000 1.0
C      1  0.5209210000000  0.4999330000000  0.4386420000000 1.0
C      1  0.4790780000000  0.5000800000000  0.4386420000000 1.0
C      1  0.4999270000000  0.4790720000000  0.5613560000000 1.0
C      1  0.5000740000000  0.5209150000000  0.5613600000000 1.0
C      1  0.4999260000000  0.5209280000000  0.4386440000000 1.0
C      1  0.5000730000000  0.4790850000000  0.4386400000000 1.0
C      1  0.5533900000000  0.5331330000000  0.4367040000000 1.0
C      1  0.4466090000000  0.4668810000000  0.4366980000000 1.0
C      1  0.4466100000000  0.5331190000000  0.5633030000000 1.0
C      1  0.5533910000000  0.4668670000000  0.5632950000000 1.0
C      1  0.5331260000000  0.5533970000000  0.4367070000000 1.0
C      1  0.4668730000000  0.4466170000000  0.4366950000000 1.0
C      1  0.5331270000000  0.4466030000000  0.5632930000000 1.0
C      1  0.4668740000000  0.5533830000000  0.5633050000000 1.0
C      1  0.4998840000000  0.5212300000000  0.5296450000000 1.0
C      1  0.5001160000000  0.4787640000000  0.5296400000000 1.0
C      1  0.5001160000000  0.5212360000000  0.4703600000000 1.0
C      1  0.4998840000000  0.4787700000000  0.4703550000000 1.0
C      1  0.5212330000000  0.4998800000000  0.5296430000000 1.0
C      1  0.4787670000000  0.5001130000000  0.5296430000000 1.0
C      1  0.5212330000000  0.5001200000000  0.4703570000000 1.0
C      1  0.4787670000000  0.4998870000000  0.4703570000000 1.0
C      1  0.5015350000000  0.5864460000000  0.4500550000000 1.0
C      1  0.4984650000000  0.4135650000000  0.4500360000000 1.0
C      1  0.4984650000000  0.5864350000000  0.5499640000000 1.0
C      1  0.5015350000000  0.4135540000000  0.5499450000000 1.0
C      1  0.5864400000000  0.5015410000000  0.4500450000000 1.0
C      1  0.4135590000000  0.4984700000000  0.4500460000000 1.0
C      1  0.5864410000000  0.4984590000000  0.5499540000000 1.0
C      1  0.4135600000000  0.5015300000000  0.5499560000000 1.0
C      1  0.5344950000000  0.4436480000000  0.4823790000000 1.0
C      1  0.4655050000000  0.5563560000000  0.4823920000000 1.0
C      1  0.4655050000000  0.4436440000000  0.5176080000000 1.0
C      1  0.5344950000000  0.5563520000000  0.5176200000000 1.0
C      1  0.4436460000000  0.5344970000000  0.4823900000000 1.0
C      1  0.5563540000000  0.4655070000000  0.4823810000000 1.0
C      1  0.4436460000000  0.4655030000000  0.5176110000000 1.0
C      1  0.5563540000000  0.5344930000000  0.5176180000000 1.0
C      1  0.4744050000000  0.3946450000000  0.5120300000000 1.0
C      1  0.5255950000000  0.6053520000000  0.5120520000000 1.0
C      1  0.5255950000000  0.3946480000000  0.4879470000000 1.0
C      1  0.4744050000000  0.6053550000000  0.4879710000000 1.0
C      1  0.3946470000000  0.4744040000000  0.5120390000000 1.0
C      1  0.6053540000000  0.5255940000000  0.5120430000000 1.0
C      1  0.3946460000000  0.5255960000000  0.4879630000000 1.0
C      1  0.6053530000000  0.4744060000000  0.4879560000000 1.0
C      1  0.4422630000000  0.4622810000000  0.5484890000000 1.0
C      1  0.5577380000000  0.5377080000000  0.5484960000000 1.0
C      1  0.5577370000000  0.4622920000000  0.4515030000000 1.0
C      1  0.4422620000000  0.5377190000000  0.4515120000000 1.0
C      1  0.4622870000000  0.4422570000000  0.5484860000000 1.0
C      1  0.5377140000000  0.5577320000000  0.5484990000000 1.0
C      1  0.4622860000000  0.5577430000000  0.4515140000000 1.0
C      1  0.5377130000000  0.4422680000000  0.4515010000000 1.0
C      1  0.5144840000000  0.5663520000000  0.5625960000000 1.0
C      1  0.4855170000000  0.4336340000000  0.5625810000000 1.0
C      1  0.4855160000000  0.5663660000000  0.4374190000000 1.0
C      1  0.5144830000000  0.4336480000000  0.4374040000000 1.0
C      1  0.5663600000000  0.5144770000000  0.5625900000000 1.0
C      1  0.4336410000000  0.4855100000000  0.5625870000000 1.0
C      1  0.5663590000000  0.4855230000000  0.4374100000000 1.0
C      1  0.4336400000000  0.5144900000000  0.4374140000000 1.0
END
