TITL C-22444-4565-5 -115.550944190127 125000 -373.850916267996 0 0 55 (C1) n - 1
REM
REM in /rds/project/t2_vol4/rds-t2-cs072/BORA/CARBON/from-Arr/AIRSS/Generating-Clusters/GAP-ML-2020/Higher-Symm/SD-CG/HFTN-CG
REM
REM
REM
REM
REM
REM ./C.cell (b20cbc046b6831c77cfcea5457e17084)
REM AIRSS Version 0.9.1 bugfix July 2018 build 013d7b7c2542+ Fri, 06 Jul 2018 19:26:36 +0100
REM compiler GCC version 9.3.0
REM options -cpp -mtune=generic -march=x86-64 -g -O0
REM seed 1653581391 141670602 -280058690 -889549745 1708637124 1412654706 952784373 -500889660 469455267 541758034 564434475 184704780 -1220247249 -1626900817 672043844 -1306231312 218969724 -1133948941 -286889789 -1865632643 -1504328976 -593097752 -239350576 872267799 -87668472 -1671877714 -39112234 -1835206483 -1369364421 1051313517 262892149 -1439256211 -676087139
REM
CELL 1.54180   50.00000   50.00000   50.00000   90.00000   90.00000   90.00000
LATT -1
SFAC C  
C      1  0.5203880000000  0.4253590000000  0.4910620000000 1.0
C      1  0.5708320000000  0.4762040000000  0.4887400000000 1.0
C      1  0.5679930000000  0.5162400000000  0.4968710000000 1.0
C      1  0.5242020000000  0.5714640000000  0.4961330000000 1.0
C      1  0.4567980000000  0.5671700000000  0.4980710000000 1.0
C      1  0.4215400000000  0.5073990000000  0.5003560000000 1.0
C      1  0.4553010000000  0.4463770000000  0.4995430000000 1.0
C      1  0.4344210000000  0.5274020000000  0.4868490000000 1.0
C      1  0.4443910000000  0.4681610000000  0.4883000000000 1.0
C      1  0.4970640000000  0.4353690000000  0.4818030000000 1.0
C      1  0.5543120000000  0.4552320000000  0.4802120000000 1.0
C      1  0.5747250000000  0.5009880000000  0.4732790000000 1.0
C      1  0.5390510000000  0.5531240000000  0.4828070000000 1.0
C      1  0.4798680000000  0.5645850000000  0.4839340000000 1.0
C      1  0.5215150000000  0.4744160000000  0.6002610000000 1.0
C      1  0.5329480000000  0.4978770000000  0.6011040000000 1.0
C      1  0.5020880000000  0.5369930000000  0.5970060000000 1.0
C      1  0.4811510000000  0.5250930000000  0.5887110000000 1.0
C      1  0.4681950000000  0.5023760000000  0.5848920000000 1.0
C      1  0.4739420000000  0.4832590000000  0.6068460000000 1.0
C      1  0.4958940000000  0.4726930000000  0.5913170000000 1.0
C      1  0.5340230000000  0.5457430000000  0.4553990000000 1.0
C      1  0.4814060000000  0.5541480000000  0.4566550000000 1.0
C      1  0.4412280000000  0.5242720000000  0.4582520000000 1.0
C      1  0.4498370000000  0.4752430000000  0.4593870000000 1.0
C      1  0.4943070000000  0.4481880000000  0.4554430000000 1.0
C      1  0.5454630000000  0.4558930000000  0.4532330000000 1.0
C      1  0.5609390000000  0.5035910000000  0.4475370000000 1.0
C      1  0.5354930000000  0.4917990000000  0.5203460000000 1.0
C      1  0.5256340000000  0.5195140000000  0.5168430000000 1.0
C      1  0.4999930000000  0.5328580000000  0.5163650000000 1.0
C      1  0.4727870000000  0.5237450000000  0.5193850000000 1.0
C      1  0.4630640000000  0.4978900000000  0.5255730000000 1.0
C      1  0.4952320000000  0.4609880000000  0.5240710000000 1.0
C      1  0.5226130000000  0.4662250000000  0.5185180000000 1.0
C      1  0.5014920000000  0.5583430000000  0.5019650000000 1.0
C      1  0.4531670000000  0.5408910000000  0.5038460000000 1.0
C      1  0.4403590000000  0.4889410000000  0.5077340000000 1.0
C      1  0.4817690000000  0.4447840000000  0.5043090000000 1.0
C      1  0.5357320000000  0.4460860000000  0.5002080000000 1.0
C      1  0.5629860000000  0.4917220000000  0.5118650000000 1.0
C      1  0.5465380000000  0.5328830000000  0.5014380000000 1.0
C      1  0.5064880000000  0.5449180000000  0.4454300000000 1.0
C      1  0.4576210000000  0.5434470000000  0.4471160000000 1.0
C      1  0.4379880000000  0.4981990000000  0.4491490000000 1.0
C      1  0.4720440000000  0.4627180000000  0.4489880000000 1.0
C      1  0.5188310000000  0.4532010000000  0.4418050000000 1.0
C      1  0.5507720000000  0.4792670000000  0.4364900000000 1.0
C      1  0.5495280000000  0.5276140000000  0.4425760000000 1.0
C      1  0.4794540000000  0.4789590000000  0.5405430000000 1.0
C      1  0.4833910000000  0.4840630000000  0.5669260000000 1.0
C      1  0.5238410000000  0.4767430000000  0.4251700000000 1.0
C      1  0.5079260000000  0.4981990000000  0.4229910000000 1.0
C      1  0.5059680000000  0.5220780000000  0.4304530000000 1.0
C      1  0.5224960000000  0.5206950000000  0.5986840000000 1.0
END
