TITL C-22207-8044-3 0.122709313445305 125000 -1127.82572462153 0 0 163 (C1) n - 1
REM
REM in /rds/project/t2_vol4/rds-t2-cs072/BORA/CARBON/from-Arr/AIRSS/Generating-Clusters/GAP-ML-2020/Higher-Symm/SD-CG/HFTN-CG/C160-200
REM
REM
REM
REM
REM
REM ./C.cell (6b4489405718ea1b717e0baf1da4c2d9)
REM AIRSS Version 0.9.1 bugfix July 2018 build 013d7b7c2542+ Fri, 06 Jul 2018 19:26:36 +0100
REM compiler GCC version 9.3.0
REM options -cpp -mtune=generic -march=x86-64 -g -O0
REM seed -630641801 15555128 -1091396169 2007829074 1137944131 -317880234 -2010857499 1201854924 1371064277 -1176961546 1608360479 -902708430 -383198808 121549046 224786750 -667007459 639914667 456594807 -2013343179 1367883872 233775237 32014616 280847965 1813965942 900470623 1019481769 -1759963074 -1861768889 -796783724 -859353293 -603374711 -1466619147 -1611621385
REM
CELL 1.54180   50.00000   50.00000   50.00000   90.00000   90.00000   90.00000
LATT -1
SFAC C  
C      1  0.4962460000000  0.5295820000000  0.3936470000000 1.0
C      1  0.6058240000000  0.4721820000000  0.4950980000000 1.0
C      1  0.5016610000000  0.5301930000000  0.6030080000000 1.0
C      1  0.3963010000000  0.4681830000000  0.5005730000000 1.0
C      1  0.4692780000000  0.5015020000000  0.5334280000000 1.0
C      1  0.4649060000000  0.4990470000000  0.4691480000000 1.0
C      1  0.5305240000000  0.5010260000000  0.4638230000000 1.0
C      1  0.5343210000000  0.4989130000000  0.5305330000000 1.0
C      1  0.3931640000000  0.4965220000000  0.5115070000000 1.0
C      1  0.4856000000000  0.5014210000000  0.3916030000000 1.0
C      1  0.6084430000000  0.5004020000000  0.4843670000000 1.0
C      1  0.5125450000000  0.5018250000000  0.6066010000000 1.0
C      1  0.4821740000000  0.5369140000000  0.5798260000000 1.0
C      1  0.4194360000000  0.4619270000000  0.4810800000000 1.0
C      1  0.5152210000000  0.5347020000000  0.4172690000000 1.0
C      1  0.5821210000000  0.4667990000000  0.5140130000000 1.0
C      1  0.4431180000000  0.4715050000000  0.5034080000000 1.0
C      1  0.4940920000000  0.5278680000000  0.4416160000000 1.0
C      1  0.5578560000000  0.4726120000000  0.4927480000000 1.0
C      1  0.5045170000000  0.5282400000000  0.5563250000000 1.0
C      1  0.5460030000000  0.5305800000000  0.4182490000000 1.0
C      1  0.5808080000000  0.4709730000000  0.5447880000000 1.0
C      1  0.4526110000000  0.5280400000000  0.5768240000000 1.0
C      1  0.4220280000000  0.4708330000000  0.4515310000000 1.0
C      1  0.4595560000000  0.4396050000000  0.5826080000000 1.0
C      1  0.4172570000000  0.5590270000000  0.4589300000000 1.0
C      1  0.5406120000000  0.4427960000000  0.4163570000000 1.0
C      1  0.5836030000000  0.5588830000000  0.5400340000000 1.0
C      1  0.4387790000000  0.5455020000000  0.4199560000000 1.0
C      1  0.5796020000000  0.4564080000000  0.4376430000000 1.0
C      1  0.5614800000000  0.5446270000000  0.5789870000000 1.0
C      1  0.4205880000000  0.4536860000000  0.5602590000000 1.0
C      1  0.4883760000000  0.4282490000000  0.4772850000000 1.0
C      1  0.5301510000000  0.5648930000000  0.4807460000000 1.0
C      1  0.5188910000000  0.4355250000000  0.5290980000000 1.0
C      1  0.4785260000000  0.5719490000000  0.5113060000000 1.0
C      1  0.4772790000000  0.3966680000000  0.5168570000000 1.0
C      1  0.4866210000000  0.6034230000000  0.4739060000000 1.0
C      1  0.5264860000000  0.3973520000000  0.4853440000000 1.0
C      1  0.5181890000000  0.6030470000000  0.5231800000000 1.0
C      1  0.5680900000000  0.4452180000000  0.5473370000000 1.0
C      1  0.4533520000000  0.5712140000000  0.5623080000000 1.0
C      1  0.4374000000000  0.4278690000000  0.4521690000000 1.0
C      1  0.5486350000000  0.5562240000000  0.4312310000000 1.0
C      1  0.5463260000000  0.5675810000000  0.5067240000000 1.0
C      1  0.4929930000000  0.4323180000000  0.5452580000000 1.0
C      1  0.4556210000000  0.5706650000000  0.4935970000000 1.0
C      1  0.5061120000000  0.4297530000000  0.4544250000000 1.0
C      1  0.5736050000000  0.5473630000000  0.4766870000000 1.0
C      1  0.5226580000000  0.4531070000000  0.5726740000000 1.0
C      1  0.4326250000000  0.5441000000000  0.5303400000000 1.0
C      1  0.4687760000000  0.4556440000000  0.4315890000000 1.0
C      1  0.5406030000000  0.4390020000000  0.5537570000000 1.0
C      1  0.4407600000000  0.5460560000000  0.5583140000000 1.0
C      1  0.4408690000000  0.4531610000000  0.4396470000000 1.0
C      1  0.5547620000000  0.5618820000000  0.4589370000000 1.0
C      1  0.4524260000000  0.5194320000000  0.4188690000000 1.0
C      1  0.5810310000000  0.4821920000000  0.4514120000000 1.0
C      1  0.5468460000000  0.5191290000000  0.5804420000000 1.0
C      1  0.4194620000000  0.4794380000000  0.5457050000000 1.0
C      1  0.4817410000000  0.5529320000000  0.3961910000000 1.0
C      1  0.6036210000000  0.4487440000000  0.4807190000000 1.0
C      1  0.5170580000000  0.5529300000000  0.6014080000000 1.0
C      1  0.3983120000000  0.4455230000000  0.5160700000000 1.0
C      1  0.4983150000000  0.6006490000000  0.5446650000000 1.0
C      1  0.4557410000000  0.3987180000000  0.4970200000000 1.0
C      1  0.5059210000000  0.5988850000000  0.4526800000000 1.0
C      1  0.5476690000000  0.4021260000000  0.5046800000000 1.0
C      1  0.5001440000000  0.5849750000000  0.5695310000000 1.0
C      1  0.4305870000000  0.4139170000000  0.4988580000000 1.0
C      1  0.5023530000000  0.5833810000000  0.4286550000000 1.0
C      1  0.5714140000000  0.4180400000000  0.5010700000000 1.0
C      1  0.4240630000000  0.4312590000000  0.4768110000000 1.0
C      1  0.5221600000000  0.5644860000000  0.4226120000000 1.0
C      1  0.5770090000000  0.4370200000000  0.5209490000000 1.0
C      1  0.4779820000000  0.5676240000000  0.5756930000000 1.0
C      1  0.4806610000000  0.4303360000000  0.4375240000000 1.0
C      1  0.5715830000000  0.5726950000000  0.4924360000000 1.0
C      1  0.5073490000000  0.4274990000000  0.5705840000000 1.0
C      1  0.4387450000000  0.5696080000000  0.5190230000000 1.0
C      1  0.4747910000000  0.4091770000000  0.5425690000000 1.0
C      1  0.4580410000000  0.5920190000000  0.4735870000000 1.0
C      1  0.5266480000000  0.4088870000000  0.4567680000000 1.0
C      1  0.5438450000000  0.5902930000000  0.5254600000000 1.0
C      1  0.5630530000000  0.5081210000000  0.4157460000000 1.0
C      1  0.5825480000000  0.4933140000000  0.5619600000000 1.0
C      1  0.4375240000000  0.5044700000000  0.5811530000000 1.0
C      1  0.4169020000000  0.4943270000000  0.4364210000000 1.0
C      1  0.4865700000000  0.4536150000000  0.4927850000000 1.0
C      1  0.5085050000000  0.5446840000000  0.4844040000000 1.0
C      1  0.5149520000000  0.4556340000000  0.5074020000000 1.0
C      1  0.4938130000000  0.5464210000000  0.5127640000000 1.0
C      1  0.5394660000000  0.5430300000000  0.5239190000000 1.0
C      1  0.4753230000000  0.4565340000000  0.5385510000000 1.0
C      1  0.4609420000000  0.5445980000000  0.4756970000000 1.0
C      1  0.5235820000000  0.4560930000000  0.4598900000000 1.0
C      1  0.5272880000000  0.4054960000000  0.5271520000000 1.0
C      1  0.4750890000000  0.5948180000000  0.5299420000000 1.0
C      1  0.4703140000000  0.4049050000000  0.4738160000000 1.0
C      1  0.5283670000000  0.5951350000000  0.4729980000000 1.0
C      1  0.5266920000000  0.4682610000000  0.4036810000000 1.0
C      1  0.5955270000000  0.5334870000000  0.5261160000000 1.0
C      1  0.4729890000000  0.4655640000000  0.5947690000000 1.0
C      1  0.4043320000000  0.5328310000000  0.4724690000000 1.0
C      1  0.5934140000000  0.5185980000000  0.5515290000000 1.0
C      1  0.4472700000000  0.4795180000000  0.5926490000000 1.0
C      1  0.4060980000000  0.5194610000000  0.4464230000000 1.0
C      1  0.5523970000000  0.4827070000000  0.4054640000000 1.0
C      1  0.5430090000000  0.5185950000000  0.5096800000000 1.0
C      1  0.4894700000000  0.4811060000000  0.5419870000000 1.0
C      1  0.4570420000000  0.5199280000000  0.4896970000000 1.0
C      1  0.5093560000000  0.4805390000000  0.4561100000000 1.0
C      1  0.5354260000000  0.4565860000000  0.4869020000000 1.0
C      1  0.5125740000000  0.5441820000000  0.5346900000000 1.0
C      1  0.4646100000000  0.4553590000000  0.5116110000000 1.0
C      1  0.4880280000000  0.5441140000000  0.4638860000000 1.0
C      1  0.4533620000000  0.4196550000000  0.5596010000000 1.0
C      1  0.4410910000000  0.5797320000000  0.4524960000000 1.0
C      1  0.5474480000000  0.4218450000000  0.4398140000000 1.0
C      1  0.5608570000000  0.5790880000000  0.5466530000000 1.0
C      1  0.5589960000000  0.5894020000000  0.4704080000000 1.0
C      1  0.5296770000000  0.4112080000000  0.5578830000000 1.0
C      1  0.4498190000000  0.5866980000000  0.5395330000000 1.0
C      1  0.4604890000000  0.4128480000000  0.4485680000000 1.0
C      1  0.4879610000000  0.4823600000000  0.4781220000000 1.0
C      1  0.5213140000000  0.5168090000000  0.4872490000000 1.0
C      1  0.5116060000000  0.4831560000000  0.5205510000000 1.0
C      1  0.4788760000000  0.5180960000000  0.5109100000000 1.0
C      1  0.4281310000000  0.4288650000000  0.5483590000000 1.0
C      1  0.4516800000000  0.5700350000000  0.4272500000000 1.0
C      1  0.5727010000000  0.4316620000000  0.4503470000000 1.0
C      1  0.5496780000000  0.5696250000000  0.5718290000000 1.0
C      1  0.5850180000000  0.5427030000000  0.5639440000000 1.0
C      1  0.4351850000000  0.4552530000000  0.5841120000000 1.0
C      1  0.4148860000000  0.5441550000000  0.4346890000000 1.0
C      1  0.5644440000000  0.4581910000000  0.4140910000000 1.0
C      1  0.4138160000000  0.5026520000000  0.5635650000000 1.0
C      1  0.4341500000000  0.4966070000000  0.4126520000000 1.0
C      1  0.5862750000000  0.5046290000000  0.4329320000000 1.0
C      1  0.5649800000000  0.4964160000000  0.5851170000000 1.0
C      1  0.5093350000000  0.4802250000000  0.5673940000000 1.0
C      1  0.4318180000000  0.5200650000000  0.5114540000000 1.0
C      1  0.4871300000000  0.4797700000000  0.4311450000000 1.0
C      1  0.5680510000000  0.5200360000000  0.4893590000000 1.0
C      1  0.4052030000000  0.5191430000000  0.4977880000000 1.0
C      1  0.5006140000000  0.4802210000000  0.4044360000000 1.0
C      1  0.5952130000000  0.5206520000000  0.5005070000000 1.0
C      1  0.4975970000000  0.4802230000000  0.5942500000000 1.0
C      1  0.5249350000000  0.5071590000000  0.5588650000000 1.0
C      1  0.4409640000000  0.4924180000000  0.5242320000000 1.0
C      1  0.4734650000000  0.5072430000000  0.4401540000000 1.0
C      1  0.5595840000000  0.4935700000000  0.4727380000000 1.0
C      1  0.4778440000000  0.5730590000000  0.4153160000000 1.0
C      1  0.5846610000000  0.4285800000000  0.4765340000000 1.0
C      1  0.5233280000000  0.5733750000000  0.5832970000000 1.0
C      1  0.4166800000000  0.4251590000000  0.5220460000000 1.0
C      1  0.4573510000000  0.4997550000000  0.3961800000000 1.0
C      1  0.6033700000000  0.5023960000000  0.4560450000000 1.0
C      1  0.5413900000000  0.4993460000000  0.6021920000000 1.0
C      1  0.3971510000000  0.4984830000000  0.5401410000000 1.0
C      1  0.5061490000000  0.3946550000000  0.5084820000000 1.0
C      1  0.5098010000000  0.6056760000000  0.4943540000000 1.0
C      1  0.4998160000000  0.5001180000000  0.4991500000000 1.0
END
