TITL C-22169-3109-2 -0.105916006361417 125000 -671.794644725781 0 0 96 (C1) n - 1
REM
REM in /rds/project/t2_vol4/rds-t2-cs072/BORA/CARBON/from-Arr/AIRSS/Generating-Clusters/GAP-ML-2020/Higher-Symm/SD-CG/HFTN-CG
REM
REM
REM
REM
REM
REM ./C.cell (b20cbc046b6831c77cfcea5457e17084)
REM AIRSS Version 0.9.1 bugfix July 2018 build 013d7b7c2542+ Fri, 06 Jul 2018 19:26:36 +0100
REM compiler GCC version 9.3.0
REM options -cpp -mtune=generic -march=x86-64 -g -O0
REM seed -1388335997 297671245 610342708 -1604890427 735777119 -2130076359 674025804 -1914601017 363888921 1777621876 -626638370 918088780 1567916224 137392193 -1912801056 1633410606 176871441 -1387897285 1242687663 -593575662 -1698289240 -696807209 -623829771 -515088756 -271818981 513558069 -1238970800 -666789023 -1789125480 2110568323 1412975435 1963282111 675600837
REM
CELL 1.54180   50.00000   50.00000   50.00000   90.00000   90.00000   90.00000
LATT -1
SFAC C  
C      1  0.4942190000000  0.4358030000000  0.5066460000000 1.0
C      1  0.4471480000000  0.5494280000000  0.4712780000000 1.0
C      1  0.4858130000000  0.5788240000000  0.5330850000000 1.0
C      1  0.4158860000000  0.4810040000000  0.5257420000000 1.0
C      1  0.5684530000000  0.5337200000000  0.5477780000000 1.0
C      1  0.4112110000000  0.4934040000000  0.4993660000000 1.0
C      1  0.5537130000000  0.5263880000000  0.4590020000000 1.0
C      1  0.5431150000000  0.4339250000000  0.4991610000000 1.0
C      1  0.5426680000000  0.5324860000000  0.4322230000000 1.0
C      1  0.4445030000000  0.4390460000000  0.5201650000000 1.0
C      1  0.4651350000000  0.5671100000000  0.5164480000000 1.0
C      1  0.4835670000000  0.5124690000000  0.4524790000000 1.0
C      1  0.4814520000000  0.5279390000000  0.4946840000000 1.0
C      1  0.4971300000000  0.5446940000000  0.5661580000000 1.0
C      1  0.5803470000000  0.5165020000000  0.5068240000000 1.0
C      1  0.4280640000000  0.4874780000000  0.5503150000000 1.0
C      1  0.5347490000000  0.5641030000000  0.5401440000000 1.0
C      1  0.4924040000000  0.5292970000000  0.5396780000000 1.0
C      1  0.4793350000000  0.4396450000000  0.5543530000000 1.0
C      1  0.5675560000000  0.4870310000000  0.5446740000000 1.0
C      1  0.4523770000000  0.4435270000000  0.5471250000000 1.0
C      1  0.4855370000000  0.5703550000000  0.5596370000000 1.0
C      1  0.4601900000000  0.4805140000000  0.4224330000000 1.0
C      1  0.5685000000000  0.5426610000000  0.5029240000000 1.0
C      1  0.5079760000000  0.4990850000000  0.4641720000000 1.0
C      1  0.4331970000000  0.4594200000000  0.4656520000000 1.0
C      1  0.4415980000000  0.4814500000000  0.4463660000000 1.0
C      1  0.4625100000000  0.5066720000000  0.5761210000000 1.0
C      1  0.4430810000000  0.5314580000000  0.5337340000000 1.0
C      1  0.5135820000000  0.5754390000000  0.5240040000000 1.0
C      1  0.5683940000000  0.4642070000000  0.5274150000000 1.0
C      1  0.5501770000000  0.4554900000000  0.4584790000000 1.0
C      1  0.4171970000000  0.4669620000000  0.4871780000000 1.0
C      1  0.4571130000000  0.4453890000000  0.4746810000000 1.0
C      1  0.4420350000000  0.5602240000000  0.4979690000000 1.0
C      1  0.5614540000000  0.4488660000000  0.4833990000000 1.0
C      1  0.4800230000000  0.4857020000000  0.5150510000000 1.0
C      1  0.4696500000000  0.5006070000000  0.4935580000000 1.0
C      1  0.4784300000000  0.4611320000000  0.4630050000000 1.0
C      1  0.5190520000000  0.5682660000000  0.4552330000000 1.0
C      1  0.4963090000000  0.5485030000000  0.4261590000000 1.0
C      1  0.5212550000000  0.4959380000000  0.5359230000000 1.0
C      1  0.4293750000000  0.5273040000000  0.4639670000000 1.0
C      1  0.4586140000000  0.5103270000000  0.4212930000000 1.0
C      1  0.4642950000000  0.4343100000000  0.4997850000000 1.0
C      1  0.5175180000000  0.5649360000000  0.4984460000000 1.0
C      1  0.5792150000000  0.5107670000000  0.5348600000000 1.0
C      1  0.5355110000000  0.5115920000000  0.4151570000000 1.0
C      1  0.5475600000000  0.4849930000000  0.4191820000000 1.0
C      1  0.5180770000000  0.4303120000000  0.4865860000000 1.0
C      1  0.4640600000000  0.4773170000000  0.5777440000000 1.0
C      1  0.4858290000000  0.4660880000000  0.4197790000000 1.0
C      1  0.5420210000000  0.4975350000000  0.5609160000000 1.0
C      1  0.4957330000000  0.4499960000000  0.4414520000000 1.0
C      1  0.5595980000000  0.4791720000000  0.4447190000000 1.0
C      1  0.5599770000000  0.5533080000000  0.5290880000000 1.0
C      1  0.4869660000000  0.5219100000000  0.5836380000000 1.0
C      1  0.5474270000000  0.5270980000000  0.5652350000000 1.0
C      1  0.4429280000000  0.4662470000000  0.5620520000000 1.0
C      1  0.4658630000000  0.4903200000000  0.4645810000000 1.0
C      1  0.5319720000000  0.4667900000000  0.4050960000000 1.0
C      1  0.5117910000000  0.5320230000000  0.4979770000000 1.0
C      1  0.5356900000000  0.5685720000000  0.4772800000000 1.0
C      1  0.4859680000000  0.4583630000000  0.5755220000000 1.0
C      1  0.5011380000000  0.4675210000000  0.5036740000000 1.0
C      1  0.4994030000000  0.4311090000000  0.5358970000000 1.0
C      1  0.5139090000000  0.4603060000000  0.5823220000000 1.0
C      1  0.4265550000000  0.5391050000000  0.5106090000000 1.0
C      1  0.5438520000000  0.4473720000000  0.5253610000000 1.0
C      1  0.4357260000000  0.5104950000000  0.4410550000000 1.0
C      1  0.5291000000000  0.4391110000000  0.5730040000000 1.0
C      1  0.5240330000000  0.5536240000000  0.4304260000000 1.0
C      1  0.5080070000000  0.5070900000000  0.4069090000000 1.0
C      1  0.4224560000000  0.4554300000000  0.5130380000000 1.0
C      1  0.4171810000000  0.5197800000000  0.4899790000000 1.0
C      1  0.5181180000000  0.5246340000000  0.5251220000000 1.0
C      1  0.4865860000000  0.5215830000000  0.4211310000000 1.0
C      1  0.5736780000000  0.4946240000000  0.4891700000000 1.0
C      1  0.5268270000000  0.5140170000000  0.4793240000000 1.0
C      1  0.5261410000000  0.4356260000000  0.5456730000000 1.0
C      1  0.5584940000000  0.5492050000000  0.4775720000000 1.0
C      1  0.4914070000000  0.4981540000000  0.5387890000000 1.0
C      1  0.5695340000000  0.5006830000000  0.4606260000000 1.0
C      1  0.4705790000000  0.5387890000000  0.5223000000000 1.0
C      1  0.5045320000000  0.4710180000000  0.4745180000000 1.0
C      1  0.4758440000000  0.5403840000000  0.4668140000000 1.0
C      1  0.5412110000000  0.4934860000000  0.4950500000000 1.0
C      1  0.5201830000000  0.4478240000000  0.4608880000000 1.0
C      1  0.5251120000000  0.4871830000000  0.5840380000000 1.0
C      1  0.4417310000000  0.5127690000000  0.5557630000000 1.0
C      1  0.5279690000000  0.5484650000000  0.5638900000000 1.0
C      1  0.4915930000000  0.5609540000000  0.4518320000000 1.0
C      1  0.5273410000000  0.4765110000000  0.5146290000000 1.0
C      1  0.5762420000000  0.4670890000000  0.4997640000000 1.0
C      1  0.5074790000000  0.5063340000000  0.5922940000000 1.0
C      1  0.5059480000000  0.4782790000000  0.4037610000000 1.0
END
