TITL C-22186-1924-1 311.503768051902 125000 -700.698148407791 0 0 97 (C1) n - 1
REM
REM in /rds/project/t2_vol4/rds-t2-cs072/BORA/CARBON/from-Arr/AIRSS/Generating-Clusters/GAP-ML-2020/Higher-Symm/SD-CG/HFTN-CG
REM
REM
REM
REM
REM
REM ./C.cell (b20cbc046b6831c77cfcea5457e17084)
REM AIRSS Version 0.9.1 bugfix July 2018 build 013d7b7c2542+ Fri, 06 Jul 2018 19:26:36 +0100
REM compiler GCC version 9.3.0
REM options -cpp -mtune=generic -march=x86-64 -g -O0
REM seed -1637632383 1496581778 180259316 472566207 1530980690 971177250 167606366 -1854492546 886230100 1596790895 1558681395 -685306116 374361135 1322343974 -977253640 1535636040 -92343324 279828834 2004181279 617284135 -474245635 -925748713 740346315 1273691710 -797454149 -1130147178 1036413618 -564594806 1652309688 -2032771946 1911907551 -646005624 -1789753361
REM
CELL 1.54180   50.00000   50.00000   50.00000   90.00000   90.00000   90.00000
LATT -1
SFAC C  
C      1  0.4324090000000  0.4336050000000  0.4725310000000 1.0
C      1  0.4266930000000  0.4394390000000  0.5262410000000 1.0
C      1  0.4367740000000  0.4379300000000  0.5532610000000 1.0
C      1  0.4846210000000  0.4363550000000  0.5580010000000 1.0
C      1  0.5330860000000  0.4352800000000  0.5633220000000 1.0
C      1  0.5546880000000  0.4348230000000  0.5444290000000 1.0
C      1  0.5798550000000  0.4341450000000  0.4915320000000 1.0
C      1  0.5707350000000  0.4361440000000  0.4639720000000 1.0
C      1  0.5275390000000  0.4327150000000  0.4289890000000 1.0
C      1  0.4988660000000  0.4337070000000  0.4264260000000 1.0
C      1  0.4480100000000  0.4298180000000  0.4485640000000 1.0
C      1  0.5871240000000  0.4769910000000  0.4769870000000 1.0
C      1  0.5574730000000  0.4744350000000  0.4363390000000 1.0
C      1  0.5151530000000  0.4747980000000  0.4172240000000 1.0
C      1  0.4657040000000  0.4703530000000  0.4224680000000 1.0
C      1  0.4258290000000  0.4692820000000  0.4463540000000 1.0
C      1  0.4158520000000  0.4772610000000  0.4944970000000 1.0
C      1  0.4219910000000  0.4804420000000  0.5454960000000 1.0
C      1  0.4587220000000  0.4763410000000  0.5740280000000 1.0
C      1  0.5081740000000  0.4744100000000  0.5795850000000 1.0
C      1  0.5525440000000  0.4761690000000  0.5649990000000 1.0
C      1  0.5804280000000  0.4741570000000  0.5231100000000 1.0
C      1  0.4512780000000  0.4252770000000  0.5162740000000 1.0
C      1  0.4616210000000  0.4266570000000  0.5444140000000 1.0
C      1  0.5094190000000  0.4248720000000  0.5520490000000 1.0
C      1  0.5167500000000  0.4123000000000  0.5271510000000 1.0
C      1  0.5450340000000  0.4176780000000  0.5230950000000 1.0
C      1  0.5569780000000  0.4171800000000  0.4981130000000 1.0
C      1  0.5470200000000  0.4189250000000  0.4704600000000 1.0
C      1  0.5247850000000  0.4172280000000  0.4547320000000 1.0
C      1  0.4952000000000  0.4185970000000  0.4521070000000 1.0
C      1  0.4707810000000  0.4185800000000  0.4644680000000 1.0
C      1  0.4543580000000  0.4223350000000  0.4892680000000 1.0
C      1  0.5833020000000  0.5036750000000  0.4863990000000 1.0
C      1  0.5481590000000  0.5017980000000  0.4346900000000 1.0
C      1  0.5211610000000  0.5016330000000  0.4231850000000 1.0
C      1  0.4583590000000  0.4980190000000  0.4284230000000 1.0
C      1  0.4329400000000  0.4961960000000  0.4422990000000 1.0
C      1  0.4179350000000  0.5052480000000  0.4886620000000 1.0
C      1  0.4315650000000  0.5065380000000  0.5504780000000 1.0
C      1  0.4541210000000  0.5044880000000  0.5690600000000 1.0
C      1  0.5162110000000  0.5023490000000  0.5781240000000 1.0
C      1  0.5434800000000  0.5029610000000  0.5674390000000 1.0
C      1  0.5795040000000  0.5021250000000  0.5152730000000 1.0
C      1  0.5539810000000  0.5253790000000  0.5536100000000 1.0
C      1  0.5700430000000  0.5247750000000  0.5296420000000 1.0
C      1  0.5751180000000  0.5264590000000  0.4711400000000 1.0
C      1  0.5584070000000  0.5253750000000  0.4470300000000 1.0
C      1  0.5026960000000  0.5232520000000  0.4255770000000 1.0
C      1  0.4738230000000  0.5218520000000  0.4310960000000 1.0
C      1  0.4260470000000  0.5139310000000  0.4620740000000 1.0
C      1  0.4227390000000  0.5282880000000  0.5056950000000 1.0
C      1  0.4278390000000  0.5292110000000  0.5338940000000 1.0
C      1  0.4713410000000  0.5266930000000  0.5736890000000 1.0
C      1  0.5002060000000  0.5258160000000  0.5787160000000 1.0
C      1  0.5403590000000  0.5493450000000  0.5590450000000 1.0
C      1  0.5700600000000  0.5492030000000  0.5153660000000 1.0
C      1  0.5712130000000  0.5495780000000  0.4866120000000 1.0
C      1  0.5426820000000  0.5479470000000  0.4422020000000 1.0
C      1  0.5160930000000  0.5470330000000  0.4308330000000 1.0
C      1  0.4621730000000  0.5439160000000  0.4467520000000 1.0
C      1  0.4387270000000  0.5390110000000  0.4626990000000 1.0
C      1  0.4338980000000  0.5493670000000  0.4891770000000 1.0
C      1  0.4403400000000  0.5521040000000  0.5438330000000 1.0
C      1  0.4616880000000  0.5509470000000  0.5634370000000 1.0
C      1  0.5141300000000  0.5492740000000  0.5710420000000 1.0
C      1  0.5345240000000  0.5688020000000  0.4609680000000 1.0
C      1  0.5062950000000  0.5675890000000  0.4482180000000 1.0
C      1  0.4786150000000  0.5657520000000  0.4564050000000 1.0
C      1  0.4738550000000  0.5727620000000  0.4831490000000 1.0
C      1  0.4510230000000  0.5695100000000  0.4992190000000 1.0
C      1  0.4544080000000  0.5712710000000  0.5278940000000 1.0
C      1  0.4770240000000  0.5710880000000  0.5486170000000 1.0
C      1  0.5046840000000  0.5696450000000  0.5520750000000 1.0
C      1  0.5325180000000  0.5694230000000  0.5389050000000 1.0
C      1  0.5480310000000  0.5691030000000  0.5157570000000 1.0
C      1  0.5489190000000  0.5686340000000  0.4850820000000 1.0
C      1  0.5669820000000  0.4615490000000  0.5448380000000 1.0
C      1  0.5886810000000  0.4593790000000  0.4998390000000 1.0
C      1  0.5752960000000  0.4628860000000  0.4549950000000 1.0
C      1  0.5374410000000  0.4583320000000  0.4240960000000 1.0
C      1  0.4911670000000  0.4598010000000  0.4181840000000 1.0
C      1  0.4452330000000  0.4531530000000  0.4331640000000 1.0
C      1  0.4195620000000  0.4590940000000  0.4720920000000 1.0
C      1  0.4173480000000  0.4660980000000  0.5210150000000 1.0
C      1  0.4354350000000  0.4631250000000  0.5642660000000 1.0
C      1  0.4834520000000  0.4618320000000  0.5733150000000 1.0
C      1  0.5319990000000  0.4598030000000  0.5757760000000 1.0
C      1  0.5043860000000  0.5958770000000  0.5036040000000 1.0
C      1  0.5099620000000  0.5188670000000  0.5047140000000 1.0
C      1  0.5016680000000  0.4001090000000  0.5078200000000 1.0
C      1  0.4979850000000  0.5702720000000  0.4992010000000 1.0
C      1  0.5029840000000  0.6207840000000  0.5013180000000 1.0
C      1  0.5159890000000  0.4683140000000  0.4978710000000 1.0
C      1  0.5149740000000  0.4929340000000  0.5047170000000 1.0
C      1  0.5039890000000  0.5433580000000  0.5042020000000 1.0
C      1  0.5057120000000  0.3809730000000  0.4907430000000 1.0
END
