TITL C-22163-1999-6 60.9727284321488 125000 -203.352402846362 0 0 33 (C2v) n - 1
REM
REM in /rds/project/t2_vol4/rds-t2-cs072/BORA/CARBON/from-Arr/AIRSS/Generating-Clusters/GAP-ML-2020/Higher-Symm/SD-CG/HFTN-CG
REM
REM
REM
REM
REM
REM ./C.cell (b20cbc046b6831c77cfcea5457e17084)
REM AIRSS Version 0.9.1 bugfix July 2018 build 013d7b7c2542+ Fri, 06 Jul 2018 19:26:36 +0100
REM compiler GCC version 9.3.0
REM options -cpp -mtune=generic -march=x86-64 -g -O0
REM seed 1397516912 891708809 1199266018 286467024 1233109107 169130822 -2027010680 -1605228487 1801235741 -634982373 1944172677 467299238 -947467615 -1200128283 -523167883 1508095288 -1512982919 1873332666 -739262097 -864903618 -1358778101 -1850196421 78242336 -2096966201 2030765994 -360791826 999541204 1055395264 -1505846623 -2005844124 -377010945 -1659859966 -1968456862
REM
CELL 1.54180   50.00000   50.00000   50.00000   90.00000   90.00000   90.00000
LATT -1
SFAC C  
C      1  0.4847280000000  0.4760670000000  0.4508590000000 1.0
C      1  0.5140440000000  0.4786030000000  0.4490090000000 1.0
C      1  0.5383060000000  0.4760320000000  0.4655730000000 1.0
C      1  0.5521950000000  0.4786010000000  0.4914600000000 1.0
C      1  0.5472370000000  0.4760640000000  0.5204130000000 1.0
C      1  0.5294300000000  0.4785100000000  0.5437800000000 1.0
C      1  0.5009830000000  0.4763050000000  0.5518020000000 1.0
C      1  0.4724500000000  0.4777890000000  0.5449270000000 1.0
C      1  0.4523960000000  0.4777900000000  0.5226120000000 1.0
C      1  0.4485950000000  0.4763080000000  0.4935100000000 1.0
C      1  0.4595990000000  0.4785130000000  0.4660780000000 1.0
C      1  0.5521970000000  0.5213940000000  0.4914600000000 1.0
C      1  0.5472390000000  0.5239320000000  0.5204130000000 1.0
C      1  0.5294320000000  0.5214870000000  0.5437800000000 1.0
C      1  0.5009850000000  0.5236940000000  0.5518030000000 1.0
C      1  0.4724520000000  0.5222130000000  0.5449270000000 1.0
C      1  0.4523980000000  0.5222140000000  0.5226130000000 1.0
C      1  0.4485970000000  0.5236970000000  0.4935100000000 1.0
C      1  0.4596010000000  0.5214910000000  0.4660780000000 1.0
C      1  0.4847300000000  0.5239350000000  0.4508590000000 1.0
C      1  0.5140460000000  0.5213960000000  0.4490090000000 1.0
C      1  0.5383080000000  0.5239650000000  0.4655730000000 1.0
C      1  0.4385600000000  0.5000030000000  0.5084030000000 1.0
C      1  0.4427580000000  0.5000030000000  0.4770200000000 1.0
C      1  0.4673640000000  0.5000020000000  0.4476280000000 1.0
C      1  0.4969720000000  0.5000000000000  0.4383080000000 1.0
C      1  0.5341860000000  0.4999990000000  0.4485020000000 1.0
C      1  0.5548430000000  0.4999980000000  0.4714880000000 1.0
C      1  0.5610190000000  0.4999970000000  0.5095750000000 1.0
C      1  0.5486020000000  0.4999980000000  0.5380230000000 1.0
C      1  0.5167590000000  0.4999990000000  0.5593620000000 1.0
C      1  0.4851080000000  0.5000000000000  0.5601970000000 1.0
C      1  0.4538820000000  0.5000020000000  0.5414470000000 1.0
END
