TITL C-22178-853-7 0.0606258105066189 125000 -725.51642033269 0 0 106 (C1) n - 1
REM
REM in /rds/project/t2_vol4/rds-t2-cs072/BORA/CARBON/from-Arr/AIRSS/Generating-Clusters/GAP-ML-2020/Higher-Symm/SD-CG/HFTN-CG
REM
REM
REM
REM
REM
REM ./C.cell (b20cbc046b6831c77cfcea5457e17084)
REM AIRSS Version 0.9.1 bugfix July 2018 build 013d7b7c2542+ Fri, 06 Jul 2018 19:26:36 +0100
REM compiler GCC version 9.3.0
REM options -cpp -mtune=generic -march=x86-64 -g -O0
REM seed -1660972740 127100298 1734105396 -3333008 -1476642219 290164968 1186973797 -495293027 1343272176 -1520108736 -736918120 1431811607 -1546308251 914499791 -629887962 489480546 -1736554785 -1392575778 -639777442 1394654217 -1201390764 1884337694 -1801062513 1695551526 -1582780199 -1529860451 -1992048990 -554908755 -594162471 1983126483 -260650612 -687248506 554982673
REM
CELL 1.54180   50.00000   50.00000   50.00000   90.00000   90.00000   90.00000
LATT -1
SFAC C  
C      1  0.4457910000000  0.5327090000000  0.4992270000000 1.0
C      1  0.5234730000000  0.5351470000000  0.5446370000000 1.0
C      1  0.5304090000000  0.5306630000000  0.4475560000000 1.0
C      1  0.5540890000000  0.5329680000000  0.4945460000000 1.0
C      1  0.4709070000000  0.5325350000000  0.5482080000000 1.0
C      1  0.4693140000000  0.5293700000000  0.4512840000000 1.0
C      1  0.5157900000000  0.5112400000000  0.5272670000000 1.0
C      1  0.5148260000000  0.5123350000000  0.4738180000000 1.0
C      1  0.4667470000000  0.5104080000000  0.5017840000000 1.0
C      1  0.4822100000000  0.5102630000000  0.5280740000000 1.0
C      1  0.4835030000000  0.5113180000000  0.4730710000000 1.0
C      1  0.5316490000000  0.5115140000000  0.5006840000000 1.0
C      1  0.5129990000000  0.4844320000000  0.4335450000000 1.0
C      1  0.4298640000000  0.4780790000000  0.5250110000000 1.0
C      1  0.5547310000000  0.4805410000000  0.5486900000000 1.0
C      1  0.4857350000000  0.4805740000000  0.4319180000000 1.0
C      1  0.5688150000000  0.4798430000000  0.5241270000000 1.0
C      1  0.4446820000000  0.4780280000000  0.5493610000000 1.0
C      1  0.5661400000000  0.5483670000000  0.5184200000000 1.0
C      1  0.4833770000000  0.5488080000000  0.4368300000000 1.0
C      1  0.4432580000000  0.5454720000000  0.5490850000000 1.0
C      1  0.4298460000000  0.5453130000000  0.5225450000000 1.0
C      1  0.5118480000000  0.5470310000000  0.4310100000000 1.0
C      1  0.5507430000000  0.5489790000000  0.5433060000000 1.0
C      1  0.4845480000000  0.5204370000000  0.5720150000000 1.0
C      1  0.5681230000000  0.5156060000000  0.4710340000000 1.0
C      1  0.4430830000000  0.5168100000000  0.4507450000000 1.0
C      1  0.5125640000000  0.5217840000000  0.5706870000000 1.0
C      1  0.4305520000000  0.5176320000000  0.4761330000000 1.0
C      1  0.5552910000000  0.5125150000000  0.4443080000000 1.0
C      1  0.4711450000000  0.4460500000000  0.5718110000000 1.0
C      1  0.5743370000000  0.4450040000000  0.4923500000000 1.0
C      1  0.4588440000000  0.4438400000000  0.4377450000000 1.0
C      1  0.5293280000000  0.4480110000000  0.5716440000000 1.0
C      1  0.4254750000000  0.4438430000000  0.4920840000000 1.0
C      1  0.5428480000000  0.4468210000000  0.4400550000000 1.0
C      1  0.4792090000000  0.5863400000000  0.4683240000000 1.0
C      1  0.4733600000000  0.5815860000000  0.5463550000000 1.0
C      1  0.5517580000000  0.5836150000000  0.4918100000000 1.0
C      1  0.5378630000000  0.5828600000000  0.4478160000000 1.0
C      1  0.5191350000000  0.5829850000000  0.5399980000000 1.0
C      1  0.4462250000000  0.5816950000000  0.4998280000000 1.0
C      1  0.5503000000000  0.4863230000000  0.5023300000000 1.0
C      1  0.4750860000000  0.4851620000000  0.4587050000000 1.0
C      1  0.4728430000000  0.4858980000000  0.5440740000000 1.0
C      1  0.4482660000000  0.4852070000000  0.5033070000000 1.0
C      1  0.5211280000000  0.4862490000000  0.4612610000000 1.0
C      1  0.5264320000000  0.4876060000000  0.5436520000000 1.0
C      1  0.4678840000000  0.4611030000000  0.5024330000000 1.0
C      1  0.5152030000000  0.4635610000000  0.5282860000000 1.0
C      1  0.5139540000000  0.4618610000000  0.4762280000000 1.0
C      1  0.5308550000000  0.4621160000000  0.5020620000000 1.0
C      1  0.4845500000000  0.4629030000000  0.5281840000000 1.0
C      1  0.4828060000000  0.4608640000000  0.4758860000000 1.0
C      1  0.5138430000000  0.4696290000000  0.5839640000000 1.0
C      1  0.5658300000000  0.4631340000000  0.4461070000000 1.0
C      1  0.4235520000000  0.4639190000000  0.4708910000000 1.0
C      1  0.4857180000000  0.4683410000000  0.5844750000000 1.0
C      1  0.4371740000000  0.4632920000000  0.4461280000000 1.0
C      1  0.5775860000000  0.4646380000000  0.4712890000000 1.0
C      1  0.4492490000000  0.4892910000000  0.4442140000000 1.0
C      1  0.4764240000000  0.4927110000000  0.5727460000000 1.0
C      1  0.5713020000000  0.4900530000000  0.4819360000000 1.0
C      1  0.5566530000000  0.4864530000000  0.4313090000000 1.0
C      1  0.5221360000000  0.4946530000000  0.5718720000000 1.0
C      1  0.4265530000000  0.4902620000000  0.4842950000000 1.0
C      1  0.4709900000000  0.4137510000000  0.5024330000000 1.0
C      1  0.5150470000000  0.4148080000000  0.5264560000000 1.0
C      1  0.5146530000000  0.4151850000000  0.4767200000000 1.0
C      1  0.5297460000000  0.4147820000000  0.5016790000000 1.0
C      1  0.4864430000000  0.4142730000000  0.5266350000000 1.0
C      1  0.4858980000000  0.4143450000000  0.4773460000000 1.0
C      1  0.4225300000000  0.4367950000000  0.5599470000000 1.0
C      1  0.5908870000000  0.4394400000000  0.5390620000000 1.0
C      1  0.4952060000000  0.4510530000000  0.3985690000000 1.0
C      1  0.5777690000000  0.4400460000000  0.5608250000000 1.0
C      1  0.4087000000000  0.4369570000000  0.5385750000000 1.0
C      1  0.5196600000000  0.4590880000000  0.3956330000000 1.0
C      1  0.4802140000000  0.5558870000000  0.5310370000000 1.0
C      1  0.5383660000000  0.5567110000000  0.4854760000000 1.0
C      1  0.4891770000000  0.5663530000000  0.4870250000000 1.0
C      1  0.5093670000000  0.5566220000000  0.5276780000000 1.0
C      1  0.4666070000000  0.5568580000000  0.5027820000000 1.0
C      1  0.5393490000000  0.5557800000000  0.4573190000000 1.0
C      1  0.5828670000000  0.4549900000000  0.5175160000000 1.0
C      1  0.4763070000000  0.4569460000000  0.4183510000000 1.0
C      1  0.4443610000000  0.4534910000000  0.5652880000000 1.0
C      1  0.4163780000000  0.4532390000000  0.5174010000000 1.0
C      1  0.5326500000000  0.4692540000000  0.4196730000000 1.0
C      1  0.5557260000000  0.4564560000000  0.5654140000000 1.0
C      1  0.4865170000000  0.5784720000000  0.4417640000000 1.0
C      1  0.4454630000000  0.5753650000000  0.5483720000000 1.0
C      1  0.5638780000000  0.5790950000000  0.5169180000000 1.0
C      1  0.5142790000000  0.5775230000000  0.4335900000000 1.0
C      1  0.5474620000000  0.5789900000000  0.5414350000000 1.0
C      1  0.4310050000000  0.5749740000000  0.5223250000000 1.0
C      1  0.5480690000000  0.4370330000000  0.5001530000000 1.0
C      1  0.4740250000000  0.4352540000000  0.4602930000000 1.0
C      1  0.4851810000000  0.4368670000000  0.5468980000000 1.0
C      1  0.4516800000000  0.4356240000000  0.5015310000000 1.0
C      1  0.5243780000000  0.4375320000000  0.4594490000000 1.0
C      1  0.5157640000000  0.4376230000000  0.5467230000000 1.0
C      1  0.4554120000000  0.5959850000000  0.4796780000000 1.0
C      1  0.4967000000000  0.5949740000000  0.5495210000000 1.0
C      1  0.5486150000000  0.5982950000000  0.4691040000000 1.0
C      1  0.5122240000000  0.5567670000000  0.4979210000000 1.0
END
