TITL C-22158-1947-11 0.383511884304095 125000 -698.630816296853 0 0 101 (C2) n - 1
REM
REM in /rds/project/t2_vol4/rds-t2-cs072/BORA/CARBON/from-Arr/AIRSS/Generating-Clusters/GAP-ML-2020/Higher-Symm/SD-CG/HFTN-CG
REM
REM
REM
REM
REM
REM ./C.cell (b20cbc046b6831c77cfcea5457e17084)
REM AIRSS Version 0.9.1 bugfix July 2018 build 013d7b7c2542+ Fri, 06 Jul 2018 19:26:36 +0100
REM compiler GCC version 9.3.0
REM options -cpp -mtune=generic -march=x86-64 -g -O0
REM seed 778816072 2037839396 -519947484 1939101448 1985404338 363783955 -766670664 1546940854 -1574256439 418970479 -1566369442 -874973250 1257320399 1737874520 779895821 675548999 1604275192 -2010778275 -777375237 -1481002619 -211694097 -1268047512 1640912720 -392084229 -1609893416 851192369 -642256754 -471348439 417951701 -880846253 -335080405 532918260 -1796650183
REM
CELL 1.54180   50.00000   50.00000   50.00000   90.00000   90.00000   90.00000
LATT -1
SFAC C  
C      1  0.4990040000000  0.4148050000000  0.5416680000000 1.0
C      1  0.5017360000000  0.4148220000000  0.4587030000000 1.0
C      1  0.4995700000000  0.5850040000000  0.5412720000000 1.0
C      1  0.5011160000000  0.5850200000000  0.4591660000000 1.0
C      1  0.5375640000000  0.4805310000000  0.4947540000000 1.0
C      1  0.4631550000000  0.4805170000000  0.5056430000000 1.0
C      1  0.5274600000000  0.5113300000000  0.4965830000000 1.0
C      1  0.4732490000000  0.5113200000000  0.5038260000000 1.0
C      1  0.5059850000000  0.4506030000000  0.5659570000000 1.0
C      1  0.4947440000000  0.4506280000000  0.4344280000000 1.0
C      1  0.5062510000000  0.5497420000000  0.5658020000000 1.0
C      1  0.4944460000000  0.5497660000000  0.4346220000000 1.0
C      1  0.5252250000000  0.4527600000000  0.4464030000000 1.0
C      1  0.4755020000000  0.4527310000000  0.5539820000000 1.0
C      1  0.5248840000000  0.5476780000000  0.4464540000000 1.0
C      1  0.4758140000000  0.5476490000000  0.5539700000000 1.0
C      1  0.4608630000000  0.5765280000000  0.5122230000000 1.0
C      1  0.5398260000000  0.5765460000000  0.4882120000000 1.0
C      1  0.4604480000000  0.4230720000000  0.5118830000000 1.0
C      1  0.5402890000000  0.4230900000000  0.4884910000000 1.0
C      1  0.5034880000000  0.4864300000000  0.5278090000000 1.0
C      1  0.4972300000000  0.4864400000000  0.4725900000000 1.0
C      1  0.5044710000000  0.5115850000000  0.5397690000000 1.0
C      1  0.4962380000000  0.5115990000000  0.4606400000000 1.0
C      1  0.4572720000000  0.4473870000000  0.4668910000000 1.0
C      1  0.5434580000000  0.4473870000000  0.5334930000000 1.0
C      1  0.4578430000000  0.5518320000000  0.4675300000000 1.0
C      1  0.5428530000000  0.5518330000000  0.5328950000000 1.0
C      1  0.5427720000000  0.5144280000000  0.5677500000000 1.0
C      1  0.4579360000000  0.5144410000000  0.4326600000000 1.0
C      1  0.5426150000000  0.4858330000000  0.5677440000000 1.0
C      1  0.4581020000000  0.4858460000000  0.4326540000000 1.0
C      1  0.4700960000000  0.5151910000000  0.5868660000000 1.0
C      1  0.5306120000000  0.5152350000000  0.4135450000000 1.0
C      1  0.4702990000000  0.4864030000000  0.5865810000000 1.0
C      1  0.5304180000000  0.4864470000000  0.4138180000000 1.0
C      1  0.4729200000000  0.5733300000000  0.5399630000000 1.0
C      1  0.5277690000000  0.5733550000000  0.4604700000000 1.0
C      1  0.4721190000000  0.4264640000000  0.5403180000000 1.0
C      1  0.5286180000000  0.4264890000000  0.4600570000000 1.0
C      1  0.5206430000000  0.4326330000000  0.5505120000000 1.0
C      1  0.4800910000000  0.4326460000000  0.4498660000000 1.0
C      1  0.5209630000000  0.5668670000000  0.5496040000000 1.0
C      1  0.4797290000000  0.5668800000000  0.4508270000000 1.0
C      1  0.4267460000000  0.5156700000000  0.5244000000000 1.0
C      1  0.5739620000000  0.5157030000000  0.4760110000000 1.0
C      1  0.4277660000000  0.4862390000000  0.5245600000000 1.0
C      1  0.5729510000000  0.4862720000000  0.4758390000000 1.0
C      1  0.5019400000000  0.5150480000000  0.4075020000000 1.0
C      1  0.4987680000000  0.5150110000000  0.5929080000000 1.0
C      1  0.5016420000000  0.4866330000000  0.4081010000000 1.0
C      1  0.4990750000000  0.4865960000000  0.5922980000000 1.0
C      1  0.5014880000000  0.4495150000000  0.5138210000000 1.0
C      1  0.4992410000000  0.4495200000000  0.4865630000000 1.0
C      1  0.5019760000000  0.5450520000000  0.5135770000000 1.0
C      1  0.4987220000000  0.5450570000000  0.4868450000000 1.0
C      1  0.5700750000000  0.5318610000000  0.5002940000000 1.0
C      1  0.4306280000000  0.5318390000000  0.5001230000000 1.0
C      1  0.5662620000000  0.4702310000000  0.4997010000000 1.0
C      1  0.4344600000000  0.4702090000000  0.5006920000000 1.0
C      1  0.4816710000000  0.5284160000000  0.4212820000000 1.0
C      1  0.5190320000000  0.5283910000000  0.5791330000000 1.0
C      1  0.4818970000000  0.4725600000000  0.4217720000000 1.0
C      1  0.5188240000000  0.4725350000000  0.5786220000000 1.0
C      1  0.5029960000000  0.6010220000000  0.5195050000000 1.0
C      1  0.4976850000000  0.6010290000000  0.4809400000000 1.0
C      1  0.5027900000000  0.3990750000000  0.5196080000000 1.0
C      1  0.4979550000000  0.3990810000000  0.4807560000000 1.0
C      1  0.5218620000000  0.4035310000000  0.4988630000000 1.0
C      1  0.4788820000000  0.4035230000000  0.5015030000000 1.0
C      1  0.5220400000000  0.5967250000000  0.4988040000000 1.0
C      1  0.4786420000000  0.5967180000000  0.5016390000000 1.0
C      1  0.4459630000000  0.5572640000000  0.4950140000000 1.0
C      1  0.5547320000000  0.5572790000000  0.5054130000000 1.0
C      1  0.4454320000000  0.4413910000000  0.4943380000000 1.0
C      1  0.5553000000000  0.4414060000000  0.5060430000000 1.0
C      1  0.5704840000000  0.5146430000000  0.5246320000000 1.0
C      1  0.4302250000000  0.5146300000000  0.4757780000000 1.0
C      1  0.5697900000000  0.4859720000000  0.5250380000000 1.0
C      1  0.4309270000000  0.4859600000000  0.4753600000000 1.0
C      1  0.4373500000000  0.5154520000000  0.5522820000000 1.0
C      1  0.5633570000000  0.5154920000000  0.4481280000000 1.0
C      1  0.4382460000000  0.4866940000000  0.5520380000000 1.0
C      1  0.5624710000000  0.4867340000000  0.4483610000000 1.0
C      1  0.4459030000000  0.4721760000000  0.4552630000000 1.0
C      1  0.5548180000000  0.4721750000000  0.5451300000000 1.0
C      1  0.4457440000000  0.5280240000000  0.4553480000000 1.0
C      1  0.5549600000000  0.5280240000000  0.5450680000000 1.0
C      1  0.4808710000000  0.4679040000000  0.5273730000000 1.0
C      1  0.5198520000000  0.4679210000000  0.4730180000000 1.0
C      1  0.4828300000000  0.5278360000000  0.5284940000000 1.0
C      1  0.5178740000000  0.5278520000000  0.4719210000000 1.0
C      1  0.4753760000000  0.4686260000000  0.4803590000000 1.0
C      1  0.5253470000000  0.4686270000000  0.5200330000000 1.0
C      1  0.4764680000000  0.5270290000000  0.4781280000000 1.0
C      1  0.5242360000000  0.5270280000000  0.5222870000000 1.0
C      1  0.4563620000000  0.5306530000000  0.5682660000000 1.0
C      1  0.5443410000000  0.5306940000000  0.4321500000000 1.0
C      1  0.4570890000000  0.4712540000000  0.5673800000000 1.0
C      1  0.5436330000000  0.4712950000000  0.4330130000000 1.0
C      1  0.5003570000000  0.4985290000000  0.5002020000000 1.0
END
