TITL C-22203-8070-2 116.149525004586 125000 -1282.07010267576 0 0 184 (Ci) n - 1
REM
REM in /rds/project/t2_vol4/rds-t2-cs072/BORA/CARBON/from-Arr/AIRSS/Generating-Clusters/GAP-ML-2020/Higher-Symm/SD-CG/HFTN-CG/C160-200
REM
REM
REM
REM
REM
REM ./C.cell (6b4489405718ea1b717e0baf1da4c2d9)
REM AIRSS Version 0.9.1 bugfix July 2018 build 013d7b7c2542+ Fri, 06 Jul 2018 19:26:36 +0100
REM compiler GCC version 9.3.0
REM options -cpp -mtune=generic -march=x86-64 -g -O0
REM seed 436463498 -1287261494 815055594 714531982 -643552132 1304414020 -527418911 -1936310582 -332779186 733009922 -1392679212 -1032000946 1183824728 2076487443 -788548196 -1105575723 1954847661 -549193245 -499816643 -1624203536 -126373551 1467366426 1415591197 849286419 -1720245698 -638230554 -1181289411 -770296932 -152798831 1775581925 -871171289 -55649168 482055847
REM
CELL 1.54180   50.00000   50.00000   50.00000   90.00000   90.00000   90.00000
LATT -1
SFAC C  
C      1  0.4971420000000  0.5480720000000  0.4778860000000 1.0
C      1  0.5028580000000  0.4519280000000  0.5221140000000 1.0
C      1  0.4624410000000  0.5343440000000  0.4197920000000 1.0
C      1  0.5375590000000  0.4656560000000  0.5802080000000 1.0
C      1  0.5808120000000  0.5033970000000  0.5126580000000 1.0
C      1  0.4191880000000  0.4966030000000  0.4873420000000 1.0
C      1  0.4177360000000  0.5482520000000  0.5505110000000 1.0
C      1  0.5822640000000  0.4517480000000  0.4494890000000 1.0
C      1  0.4745010000000  0.4316520000000  0.5991200000000 1.0
C      1  0.5254990000000  0.5683480000000  0.4008800000000 1.0
C      1  0.5309910000000  0.3966000000000  0.4596160000000 1.0
C      1  0.4690090000000  0.6034000000000  0.5403840000000 1.0
C      1  0.5662580000000  0.4270590000000  0.4528890000000 1.0
C      1  0.4337420000000  0.5729410000000  0.5471110000000 1.0
C      1  0.5212120000000  0.4576150000000  0.4649930000000 1.0
C      1  0.4787880000000  0.5423850000000  0.5350070000000 1.0
C      1  0.5238780000000  0.4301070000000  0.4173540000000 1.0
C      1  0.4761220000000  0.5698930000000  0.5826460000000 1.0
C      1  0.5494770000000  0.5981610000000  0.5071440000000 1.0
C      1  0.4505230000000  0.4018390000000  0.4928560000000 1.0
C      1  0.4578870000000  0.5850000000000  0.5603140000000 1.0
C      1  0.5421130000000  0.4150000000000  0.4396860000000 1.0
C      1  0.4338670000000  0.5293040000000  0.5256870000000 1.0
C      1  0.5661330000000  0.4706960000000  0.4743130000000 1.0
C      1  0.5358040000000  0.4424790000000  0.4874260000000 1.0
C      1  0.4641960000000  0.5575210000000  0.5125740000000 1.0
C      1  0.4805750000000  0.5043330000000  0.6087540000000 1.0
C      1  0.5194250000000  0.4956670000000  0.3912460000000 1.0
C      1  0.5114300000000  0.5056380000000  0.4362750000000 1.0
C      1  0.4885700000000  0.4943620000000  0.5637260000000 1.0
C      1  0.4647190000000  0.4813830000000  0.6054610000000 1.0
C      1  0.5352810000000  0.5186170000000  0.3945390000000 1.0
C      1  0.5600980000000  0.4294210000000  0.5600330000000 1.0
C      1  0.4399020000000  0.5705790000000  0.4399670000000 1.0
C      1  0.5804250000000  0.5628150000000  0.5501050000000 1.0
C      1  0.4195750000000  0.4371840000000  0.4498950000000 1.0
C      1  0.5127710000000  0.5738000000000  0.5588890000000 1.0
C      1  0.4872290000000  0.4262000000000  0.4411110000000 1.0
C      1  0.4192190000000  0.5265890000000  0.5710330000000 1.0
C      1  0.5807810000000  0.4734110000000  0.4289670000000 1.0
C      1  0.4177250000000  0.4838130000000  0.5168830000000 1.0
C      1  0.5822750000000  0.5161870000000  0.4831170000000 1.0
C      1  0.5244860000000  0.5940430000000  0.4897330000000 1.0
C      1  0.4755140000000  0.4059570000000  0.5102670000000 1.0
C      1  0.4667700000000  0.4992460000000  0.5242600000000 1.0
C      1  0.5332300000000  0.5007540000000  0.4757400000000 1.0
C      1  0.4841240000000  0.4093050000000  0.5616350000000 1.0
C      1  0.5158760000000  0.5906950000000  0.4383650000000 1.0
C      1  0.4363440000000  0.5698120000000  0.4705200000000 1.0
C      1  0.5636560000000  0.4301880000000  0.5294800000000 1.0
C      1  0.4903810000000  0.5758580000000  0.4375100000000 1.0
C      1  0.5096190000000  0.4241420000000  0.5624900000000 1.0
C      1  0.4186700000000  0.5696130000000  0.4949710000000 1.0
C      1  0.5813300000000  0.4303870000000  0.5050290000000 1.0
C      1  0.5458890000000  0.3967950000000  0.4833270000000 1.0
C      1  0.4541110000000  0.6032050000000  0.5166730000000 1.0
C      1  0.4405200000000  0.4709720000000  0.4185790000000 1.0
C      1  0.5594800000000  0.5290280000000  0.5814210000000 1.0
C      1  0.4989490000000  0.4717900000000  0.4797910000000 1.0
C      1  0.5010510000000  0.5282100000000  0.5202090000000 1.0
C      1  0.4806300000000  0.4650430000000  0.5640870000000 1.0
C      1  0.5193700000000  0.5349570000000  0.4359130000000 1.0
C      1  0.4581450000000  0.5209140000000  0.5411430000000 1.0
C      1  0.5418550000000  0.4790860000000  0.4588570000000 1.0
C      1  0.4821560000000  0.4009200000000  0.4565010000000 1.0
C      1  0.5178440000000  0.5990800000000  0.5434990000000 1.0
C      1  0.5924010000000  0.5444340000000  0.4857300000000 1.0
C      1  0.4075990000000  0.4555660000000  0.5142700000000 1.0
C      1  0.5236560000000  0.5478110000000  0.5173390000000 1.0
C      1  0.4763440000000  0.4521890000000  0.4826610000000 1.0
C      1  0.6003870000000  0.5219410000000  0.5253390000000 1.0
C      1  0.3996130000000  0.4780590000000  0.4746610000000 1.0
C      1  0.4371920000000  0.5467160000000  0.4230590000000 1.0
C      1  0.5628080000000  0.4532840000000  0.5769410000000 1.0
C      1  0.5885010000000  0.5696620000000  0.5238590000000 1.0
C      1  0.4114990000000  0.4303380000000  0.4761410000000 1.0
C      1  0.4625810000000  0.5861840000000  0.4735800000000 1.0
C      1  0.5374190000000  0.4138160000000  0.5264200000000 1.0
C      1  0.4042460000000  0.5450780000000  0.4972910000000 1.0
C      1  0.5957540000000  0.4549220000000  0.5027100000000 1.0
C      1  0.4784260000000  0.4452480000000  0.4028520000000 1.0
C      1  0.5215740000000  0.5547520000000  0.5971480000000 1.0
C      1  0.4125980000000  0.5012830000000  0.5599670000000 1.0
C      1  0.5874020000000  0.4987170000000  0.4400330000000 1.0
C      1  0.4404140000000  0.5182890000000  0.5901650000000 1.0
C      1  0.5595860000000  0.4817110000000  0.4098350000000 1.0
C      1  0.4626880000000  0.5286100000000  0.6069030000000 1.0
C      1  0.5373120000000  0.4713900000000  0.3930970000000 1.0
C      1  0.5920720000000  0.4873440000000  0.5533010000000 1.0
C      1  0.4079280000000  0.5126560000000  0.4466990000000 1.0
C      1  0.4061740000000  0.5051820000000  0.5331970000000 1.0
C      1  0.5938260000000  0.4948180000000  0.4668030000000 1.0
C      1  0.4667330000000  0.4443990000000  0.4531110000000 1.0
C      1  0.5332670000000  0.5556010000000  0.5468890000000 1.0
C      1  0.4930260000000  0.4229480000000  0.4121730000000 1.0
C      1  0.5069740000000  0.5770520000000  0.5878270000000 1.0
C      1  0.4941780000000  0.5476080000000  0.4488700000000 1.0
C      1  0.5058220000000  0.4523920000000  0.5511300000000 1.0
C      1  0.4295560000000  0.4780110000000  0.5684090000000 1.0
C      1  0.5704440000000  0.5219890000000  0.4315910000000 1.0
C      1  0.5191550000000  0.4319520000000  0.5083900000000 1.0
C      1  0.4808450000000  0.5680480000000  0.4916100000000 1.0
C      1  0.4444560000000  0.4318850000000  0.5415530000000 1.0
C      1  0.5555440000000  0.5681150000000  0.4584470000000 1.0
C      1  0.5013600000000  0.3889720000000  0.4986500000000 1.0
C      1  0.4986400000000  0.6110280000000  0.5013500000000 1.0
C      1  0.4897150000000  0.4676160000000  0.4212810000000 1.0
C      1  0.5102850000000  0.5323840000000  0.5787190000000 1.0
C      1  0.4417520000000  0.5401510000000  0.4714110000000 1.0
C      1  0.5582480000000  0.4598490000000  0.5285890000000 1.0
C      1  0.4495450000000  0.5350300000000  0.5001760000000 1.0
C      1  0.5504550000000  0.4649700000000  0.4998240000000 1.0
C      1  0.5761880000000  0.4792080000000  0.5757630000000 1.0
C      1  0.4238120000000  0.5207920000000  0.4242370000000 1.0
C      1  0.4147230000000  0.5248100000000  0.4745080000000 1.0
C      1  0.5852770000000  0.4751900000000  0.5254920000000 1.0
C      1  0.4267210000000  0.4166860000000  0.4979620000000 1.0
C      1  0.5732790000000  0.5833140000000  0.5020370000000 1.0
C      1  0.4443710000000  0.4249820000000  0.4506950000000 1.0
C      1  0.5556290000000  0.5750180000000  0.5493050000000 1.0
C      1  0.4554850000000  0.4020400000000  0.4651770000000 1.0
C      1  0.5445150000000  0.5979600000000  0.5348230000000 1.0
C      1  0.4991220000000  0.4994310000000  0.4660260000000 1.0
C      1  0.5008780000000  0.5005690000000  0.5339740000000 1.0
C      1  0.4629700000000  0.5097130000000  0.5665760000000 1.0
C      1  0.5370290000000  0.4902870000000  0.4334240000000 1.0
C      1  0.4026720000000  0.4840740000000  0.4476150000000 1.0
C      1  0.5973280000000  0.5159260000000  0.5523850000000 1.0
C      1  0.4675660000000  0.4976740000000  0.4561170000000 1.0
C      1  0.5324340000000  0.5023260000000  0.5438830000000 1.0
C      1  0.4054180000000  0.5341500000000  0.5255240000000 1.0
C      1  0.5945820000000  0.4658500000000  0.4744760000000 1.0
C      1  0.4492280000000  0.4755050000000  0.5232650000000 1.0
C      1  0.5507720000000  0.5244950000000  0.4767350000000 1.0
C      1  0.5264820000000  0.5917080000000  0.4118750000000 1.0
C      1  0.4735180000000  0.4082930000000  0.5881250000000 1.0
C      1  0.5340950000000  0.4703070000000  0.5501910000000 1.0
C      1  0.4659050000000  0.5296930000000  0.4498090000000 1.0
C      1  0.5491380000000  0.5079460000000  0.5199050000000 1.0
C      1  0.4508620000000  0.4920540000000  0.4800950000000 1.0
C      1  0.5119170000000  0.5668130000000  0.4969270000000 1.0
C      1  0.4880830000000  0.4331870000000  0.5030730000000 1.0
C      1  0.5472200000000  0.5482320000000  0.6010040000000 1.0
C      1  0.4527800000000  0.4517680000000  0.3989960000000 1.0
C      1  0.5592080000000  0.5000600000000  0.5885710000000 1.0
C      1  0.4407920000000  0.4999400000000  0.4114290000000 1.0
C      1  0.4674000000000  0.5097360000000  0.4067190000000 1.0
C      1  0.5325990000000  0.4902640000000  0.5932810000000 1.0
C      1  0.5339110000000  0.5882670000000  0.4611610000000 1.0
C      1  0.4660890000000  0.4117330000000  0.5388390000000 1.0
C      1  0.5090810000000  0.4486290000000  0.4381440000000 1.0
C      1  0.4909190000000  0.5513710000000  0.5618560000000 1.0
C      1  0.4926510000000  0.5217480000000  0.4898720000000 1.0
C      1  0.5073490000000  0.4782520000000  0.5101280000000 1.0
C      1  0.6009470000000  0.5470850000000  0.5123910000000 1.0
C      1  0.3990530000000  0.4529150000000  0.4876090000000 1.0
C      1  0.5626950000000  0.4213250000000  0.4819500000000 1.0
C      1  0.4373050000000  0.5786750000000  0.5180500000000 1.0
C      1  0.5243910000000  0.5419370000000  0.4065250000000 1.0
C      1  0.4756090000000  0.4580630000000  0.5934750000000 1.0
C      1  0.4643450000000  0.5846230000000  0.4437740000000 1.0
C      1  0.5356550000000  0.4153770000000  0.5562260000000 1.0
C      1  0.5590570000000  0.5104570000000  0.4078300000000 1.0
C      1  0.4409430000000  0.4895430000000  0.5921700000000 1.0
C      1  0.5318320000000  0.4449320000000  0.3941650000000 1.0
C      1  0.4681680000000  0.5550680000000  0.6058350000000 1.0
C      1  0.4235840000000  0.4323010000000  0.5217610000000 1.0
C      1  0.5764160000000  0.5676990000000  0.4782390000000 1.0
C      1  0.4169170000000  0.4626060000000  0.4355530000000 1.0
C      1  0.5830830000000  0.5373940000000  0.5644470000000 1.0
C      1  0.5345480000000  0.4883800000000  0.5022770000000 1.0
C      1  0.4654520000000  0.5116200000000  0.4977230000000 1.0
C      1  0.5034570000000  0.3893060000000  0.4701130000000 1.0
C      1  0.4965430000000  0.6106940000000  0.5298870000000 1.0
C      1  0.5494750000000  0.5395110000000  0.4498730000000 1.0
C      1  0.4505250000000  0.4604890000000  0.5501270000000 1.0
C      1  0.5454430000000  0.5334820000000  0.5059580000000 1.0
C      1  0.4545570000000  0.4665180000000  0.4940420000000 1.0
C      1  0.5343020000000  0.5288430000000  0.5618530000000 1.0
C      1  0.4656980000000  0.4711570000000  0.4381470000000 1.0
C      1  0.4707260000000  0.6067870000000  0.4934330000000 1.0
C      1  0.5292740000000  0.3932130000000  0.5065670000000 1.0
C      1  0.5053540000000  0.5042420000000  0.5892340000000 1.0
C      1  0.4946460000000  0.4957580000000  0.4107660000000 1.0
END
