TITL C-22187-9966-9 0.0396394284263863 125000 -73.1440643688842 0 0 11 (Cs) n - 1
REM
REM in /rds/project/t2_vol4/rds-t2-cs072/BORA/CARBON/from-Arr/AIRSS/Generating-Clusters/GAP-ML-2020/Higher-Symm/SD-CG/HFTN-CG
REM
REM
REM
REM
REM
REM ./C.cell (b20cbc046b6831c77cfcea5457e17084)
REM AIRSS Version 0.9.1 bugfix July 2018 build 013d7b7c2542+ Fri, 06 Jul 2018 19:26:36 +0100
REM compiler GCC version 9.3.0
REM options -cpp -mtune=generic -march=x86-64 -g -O0
REM seed 1118295719 -474961342 -1620230480 -98157798 -754391924 224217142 -75090542 -1977380672 -226605899 2079766326 -1282359725 1459231239 -1179981745 1654234308 843473880 1071226936 -1285484100 1595764957 1810225977 2035505089 7149156 772274008 840643544 1755283774 1096879778 -519877548 -589637362 -1733986436 1364842603 1593805140 -1696272845 334600816 428762057
REM
CELL 1.54180   50.00000   50.00000   50.00000   90.00000   90.00000   90.00000
LATT -1
SFAC C  
C      1  0.5000000000000  0.5245160000000  0.5392650000000 1.0
C      1  0.5000000000000  0.4993960000000  0.5462870000000 1.0
C      1  0.5000000000000  0.4744670000000  0.5386120000000 1.0
C      1  0.5000000000000  0.4576450000000  0.5186790000000 1.0
C      1  0.5000000000000  0.4542700000000  0.4928150000000 1.0
C      1  0.5000000000000  0.4654140000000  0.4692320000000 1.0
C      1  0.5000000000000  0.4875390000000  0.4554180000000 1.0
C      1  0.5000000000000  0.5136200000000  0.4557580000000 1.0
C      1  0.5000000000000  0.5353770000000  0.4701450000000 1.0
C      1  0.5000000000000  0.5459020000000  0.4940110000000 1.0
C      1  0.5000000000000  0.5418530000000  0.5197780000000 1.0
END
