TITL C-22196-9773-9 0.0988192275960394 125000 -68.0900357178817 0 0 11 (Cs) n - 1
REM
REM in /rds/project/t2_vol4/rds-t2-cs072/BORA/CARBON/from-Arr/AIRSS/Generating-Clusters/GAP-ML-2020/Higher-Symm/SD-CG/HFTN-CG
REM
REM
REM
REM
REM
REM ./C.cell (b20cbc046b6831c77cfcea5457e17084)
REM AIRSS Version 0.9.1 bugfix July 2018 build 013d7b7c2542+ Fri, 06 Jul 2018 19:26:36 +0100
REM compiler GCC version 9.3.0
REM options -cpp -mtune=generic -march=x86-64 -g -O0
REM seed -30211138 934639019 1667637433 1938101316 1610000645 -894090845 -1798595058 2135286443 1333439378 -462170430 1528974595 -745131187 307618952 1638262753 462856087 149642288 1716026220 1192179777 2142398342 -429752107 1418293773 700428604 2130598897 1863924326 -889015473 1843400539 2057271518 -1623549735 2024497197 -924350373 -126849943 1196375245 1653803517
REM
CELL 1.54180   50.00000   50.00000   50.00000   90.00000   90.00000   90.00000
LATT -1
SFAC C  
C      1  0.4722520000000  0.4881970000000  0.4809470000000 1.0
C      1  0.4672920000000  0.4925860000000  0.5103640000000 1.0
C      1  0.5313060000000  0.4977900000000  0.5214570000000 1.0
C      1  0.5406450000000  0.4945470000000  0.4971160000000 1.0
C      1  0.4921260000000  0.4866650000000  0.4638320000000 1.0
C      1  0.5278790000000  0.5107170000000  0.5448030000000 1.0
C      1  0.5507510000000  0.4904000000000  0.4744150000000 1.0
C      1  0.5104340000000  0.4838510000000  0.4467590000000 1.0
C      1  0.4492010000000  0.4979360000000  0.4908310000000 1.0
C      1  0.4781730000000  0.4960900000000  0.5348810000000 1.0
C      1  0.5050590000000  0.4987210000000  0.5362720000000 1.0
END
