TITL C-22184-1925-3 127.939480538662 125000 -443.904750679181 0 0 66 (C1) n - 1
REM
REM in /rds/project/t2_vol4/rds-t2-cs072/BORA/CARBON/from-Arr/AIRSS/Generating-Clusters/GAP-ML-2020/Higher-Symm/SD-CG/HFTN-CG
REM
REM
REM
REM
REM
REM ./C.cell (b20cbc046b6831c77cfcea5457e17084)
REM AIRSS Version 0.9.1 bugfix July 2018 build 013d7b7c2542+ Fri, 06 Jul 2018 19:26:36 +0100
REM compiler GCC version 9.3.0
REM options -cpp -mtune=generic -march=x86-64 -g -O0
REM seed 57522375 -2046540992 -629403073 -904264341 2078262019 1230710179 -362282769 1218754271 -949700704 -817297107 -1945601279 -613424726 -1722163642 476868611 185058144 407418923 1156248604 -198597479 1235692534 768875538 24063633 163064754 1250310867 797488849 1452393549 465242121 -961813430 172468003 -1087646836 -865624061 370845926 349747094 1928508992
REM
CELL 1.54180   50.00000   50.00000   50.00000   90.00000   90.00000   90.00000
LATT -1
SFAC C  
C      1  0.4794700000000  0.5292860000000  0.4437180000000 1.0
C      1  0.5207420000000  0.4718330000000  0.5553630000000 1.0
C      1  0.4870540000000  0.5665880000000  0.5205860000000 1.0
C      1  0.5100690000000  0.4321260000000  0.4822720000000 1.0
C      1  0.5262700000000  0.4536190000000  0.4754830000000 1.0
C      1  0.4725650000000  0.5439120000000  0.5250180000000 1.0
C      1  0.5233700000000  0.5633480000000  0.4848060000000 1.0
C      1  0.4755890000000  0.4380670000000  0.5182980000000 1.0
C      1  0.5122760000000  0.5697360000000  0.5113950000000 1.0
C      1  0.4847250000000  0.4282170000000  0.4917800000000 1.0
C      1  0.5324900000000  0.5612220000000  0.5295720000000 1.0
C      1  0.4606600000000  0.4317830000000  0.4757050000000 1.0
C      1  0.4540350000000  0.4569040000000  0.5152980000000 1.0
C      1  0.5456640000000  0.5448110000000  0.4872810000000 1.0
C      1  0.4610560000000  0.5088850000000  0.5679300000000 1.0
C      1  0.5424090000000  0.4995840000000  0.4292210000000 1.0
C      1  0.4402850000000  0.5224390000000  0.4644580000000 1.0
C      1  0.5609330000000  0.4764360000000  0.5335970000000 1.0
C      1  0.5542520000000  0.5339790000000  0.5556590000000 1.0
C      1  0.4506420000000  0.4627090000000  0.4468370000000 1.0
C      1  0.4570470000000  0.4352700000000  0.4490360000000 1.0
C      1  0.5284510000000  0.5478850000000  0.5538640000000 1.0
C      1  0.5066060000000  0.5613260000000  0.4624330000000 1.0
C      1  0.4927340000000  0.4405900000000  0.5403080000000 1.0
C      1  0.5070930000000  0.5254400000000  0.5594930000000 1.0
C      1  0.4976250000000  0.4797740000000  0.4363850000000 1.0
C      1  0.4899560000000  0.4769440000000  0.4866670000000 1.0
C      1  0.5104460000000  0.5218040000000  0.5104390000000 1.0
C      1  0.4546170000000  0.4852670000000  0.5270300000000 1.0
C      1  0.5458970000000  0.5166620000000  0.4732340000000 1.0
C      1  0.4917150000000  0.5210710000000  0.5336610000000 1.0
C      1  0.5098300000000  0.4782400000000  0.4639590000000 1.0
C      1  0.4631380000000  0.5077410000000  0.4522950000000 1.0
C      1  0.5382140000000  0.4910990000000  0.5446750000000 1.0
C      1  0.4499810000000  0.5046160000000  0.5036710000000 1.0
C      1  0.5502410000000  0.4952930000000  0.4953570000000 1.0
C      1  0.5731050000000  0.4959290000000  0.5159310000000 1.0
C      1  0.4272810000000  0.5034140000000  0.4824790000000 1.0
C      1  0.4440080000000  0.4958520000000  0.5540490000000 1.0
C      1  0.5582230000000  0.5101620000000  0.4459980000000 1.0
C      1  0.4843550000000  0.4911890000000  0.5327680000000 1.0
C      1  0.5165100000000  0.5098020000000  0.4660850000000 1.0
C      1  0.5901140000000  0.5160570000000  0.5222470000000 1.0
C      1  0.4091520000000  0.4841360000000  0.4754430000000 1.0
C      1  0.4683110000000  0.4828440000000  0.4375140000000 1.0
C      1  0.5366900000000  0.5135050000000  0.5616550000000 1.0
C      1  0.5464240000000  0.4644840000000  0.4928750000000 1.0
C      1  0.4533470000000  0.5344130000000  0.5064170000000 1.0
C      1  0.5542010000000  0.5494450000000  0.5138060000000 1.0
C      1  0.4433370000000  0.4508300000000  0.4901940000000 1.0
C      1  0.5261530000000  0.4983050000000  0.5140500000000 1.0
C      1  0.4741390000000  0.5004240000000  0.4837370000000 1.0
C      1  0.4533970000000  0.5427040000000  0.4792850000000 1.0
C      1  0.5468610000000  0.4563640000000  0.5196780000000 1.0
C      1  0.4815700000000  0.5450960000000  0.4682460000000 1.0
C      1  0.5178780000000  0.4547270000000  0.5316960000000 1.0
C      1  0.5069580000000  0.5228700000000  0.4378030000000 1.0
C      1  0.4940950000000  0.4812050000000  0.5614020000000 1.0
C      1  0.5150690000000  0.4988850000000  0.4229650000000 1.0
C      1  0.4878310000000  0.5080520000000  0.5747370000000 1.0
C      1  0.4962130000000  0.5205800000000  0.4848340000000 1.0
C      1  0.5034810000000  0.4784450000000  0.5134190000000 1.0
C      1  0.4314970000000  0.4677820000000  0.4706060000000 1.0
C      1  0.5703150000000  0.5336850000000  0.5309100000000 1.0
C      1  0.5181520000000  0.5486690000000  0.4411950000000 1.0
C      1  0.4831870000000  0.4556390000000  0.5611930000000 1.0
END
