TITL C-22177-38-9 -397.644125116945 125000 -1144.13531765072 0 0 164 (Ci) n - 1
REM
REM in /rds/project/t2_vol4/rds-t2-cs072/BORA/CARBON/from-Arr/AIRSS/Generating-Clusters/GAP-ML-2020/Higher-Symm/SD-CG/HFTN-CG
REM
REM
REM
REM
REM
REM ./C.cell (b20cbc046b6831c77cfcea5457e17084)
REM AIRSS Version 0.9.1 bugfix July 2018 build 013d7b7c2542+ Fri, 06 Jul 2018 19:26:36 +0100
REM compiler GCC version 9.3.0
REM options -cpp -mtune=generic -march=x86-64 -g -O0
REM seed -565811874 1948579737 -997220817 461237734 -278501889 1144493839 -1413640211 622633321 -1775330084 842408024 1292890342 -713210060 453035758 1979333015 2060575513 1505280906 -542748372 -1692708287 -1690306043 1685141719 -998041510 -877386939 1256742557 2033415607 690299608 269166530 626592885 1165737248 1295493474 1826635052 1982074589 -868048573 -1301407784
REM
CELL 1.54180   50.00000   50.00000   50.00000   90.00000   90.00000   90.00000
LATT -1
SFAC C  
C      1  0.4784420000000  0.6152600000000  0.5032490000000 1.0
C      1  0.5215580000000  0.3847400000000  0.4967510000000 1.0
C      1  0.5704300000000  0.5087100000000  0.5723860000000 1.0
C      1  0.4295700000000  0.4912900000000  0.4276140000000 1.0
C      1  0.5480050000000  0.5761300000000  0.4548370000000 1.0
C      1  0.4519950000000  0.4238700000000  0.5451630000000 1.0
C      1  0.5256380000000  0.5504630000000  0.5880320000000 1.0
C      1  0.4743620000000  0.4495370000000  0.4119680000000 1.0
C      1  0.5396250000000  0.5869750000000  0.4820040000000 1.0
C      1  0.4603750000000  0.4130250000000  0.5179960000000 1.0
C      1  0.5803080000000  0.4819720000000  0.4252160000000 1.0
C      1  0.4196920000000  0.5180280000000  0.5747840000000 1.0
C      1  0.5359940000000  0.5636050000000  0.4988960000000 1.0
C      1  0.4640060000000  0.4363950000000  0.5011040000000 1.0
C      1  0.4809900000000  0.4159370000000  0.4437120000000 1.0
C      1  0.5190100000000  0.5840630000000  0.5562880000000 1.0
C      1  0.4502190000000  0.5560790000000  0.5736530000000 1.0
C      1  0.5497810000000  0.4439210000000  0.4263470000000 1.0
C      1  0.4321380000000  0.5672760000000  0.5526960000000 1.0
C      1  0.5678620000000  0.4327240000000  0.4473040000000 1.0
C      1  0.5267810000000  0.5114920000000  0.4816530000000 1.0
C      1  0.4732190000000  0.4885080000000  0.5183470000000 1.0
C      1  0.4706800000000  0.4566710000000  0.5771510000000 1.0
C      1  0.5293200000000  0.5433290000000  0.4228490000000 1.0
C      1  0.3977820000000  0.5453640000000  0.5184560000000 1.0
C      1  0.6022180000000  0.4546360000000  0.4815440000000 1.0
C      1  0.5548390000000  0.4724150000000  0.4217010000000 1.0
C      1  0.4451610000000  0.5275850000000  0.5782990000000 1.0
C      1  0.4145720000000  0.4508620000000  0.4975330000000 1.0
C      1  0.5854280000000  0.5491380000000  0.5024670000000 1.0
C      1  0.5205360000000  0.4353670000000  0.5631870000000 1.0
C      1  0.4794640000000  0.5646330000000  0.4368130000000 1.0
C      1  0.5217790000000  0.5247890000000  0.5986950000000 1.0
C      1  0.4782210000000  0.4752110000000  0.4013050000000 1.0
C      1  0.5144580000000  0.4646290000000  0.5462740000000 1.0
C      1  0.4855420000000  0.5353710000000  0.4537260000000 1.0
C      1  0.4995900000000  0.4861940000000  0.3868710000000 1.0
C      1  0.5004100000000  0.5138060000000  0.6131290000000 1.0
C      1  0.5433650000000  0.4024560000000  0.5356460000000 1.0
C      1  0.4566350000000  0.5975440000000  0.4643540000000 1.0
C      1  0.5909310000000  0.5405580000000  0.5484460000000 1.0
C      1  0.4090690000000  0.4594420000000  0.4515540000000 1.0
C      1  0.5047510000000  0.4937110000000  0.4869620000000 1.0
C      1  0.4952490000000  0.5062890000000  0.5130380000000 1.0
C      1  0.3900080000000  0.4937400000000  0.5112590000000 1.0
C      1  0.6099920000000  0.5062600000000  0.4887410000000 1.0
C      1  0.5572790000000  0.5426610000000  0.4942210000000 1.0
C      1  0.4427210000000  0.4573390000000  0.5057790000000 1.0
C      1  0.3975000000000  0.5311680000000  0.4741290000000 1.0
C      1  0.6025000000000  0.4688320000000  0.5258710000000 1.0
C      1  0.5234210000000  0.4317750000000  0.4301190000000 1.0
C      1  0.4765790000000  0.5682250000000  0.5698810000000 1.0
C      1  0.4841190000000  0.4921310000000  0.6072140000000 1.0
C      1  0.5158810000000  0.5078690000000  0.3927860000000 1.0
C      1  0.4125760000000  0.4545220000000  0.5408810000000 1.0
C      1  0.5874240000000  0.5454780000000  0.4591190000000 1.0
C      1  0.3984250000000  0.4653280000000  0.5163410000000 1.0
C      1  0.6015750000000  0.5346720000000  0.4836590000000 1.0
C      1  0.4829120000000  0.4449270000000  0.4787210000000 1.0
C      1  0.5170880000000  0.5550730000000  0.5212790000000 1.0
C      1  0.5366750000000  0.4943610000000  0.4339220000000 1.0
C      1  0.4633250000000  0.5056390000000  0.5660780000000 1.0
C      1  0.5613450000000  0.5308030000000  0.4638760000000 1.0
C      1  0.4386550000000  0.4691970000000  0.5361240000000 1.0
C      1  0.4596170000000  0.4541110000000  0.5503250000000 1.0
C      1  0.5403830000000  0.5458890000000  0.4496750000000 1.0
C      1  0.4881070000000  0.4407950000000  0.5185490000000 1.0
C      1  0.5118930000000  0.5592050000000  0.4814510000000 1.0
C      1  0.4683040000000  0.4833810000000  0.5859500000000 1.0
C      1  0.5316960000000  0.5166190000000  0.4140500000000 1.0
C      1  0.5513310000000  0.5563600000000  0.5761140000000 1.0
C      1  0.4486690000000  0.4436400000000  0.4238860000000 1.0
C      1  0.5856320000000  0.4711040000000  0.5489330000000 1.0
C      1  0.4143680000000  0.5288960000000  0.4510670000000 1.0
C      1  0.4362400000000  0.5784500000000  0.4590860000000 1.0
C      1  0.5637600000000  0.4215500000000  0.5409140000000 1.0
C      1  0.5673310000000  0.4619580000000  0.5695480000000 1.0
C      1  0.4326690000000  0.5380420000000  0.4304520000000 1.0
C      1  0.4276390000000  0.4631790000000  0.4293240000000 1.0
C      1  0.5723610000000  0.5368210000000  0.5706760000000 1.0
C      1  0.6091980000000  0.4970020000000  0.5165510000000 1.0
C      1  0.3908020000000  0.5029980000000  0.4834490000000 1.0
C      1  0.5531680000000  0.4381100000000  0.5636240000000 1.0
C      1  0.4468320000000  0.5618900000000  0.4363760000000 1.0
C      1  0.4903490000000  0.4890060000000  0.4567100000000 1.0
C      1  0.5096510000000  0.5109940000000  0.5432900000000 1.0
C      1  0.5600380000000  0.4977980000000  0.5173920000000 1.0
C      1  0.4399620000000  0.5022020000000  0.4826080000000 1.0
C      1  0.4377830000000  0.5881810000000  0.5059290000000 1.0
C      1  0.5622170000000  0.4118190000000  0.4940710000000 1.0
C      1  0.5991460000000  0.5149790000000  0.5369230000000 1.0
C      1  0.4008540000000  0.4850210000000  0.4630770000000 1.0
C      1  0.4842550000000  0.4640970000000  0.5340260000000 1.0
C      1  0.5157450000000  0.5359030000000  0.4659740000000 1.0
C      1  0.5983100000000  0.4460130000000  0.5084330000000 1.0
C      1  0.4016900000000  0.5539870000000  0.4915670000000 1.0
C      1  0.5579150000000  0.4864070000000  0.5840710000000 1.0
C      1  0.4420850000000  0.5135930000000  0.4159290000000 1.0
C      1  0.4238770000000  0.4306460000000  0.5484490000000 1.0
C      1  0.5761230000000  0.5693540000000  0.4515510000000 1.0
C      1  0.5784110000000  0.4255590000000  0.5148660000000 1.0
C      1  0.4215890000000  0.5744410000000  0.4851340000000 1.0
C      1  0.4897800000000  0.4339300000000  0.5760850000000 1.0
C      1  0.5102200000000  0.5660700000000  0.4239150000000 1.0
C      1  0.4737630000000  0.5401880000000  0.5343110000000 1.0
C      1  0.5262370000000  0.4598120000000  0.4656890000000 1.0
C      1  0.5104540000000  0.4846590000000  0.6065810000000 1.0
C      1  0.4895460000000  0.5153410000000  0.3934190000000 1.0
C      1  0.5504670000000  0.4746680000000  0.5056730000000 1.0
C      1  0.4495330000000  0.5253320000000  0.4943270000000 1.0
C      1  0.4507750000000  0.5243420000000  0.5231700000000 1.0
C      1  0.5492250000000  0.4756580000000  0.4768300000000 1.0
C      1  0.4822460000000  0.5107040000000  0.4400550000000 1.0
C      1  0.5177540000000  0.4892960000000  0.5599450000000 1.0
C      1  0.4088620000000  0.5531090000000  0.5445120000000 1.0
C      1  0.5911380000000  0.4468910000000  0.4554880000000 1.0
C      1  0.4931310000000  0.3982920000000  0.5443120000000 1.0
C      1  0.5068690000000  0.6017070000000  0.4556880000000 1.0
C      1  0.4694160000000  0.5386960000000  0.4792130000000 1.0
C      1  0.5305840000000  0.4613040000000  0.5207870000000 1.0
C      1  0.5252600000000  0.4272170000000  0.4596700000000 1.0
C      1  0.4747400000000  0.5727830000000  0.5403300000000 1.0
C      1  0.5049510000000  0.5688600000000  0.5762730000000 1.0
C      1  0.4950490000000  0.4311400000000  0.4237270000000 1.0
C      1  0.4805030000000  0.5911410000000  0.4510730000000 1.0
C      1  0.5194970000000  0.4088590000000  0.5489270000000 1.0
C      1  0.5295240000000  0.5301340000000  0.5321390000000 1.0
C      1  0.4704760000000  0.4698660000000  0.4678610000000 1.0
C      1  0.5958730000000  0.4743160000000  0.4457050000000 1.0
C      1  0.4041270000000  0.5256840000000  0.5542950000000 1.0
C      1  0.4517810000000  0.4980390000000  0.5371810000000 1.0
C      1  0.5482190000000  0.5019610000000  0.4628190000000 1.0
C      1  0.4965360000000  0.4175510000000  0.4692450000000 1.0
C      1  0.5034640000000  0.5824490000000  0.5307550000000 1.0
C      1  0.5183620000000  0.6054030000000  0.4826510000000 1.0
C      1  0.4816380000000  0.3945970000000  0.5173490000000 1.0
C      1  0.4522160000000  0.4221320000000  0.4429590000000 1.0
C      1  0.5477840000000  0.5778680000000  0.5570410000000 1.0
C      1  0.5027350000000  0.6049330000000  0.5072590000000 1.0
C      1  0.4972650000000  0.3950670000000  0.4927410000000 1.0
C      1  0.5441420000000  0.5197980000000  0.5087960000000 1.0
C      1  0.4558580000000  0.4802020000000  0.4912040000000 1.0
C      1  0.4341230000000  0.4215380000000  0.4634410000000 1.0
C      1  0.5658770000000  0.5784620000000  0.5365590000000 1.0
C      1  0.5534140000000  0.4184130000000  0.4670670000000 1.0
C      1  0.4465860000000  0.5815870000000  0.5329330000000 1.0
C      1  0.5856040000000  0.5609990000000  0.5294570000000 1.0
C      1  0.4143960000000  0.4390010000000  0.4705430000000 1.0
C      1  0.5298750000000  0.4946310000000  0.5866440000000 1.0
C      1  0.4701250000000  0.5053690000000  0.4133560000000 1.0
C      1  0.4238670000000  0.5012530000000  0.4551800000000 1.0
C      1  0.5761330000000  0.4987470000000  0.5448200000000 1.0
C      1  0.4859950000000  0.5221400000000  0.5557530000000 1.0
C      1  0.5140050000000  0.4778600000000  0.4442470000000 1.0
C      1  0.5242740000000  0.5863330000000  0.4384190000000 1.0
C      1  0.4757260000000  0.4136670000000  0.5615810000000 1.0
C      1  0.3931500000000  0.5177310000000  0.5276020000000 1.0
C      1  0.6068500000000  0.4822690000000  0.4723980000000 1.0
C      1  0.5073860000000  0.4613990000000  0.4873740000000 1.0
C      1  0.4926140000000  0.5386010000000  0.5126260000000 1.0
C      1  0.4560090000000  0.6055060000000  0.4921020000000 1.0
C      1  0.5439910000000  0.3944940000000  0.5078980000000 1.0
C      1  0.5150260000000  0.4429670000000  0.5078840000000 1.0
C      1  0.4849740000000  0.5570330000000  0.4921160000000 1.0
END
