TITL C-22182-7976-3 -0.136828408286798 125000 -1376.95254363104 0 0 194 (C1) n - 1
REM
REM in /rds/project/t2_vol4/rds-t2-cs072/BORA/CARBON/from-Arr/AIRSS/Generating-Clusters/GAP-ML-2020/Higher-Symm/SD-CG/HFTN-CG/C160-200
REM
REM
REM
REM
REM
REM ./C.cell (6b4489405718ea1b717e0baf1da4c2d9)
REM AIRSS Version 0.9.1 bugfix July 2018 build 013d7b7c2542+ Fri, 06 Jul 2018 19:26:36 +0100
REM compiler GCC version 9.3.0
REM options -cpp -mtune=generic -march=x86-64 -g -O0
REM seed 1859029146 -461773994 -152439833 165037220 1142943084 -1974487758 1454635512 365341989 393232956 1682087636 418655424 220231456 1313118847 1294165673 900899757 916134261 -913547173 1363929710 1697079679 -107837505 -249763680 -332886775 1591389517 1994635271 1251095828 671794974 -1655563103 228333484 213970278 1190970616 949197135 -1691697854 -398033987
REM
CELL 1.54180   50.00000   50.00000   50.00000   90.00000   90.00000   90.00000
LATT -1
SFAC C  
C      1  0.6179530000000  0.5160160000000  0.5266610000000 1.0
C      1  0.4820810000000  0.4511600000000  0.4852040000000 1.0
C      1  0.4632430000000  0.5932680000000  0.4910740000000 1.0
C      1  0.5732140000000  0.4281670000000  0.4533710000000 1.0
C      1  0.5909120000000  0.4782030000000  0.5620490000000 1.0
C      1  0.5969020000000  0.4445180000000  0.5233650000000 1.0
C      1  0.4573110000000  0.4645450000000  0.4840800000000 1.0
C      1  0.3978650000000  0.5229190000000  0.4549030000000 1.0
C      1  0.6240660000000  0.5278250000000  0.4994680000000 1.0
C      1  0.4678730000000  0.5148340000000  0.6100580000000 1.0
C      1  0.4885800000000  0.5349470000000  0.6165980000000 1.0
C      1  0.4729410000000  0.5869940000000  0.5634810000000 1.0
C      1  0.4721200000000  0.4923530000000  0.3883080000000 1.0
C      1  0.5746580000000  0.4715540000000  0.4902150000000 1.0
C      1  0.5304020000000  0.5933720000000  0.4918540000000 1.0
C      1  0.5554530000000  0.5952390000000  0.4745330000000 1.0
C      1  0.4946560000000  0.4002820000000  0.4696550000000 1.0
C      1  0.5343750000000  0.5968930000000  0.5225490000000 1.0
C      1  0.5366930000000  0.4247610000000  0.5909970000000 1.0
C      1  0.4506890000000  0.4059760000000  0.5641300000000 1.0
C      1  0.4594530000000  0.4900310000000  0.4972610000000 1.0
C      1  0.5665410000000  0.5175720000000  0.4699910000000 1.0
C      1  0.3820360000000  0.4846670000000  0.4778040000000 1.0
C      1  0.5564220000000  0.4660060000000  0.4203390000000 1.0
C      1  0.5545300000000  0.4693030000000  0.5942650000000 1.0
C      1  0.5259020000000  0.4520030000000  0.4602770000000 1.0
C      1  0.4850450000000  0.4889060000000  0.5774430000000 1.0
C      1  0.4478940000000  0.3967990000000  0.5374620000000 1.0
C      1  0.4866870000000  0.4921230000000  0.6069470000000 1.0
C      1  0.6292280000000  0.5117540000000  0.4766520000000 1.0
C      1  0.5818360000000  0.5182770000000  0.4950790000000 1.0
C      1  0.4396200000000  0.5099050000000  0.4882370000000 1.0
C      1  0.5785290000000  0.4239300000000  0.4798880000000 1.0
C      1  0.5068580000000  0.5135110000000  0.6142120000000 1.0
C      1  0.4709420000000  0.4470590000000  0.5500090000000 1.0
C      1  0.5319430000000  0.5241970000000  0.5471430000000 1.0
C      1  0.5723400000000  0.5450960000000  0.4568490000000 1.0
C      1  0.4103150000000  0.5182960000000  0.5022760000000 1.0
C      1  0.5088860000000  0.4014620000000  0.4943470000000 1.0
C      1  0.5577310000000  0.4358310000000  0.4326740000000 1.0
C      1  0.4513080000000  0.5663460000000  0.4240440000000 1.0
C      1  0.5957210000000  0.5631190000000  0.5197870000000 1.0
C      1  0.4995410000000  0.4101370000000  0.5662960000000 1.0
C      1  0.4927030000000  0.4831640000000  0.4518620000000 1.0
C      1  0.5606920000000  0.5232680000000  0.4011380000000 1.0
C      1  0.4863900000000  0.4991090000000  0.4781650000000 1.0
C      1  0.5754350000000  0.4326630000000  0.5658470000000 1.0
C      1  0.4807630000000  0.4621820000000  0.6110350000000 1.0
C      1  0.5192210000000  0.5780570000000  0.5672880000000 1.0
C      1  0.5337740000000  0.4512560000000  0.6021810000000 1.0
C      1  0.4860360000000  0.5996820000000  0.5413010000000 1.0
C      1  0.4852690000000  0.5148790000000  0.5654890000000 1.0
C      1  0.4637040000000  0.4711710000000  0.5709080000000 1.0
C      1  0.5285010000000  0.5169560000000  0.5942720000000 1.0
C      1  0.5009090000000  0.4603550000000  0.5043160000000 1.0
C      1  0.5287690000000  0.4480450000000  0.4913810000000 1.0
C      1  0.5516040000000  0.4974690000000  0.5947230000000 1.0
C      1  0.4286710000000  0.5564440000000  0.5611440000000 1.0
C      1  0.5023160000000  0.5936450000000  0.4313560000000 1.0
C      1  0.4082990000000  0.4982790000000  0.4431140000000 1.0
C      1  0.6027460000000  0.4689220000000  0.5375120000000 1.0
C      1  0.5790490000000  0.5859770000000  0.4845880000000 1.0
C      1  0.5357760000000  0.4955290000000  0.5048590000000 1.0
C      1  0.5138250000000  0.4009430000000  0.5436820000000 1.0
C      1  0.5761670000000  0.4591070000000  0.5771150000000 1.0
C      1  0.4450440000000  0.5811730000000  0.5574360000000 1.0
C      1  0.4702270000000  0.5619370000000  0.4946120000000 1.0
C      1  0.4910920000000  0.5270370000000  0.4678520000000 1.0
C      1  0.5236950000000  0.5607290000000  0.4812530000000 1.0
C      1  0.3970210000000  0.4733130000000  0.4563530000000 1.0
C      1  0.4373530000000  0.4450260000000  0.4432020000000 1.0
C      1  0.4178430000000  0.4989670000000  0.4153790000000 1.0
C      1  0.5415090000000  0.4767610000000  0.4476770000000 1.0
C      1  0.5808630000000  0.5856950000000  0.5129250000000 1.0
C      1  0.4324250000000  0.5883340000000  0.4864330000000 1.0
C      1  0.4663180000000  0.4865530000000  0.5277510000000 1.0
C      1  0.5481120000000  0.4680100000000  0.5057690000000 1.0
C      1  0.4523130000000  0.4025380000000  0.4925030000000 1.0
C      1  0.3925160000000  0.4625640000000  0.5627060000000 1.0
C      1  0.4657770000000  0.6030940000000  0.5208940000000 1.0
C      1  0.5410190000000  0.4753740000000  0.3957490000000 1.0
C      1  0.4782490000000  0.5512730000000  0.4229420000000 1.0
C      1  0.5282580000000  0.4298720000000  0.4372650000000 1.0
C      1  0.4092550000000  0.5647100000000  0.5184630000000 1.0
C      1  0.6120820000000  0.4927740000000  0.4685300000000 1.0
C      1  0.5594810000000  0.4108470000000  0.4987080000000 1.0
C      1  0.4266730000000  0.4145300000000  0.4993440000000 1.0
C      1  0.4551950000000  0.5113810000000  0.4385690000000 1.0
C      1  0.4642220000000  0.5300140000000  0.5836300000000 1.0
C      1  0.5142260000000  0.5221500000000  0.5691830000000 1.0
C      1  0.4385740000000  0.5203100000000  0.4143350000000 1.0
C      1  0.4960960000000  0.4543960000000  0.4591240000000 1.0
C      1  0.4777970000000  0.5551160000000  0.5231470000000 1.0
C      1  0.5994540000000  0.5444210000000  0.4966920000000 1.0
C      1  0.5071390000000  0.4110320000000  0.4475720000000 1.0
C      1  0.5287620000000  0.5444950000000  0.5265040000000 1.0
C      1  0.5954380000000  0.4914810000000  0.4959080000000 1.0
C      1  0.5058510000000  0.5649340000000  0.4268030000000 1.0
C      1  0.4443900000000  0.4815890000000  0.5479320000000 1.0
C      1  0.5835420000000  0.4258310000000  0.5390910000000 1.0
C      1  0.4544550000000  0.5919990000000  0.4310560000000 1.0
C      1  0.4301490000000  0.5473240000000  0.4256220000000 1.0
C      1  0.4559470000000  0.4584460000000  0.5959450000000 1.0
C      1  0.4650220000000  0.4052390000000  0.4678270000000 1.0
C      1  0.5899820000000  0.4454700000000  0.4950560000000 1.0
C      1  0.4178910000000  0.4298860000000  0.5452900000000 1.0
C      1  0.5110860000000  0.6072430000000  0.4733310000000 1.0
C      1  0.4901640000000  0.4634090000000  0.5328780000000 1.0
C      1  0.4091650000000  0.4593070000000  0.5823330000000 1.0
C      1  0.4248670000000  0.4089090000000  0.5269770000000 1.0
C      1  0.5480390000000  0.5890050000000  0.4481930000000 1.0
C      1  0.4275600000000  0.5079350000000  0.5526120000000 1.0
C      1  0.5527050000000  0.5589520000000  0.4391560000000 1.0
C      1  0.5882570000000  0.5073740000000  0.5649430000000 1.0
C      1  0.5492640000000  0.5486970000000  0.4107160000000 1.0
C      1  0.5251600000000  0.5523550000000  0.4506910000000 1.0
C      1  0.5413530000000  0.4615050000000  0.5336110000000 1.0
C      1  0.4684090000000  0.4839130000000  0.4359750000000 1.0
C      1  0.4105220000000  0.4363720000000  0.4884490000000 1.0
C      1  0.6109820000000  0.4892940000000  0.5204830000000 1.0
C      1  0.5404610000000  0.5443000000000  0.5010070000000 1.0
C      1  0.5226820000000  0.6025000000000  0.4478260000000 1.0
C      1  0.4770520000000  0.6013340000000  0.4430430000000 1.0
C      1  0.4437220000000  0.4531970000000  0.5385870000000 1.0
C      1  0.4101770000000  0.5206910000000  0.5334690000000 1.0
C      1  0.4757320000000  0.5122060000000  0.5366560000000 1.0
C      1  0.4097630000000  0.5493000000000  0.5414710000000 1.0
C      1  0.4483980000000  0.5384430000000  0.4974860000000 1.0
C      1  0.3762790000000  0.4688470000000  0.4987380000000 1.0
C      1  0.4969510000000  0.3966350000000  0.5194140000000 1.0
C      1  0.4314620000000  0.4445540000000  0.5911580000000 1.0
C      1  0.5241890000000  0.5001800000000  0.5349080000000 1.0
C      1  0.4685540000000  0.4691750000000  0.4071460000000 1.0
C      1  0.5175760000000  0.5126280000000  0.3790090000000 1.0
C      1  0.5826730000000  0.4840730000000  0.4224040000000 1.0
C      1  0.5883430000000  0.5533090000000  0.5448160000000 1.0
C      1  0.5225160000000  0.5541390000000  0.4037660000000 1.0
C      1  0.5043070000000  0.4471030000000  0.6045630000000 1.0
C      1  0.4797970000000  0.5369170000000  0.3972980000000 1.0
C      1  0.5667960000000  0.4857330000000  0.4633960000000 1.0
C      1  0.5181830000000  0.4714660000000  0.5446390000000 1.0
C      1  0.4962890000000  0.5495200000000  0.4870200000000 1.0
C      1  0.3933730000000  0.4505320000000  0.5095320000000 1.0
C      1  0.4581560000000  0.4235500000000  0.4469270000000 1.0
C      1  0.3893850000000  0.5123760000000  0.4812180000000 1.0
C      1  0.4121800000000  0.4487860000000  0.4612030000000 1.0
C      1  0.4586290000000  0.5344590000000  0.5257350000000 1.0
C      1  0.4136300000000  0.5476870000000  0.4490530000000 1.0
C      1  0.5814390000000  0.5086540000000  0.4119140000000 1.0
C      1  0.5431560000000  0.5035350000000  0.3883550000000 1.0
C      1  0.5146050000000  0.5947500000000  0.5433900000000 1.0
C      1  0.5066390000000  0.5367100000000  0.3882750000000 1.0
C      1  0.5455970000000  0.5645960000000  0.5734010000000 1.0
C      1  0.4821270000000  0.6060360000000  0.4710420000000 1.0
C      1  0.4602120000000  0.5176350000000  0.3933370000000 1.0
C      1  0.4226940000000  0.4746130000000  0.4056500000000 1.0
C      1  0.4177600000000  0.5480490000000  0.4967530000000 1.0
C      1  0.5083900000000  0.4217490000000  0.5900610000000 1.0
C      1  0.4811250000000  0.5531770000000  0.5954750000000 1.0
C      1  0.4477490000000  0.4704970000000  0.4567140000000 1.0
C      1  0.5324680000000  0.4178740000000  0.4937160000000 1.0
C      1  0.5658170000000  0.5705420000000  0.5537980000000 1.0
C      1  0.4224190000000  0.5888720000000  0.5132770000000 1.0
C      1  0.5526900000000  0.4164980000000  0.5704350000000 1.0
C      1  0.4738170000000  0.5320690000000  0.4453620000000 1.0
C      1  0.5050730000000  0.4357310000000  0.4183730000000 1.0
C      1  0.4378910000000  0.5306480000000  0.5698680000000 1.0
C      1  0.4675560000000  0.3956130000000  0.5169240000000 1.0
C      1  0.4997380000000  0.5111740000000  0.5212530000000 1.0
C      1  0.5881890000000  0.5606420000000  0.4744880000000 1.0
C      1  0.5603910000000  0.5894130000000  0.5319830000000 1.0
C      1  0.5156390000000  0.5240650000000  0.4527330000000 1.0
C      1  0.5060060000000  0.4913850000000  0.4982170000000 1.0
C      1  0.4943630000000  0.4532140000000  0.4005200000000 1.0
C      1  0.4362390000000  0.4997050000000  0.4591470000000 1.0
C      1  0.4412620000000  0.5958740000000  0.5331700000000 1.0
C      1  0.5691750000000  0.5170520000000  0.5840320000000 1.0
C      1  0.5992170000000  0.5262180000000  0.5466640000000 1.0
C      1  0.4291540000000  0.4230410000000  0.5715740000000 1.0
C      1  0.5925150000000  0.4845050000000  0.4491520000000 1.0
C      1  0.5137340000000  0.4685440000000  0.3874440000000 1.0
C      1  0.4188060000000  0.5646940000000  0.4728110000000 1.0
C      1  0.4858630000000  0.4317990000000  0.4403800000000 1.0
C      1  0.4927150000000  0.5736490000000  0.5794570000000 1.0
C      1  0.4411180000000  0.4564660000000  0.4132720000000 1.0
C      1  0.4742600000000  0.4203090000000  0.5638350000000 1.0
C      1  0.5424450000000  0.4046290000000  0.5461350000000 1.0
C      1  0.5505730000000  0.5394820000000  0.5875810000000 1.0
C      1  0.5185820000000  0.4973260000000  0.4435140000000 1.0
C      1  0.5633630000000  0.4089540000000  0.5265900000000 1.0
C      1  0.5022990000000  0.5403270000000  0.5164660000000 1.0
C      1  0.4989900000000  0.4913270000000  0.3786000000000 1.0
C      1  0.5517820000000  0.5188650000000  0.4960560000000 1.0
C      1  0.3964060000000  0.4477020000000  0.5388270000000 1.0
END
