TITL C-22219-5960-11 195.538351636611 125000 -1023.74643873963 0 0 148 (D2d) n - 1
REM
REM in /rds/project/t2_vol4/rds-t2-cs072/BORA/CARBON/from-Arr/AIRSS/Generating-Clusters/GAP-ML-2020/Higher-Symm/SD-CG/HFTN-CG
REM
REM
REM
REM
REM
REM ./C.cell (b20cbc046b6831c77cfcea5457e17084)
REM AIRSS Version 0.9.1 bugfix July 2018 build 013d7b7c2542+ Fri, 06 Jul 2018 19:26:36 +0100
REM compiler GCC version 9.3.0
REM options -cpp -mtune=generic -march=x86-64 -g -O0
REM seed -2075861002 -1448976025 -1714115778 1230009910 -502977027 -983047657 -5104303 -1580324269 -1230673196 -1816630207 -1857422491 -1362648847 618189624 -1534139982 1976227680 -841603429 -1020151989 1105908852 -1518979933 -1064430399 217760750 -940561669 1736060530 1602042145 -1075773842 -1688903857 937311563 371442714 1321537322 -699074409 -828693845 -734526951 2065734199
REM
CELL 1.54180   50.00000   50.00000   50.00000   90.00000   90.00000   90.00000
LATT -1
SFAC C  
C      1  0.4409980000000  0.5238320000000  0.4754000000000 1.0
C      1  0.5590030000000  0.4761690000000  0.4754010000000 1.0
C      1  0.5589970000000  0.5238450000000  0.5246010000000 1.0
C      1  0.4410030000000  0.4761540000000  0.5245980000000 1.0
C      1  0.5238460000000  0.4410030000000  0.4754000000000 1.0
C      1  0.4761550000000  0.5589970000000  0.4754010000000 1.0
C      1  0.5238310000000  0.5590020000000  0.5246010000000 1.0
C      1  0.4761680000000  0.4409970000000  0.5245980000000 1.0
C      1  0.4981940000000  0.4162150000000  0.4473300000000 1.0
C      1  0.5018080000000  0.5837870000000  0.4473330000000 1.0
C      1  0.5018260000000  0.4162140000000  0.5526670000000 1.0
C      1  0.4981730000000  0.5837840000000  0.5526700000000 1.0
C      1  0.4162160000000  0.4981740000000  0.4473300000000 1.0
C      1  0.5837860000000  0.5018270000000  0.4473330000000 1.0
C      1  0.4162130000000  0.5018060000000  0.5526670000000 1.0
C      1  0.5837850000000  0.4981920000000  0.5526700000000 1.0
C      1  0.4881180000000  0.4512450000000  0.4233610000000 1.0
C      1  0.5118840000000  0.5487580000000  0.4233630000000 1.0
C      1  0.5118930000000  0.4512450000000  0.5766380000000 1.0
C      1  0.4881040000000  0.5487520000000  0.5766390000000 1.0
C      1  0.4512480000000  0.4881070000000  0.4233610000000 1.0
C      1  0.5487550000000  0.5118960000000  0.4233630000000 1.0
C      1  0.4512420000000  0.5118810000000  0.5766380000000 1.0
C      1  0.5487550000000  0.4881160000000  0.5766390000000 1.0
C      1  0.3964360000000  0.4553830000000  0.4919300000000 1.0
C      1  0.6035640000000  0.5446170000000  0.4919350000000 1.0
C      1  0.6035740000000  0.4554070000000  0.5080690000000 1.0
C      1  0.3964250000000  0.5445920000000  0.5080670000000 1.0
C      1  0.4554080000000  0.3964260000000  0.4919300000000 1.0
C      1  0.5445930000000  0.6035750000000  0.4919350000000 1.0
C      1  0.4553830000000  0.6035640000000  0.5080690000000 1.0
C      1  0.5446170000000  0.3964360000000  0.5080670000000 1.0
C      1  0.5448640000000  0.4033560000000  0.5342690000000 1.0
C      1  0.4551350000000  0.5966420000000  0.5342710000000 1.0
C      1  0.4551590000000  0.4033470000000  0.4657280000000 1.0
C      1  0.5448420000000  0.5966540000000  0.4657330000000 1.0
C      1  0.4033460000000  0.5448410000000  0.5342690000000 1.0
C      1  0.5966530000000  0.4551580000000  0.5342710000000 1.0
C      1  0.4033580000000  0.4551370000000  0.4657280000000 1.0
C      1  0.5966440000000  0.5448650000000  0.4657330000000 1.0
C      1  0.4683260000000  0.4900160000000  0.5348590000000 1.0
C      1  0.5316730000000  0.5099830000000  0.5348600000000 1.0
C      1  0.5316760000000  0.4900250000000  0.4651410000000 1.0
C      1  0.4683250000000  0.5099770000000  0.4651400000000 1.0
C      1  0.4900240000000  0.4683240000000  0.5348590000000 1.0
C      1  0.5099750000000  0.5316750000000  0.5348600000000 1.0
C      1  0.4900170000000  0.5316740000000  0.4651410000000 1.0
C      1  0.5099840000000  0.4683270000000  0.4651400000000 1.0
C      1  0.4619470000000  0.4412550000000  0.4305750000000 1.0
C      1  0.5380560000000  0.5587470000000  0.4305780000000 1.0
C      1  0.5380670000000  0.4412620000000  0.5694230000000 1.0
C      1  0.4619300000000  0.5587360000000  0.5694240000000 1.0
C      1  0.4412640000000  0.4619330000000  0.4305750000000 1.0
C      1  0.5587380000000  0.5380700000000  0.4305780000000 1.0
C      1  0.4412530000000  0.5380530000000  0.5694230000000 1.0
C      1  0.5587450000000  0.4619440000000  0.5694240000000 1.0
C      1  0.5958380000000  0.5516340000000  0.5326790000000 1.0
C      1  0.4041610000000  0.4483650000000  0.5326740000000 1.0
C      1  0.4041500000000  0.5516120000000  0.4673230000000 1.0
C      1  0.5958510000000  0.4483890000000  0.4673240000000 1.0
C      1  0.5516110000000  0.5958500000000  0.5326790000000 1.0
C      1  0.4483880000000  0.4041490000000  0.5326740000000 1.0
C      1  0.5516350000000  0.4041620000000  0.4673230000000 1.0
C      1  0.4483660000000  0.5958390000000  0.4673240000000 1.0
C      1  0.4174680000000  0.4689040000000  0.4466060000000 1.0
C      1  0.5825340000000  0.5310970000000  0.4466100000000 1.0
C      1  0.5825400000000  0.4689220000000  0.5533930000000 1.0
C      1  0.4174580000000  0.5310760000000  0.5533920000000 1.0
C      1  0.4689240000000  0.4174600000000  0.4466060000000 1.0
C      1  0.5310780000000  0.5825420000000  0.4466100000000 1.0
C      1  0.4689030000000  0.5825320000000  0.5533930000000 1.0
C      1  0.5310960000000  0.4174660000000  0.5533910000000 1.0
C      1  0.4312250000000  0.4525310000000  0.5427920000000 1.0
C      1  0.5687730000000  0.5474680000000  0.5427960000000 1.0
C      1  0.5687860000000  0.4525480000000  0.4572060000000 1.0
C      1  0.4312150000000  0.5474530000000  0.4572050000000 1.0
C      1  0.4525470000000  0.4312140000000  0.5427920000000 1.0
C      1  0.5474520000000  0.5687850000000  0.5427960000000 1.0
C      1  0.4525320000000  0.5687750000000  0.4572060000000 1.0
C      1  0.5474690000000  0.4312270000000  0.4572050000000 1.0
C      1  0.4699410000000  0.4499230000000  0.4970610000000 1.0
C      1  0.5300590000000  0.5500770000000  0.4970640000000 1.0
C      1  0.5300710000000  0.4499300000000  0.5029370000000 1.0
C      1  0.4699290000000  0.5500700000000  0.5029380000000 1.0
C      1  0.4499300000000  0.4699290000000  0.4970610000000 1.0
C      1  0.5500700000000  0.5300710000000  0.4970640000000 1.0
C      1  0.4499230000000  0.5300590000000  0.5029370000000 1.0
C      1  0.5500770000000  0.4699410000000  0.5029380000000 1.0
C      1  0.4317580000000  0.5996240000000  0.4902510000000 1.0
C      1  0.5682420000000  0.4003760000000  0.4902490000000 1.0
C      1  0.5682190000000  0.5996400000000  0.5097530000000 1.0
C      1  0.4317810000000  0.4003600000000  0.5097470000000 1.0
C      1  0.5996400000000  0.4317810000000  0.4902510000000 1.0
C      1  0.4003600000000  0.5682190000000  0.4902500000000 1.0
C      1  0.5996240000000  0.5682420000000  0.5097530000000 1.0
C      1  0.4003760000000  0.4317580000000  0.5097470000000 1.0
C      1  0.4913470000000  0.4700930000000  0.4882220000000 1.0
C      1  0.5086540000000  0.5299080000000  0.4882230000000 1.0
C      1  0.5086600000000  0.4700940000000  0.5117770000000 1.0
C      1  0.4913390000000  0.5299050000000  0.5117780000000 1.0
C      1  0.4700950000000  0.4913400000000  0.4882220000000 1.0
C      1  0.5299060000000  0.5086610000000  0.4882230000000 1.0
C      1  0.4700920000000  0.5086530000000  0.5117770000000 1.0
C      1  0.5299070000000  0.4913460000000  0.5117780000000 1.0
C      1  0.4910390000000  0.5849080000000  0.4741980000000 1.0
C      1  0.5089620000000  0.4150930000000  0.4741960000000 1.0
C      1  0.5089410000000  0.5849090000000  0.5258050000000 1.0
C      1  0.4910580000000  0.4150900000000  0.5258010000000 1.0
C      1  0.5849100000000  0.4910590000000  0.4741980000000 1.0
C      1  0.4150910000000  0.5089420000000  0.4741960000000 1.0
C      1  0.5849070000000  0.5089610000000  0.5258050000000 1.0
C      1  0.4150920000000  0.4910380000000  0.5258020000000 1.0
C      1  0.4407690000000  0.5382680000000  0.4296130000000 1.0
C      1  0.5592330000000  0.4617350000000  0.4296140000000 1.0
C      1  0.5592220000000  0.5382790000000  0.5703880000000 1.0
C      1  0.4407760000000  0.4617180000000  0.5703850000000 1.0
C      1  0.5382820000000  0.4407790000000  0.4296130000000 1.0
C      1  0.4617210000000  0.5592240000000  0.4296140000000 1.0
C      1  0.5382650000000  0.5592310000000  0.5703880000000 1.0
C      1  0.4617320000000  0.4407670000000  0.5703850000000 1.0
C      1  0.5106320000000  0.5666390000000  0.5734840000000 1.0
C      1  0.4893660000000  0.4333590000000  0.5734810000000 1.0
C      1  0.4893520000000  0.5666390000000  0.4265190000000 1.0
C      1  0.5106500000000  0.4333640000000  0.4265170000000 1.0
C      1  0.5666360000000  0.5106480000000  0.5734840000000 1.0
C      1  0.4333610000000  0.4893500000000  0.5734810000000 1.0
C      1  0.5666410000000  0.4893680000000  0.4265190000000 1.0
C      1  0.4333610000000  0.5106340000000  0.4265170000000 1.0
C      1  0.5282870000000  0.3959790000000  0.4834860000000 1.0
C      1  0.4717140000000  0.6040210000000  0.4834890000000 1.0
C      1  0.4717380000000  0.3959720000000  0.5165100000000 1.0
C      1  0.5282610000000  0.6040270000000  0.5165140000000 1.0
C      1  0.3959730000000  0.5282620000000  0.4834870000000 1.0
C      1  0.6040280000000  0.4717390000000  0.4834890000000 1.0
C      1  0.3959790000000  0.4717130000000  0.5165100000000 1.0
C      1  0.6040210000000  0.5282860000000  0.5165140000000 1.0
C      1  0.4731930000000  0.5073040000000  0.5600290000000 1.0
C      1  0.5268050000000  0.4926940000000  0.5600300000000 1.0
C      1  0.5268060000000  0.5073120000000  0.4399710000000 1.0
C      1  0.4731960000000  0.4926900000000  0.4399700000000 1.0
C      1  0.5073100000000  0.4731940000000  0.5600290000000 1.0
C      1  0.4926880000000  0.5268040000000  0.5600300000000 1.0
C      1  0.5073060000000  0.5268070000000  0.4399710000000 1.0
C      1  0.4926960000000  0.4731950000000  0.4399700000000 1.0
C      1  0.4052720000000  0.4052490000000  0.5065490000000 1.0
C      1  0.5947280000000  0.5947500000000  0.5065560000000 1.0
C      1  0.5947510000000  0.4052720000000  0.4934470000000 1.0
C      1  0.4052490000000  0.5947280000000  0.4934480000000 1.0
END
