TITL C-22160-2009-4 -167.299601301755 125000 -1008.78034740759 0 0 144 (C3) n - 1
REM
REM in /rds/project/t2_vol4/rds-t2-cs072/BORA/CARBON/from-Arr/AIRSS/Generating-Clusters/GAP-ML-2020/Higher-Symm/SD-CG/HFTN-CG
REM
REM
REM
REM
REM
REM ./C.cell (b20cbc046b6831c77cfcea5457e17084)
REM AIRSS Version 0.9.1 bugfix July 2018 build 013d7b7c2542+ Fri, 06 Jul 2018 19:26:36 +0100
REM compiler GCC version 9.3.0
REM options -cpp -mtune=generic -march=x86-64 -g -O0
REM seed -1769476747 -1298360872 -1356410354 1925518938 1057888287 1770953505 -1679556955 1443588790 15477006 336430532 2009590028 -1486517905 -836213123 -1383604305 -2137961168 -1793456271 1389686334 -649636959 823599602 1665746202 -682954907 2042116835 -1890127555 516097972 -234103313 -1826758077 450382527 20907753 1653901853 858057900 -1748825150 1470057050 1122517667
REM
CELL 1.54180   50.00000   50.00000   50.00000   90.00000   90.00000   90.00000
LATT -1
SFAC C  
C      1  0.4696710000000  0.6004180000000  0.5621370000000 1.0
C      1  0.4696860000000  0.5036070000000  0.3819630000000 1.0
C      1  0.4696680000000  0.3959770000000  0.5558910000000 1.0
C      1  0.4372980000000  0.4613380000000  0.5731410000000 1.0
C      1  0.4373070000000  0.5826800000000  0.4969040000000 1.0
C      1  0.4373110000000  0.4559850000000  0.4299380000000 1.0
C      1  0.4780060000000  0.5749110000000  0.4695190000000 1.0
C      1  0.4780050000000  0.4361500000000  0.4503630000000 1.0
C      1  0.4779940000000  0.4889400000000  0.5801110000000 1.0
C      1  0.5422430000000  0.4749910000000  0.5734020000000 1.0
C      1  0.5422520000000  0.5760680000000  0.4849630000000 1.0
C      1  0.5422540000000  0.4489390000000  0.4416470000000 1.0
C      1  0.5283840000000  0.5579570000000  0.5555090000000 1.0
C      1  0.5283960000000  0.5190910000000  0.4220560000000 1.0
C      1  0.5283850000000  0.4229500000000  0.5224420000000 1.0
C      1  0.5702800000000  0.5736360000000  0.4749630000000 1.0
C      1  0.5702800000000  0.4414920000000  0.4487560000000 1.0
C      1  0.5702690000000  0.4848680000000  0.5763000000000 1.0
C      1  0.4684500000000  0.5312080000000  0.5891260000000 1.0
C      1  0.4684650000000  0.5615850000000  0.4284060000000 1.0
C      1  0.4684570000000  0.4072090000000  0.4824590000000 1.0
C      1  0.4827300000000  0.5889050000000  0.5118580000000 1.0
C      1  0.4827370000000  0.4658190000000  0.4170750000000 1.0
C      1  0.4827220000000  0.4452770000000  0.5710630000000 1.0
C      1  0.4759930000000  0.4016460000000  0.5299670000000 1.0
C      1  0.4759920000000  0.5751310000000  0.5701900000000 1.0
C      1  0.4760070000000  0.5232240000000  0.3998360000000 1.0
C      1  0.4255220000000  0.5587520000000  0.4873190000000 1.0
C      1  0.4255240000000  0.4596500000000  0.4554510000000 1.0
C      1  0.4255150000000  0.4816020000000  0.5572090000000 1.0
C      1  0.4619000000000  0.4847200000000  0.4028540000000 1.0
C      1  0.4618840000000  0.4235130000000  0.5618010000000 1.0
C      1  0.4618890000000  0.5917690000000  0.5353350000000 1.0
C      1  0.5909170000000  0.4989480000000  0.5378880000000 1.0
C      1  0.5909230000000  0.5333290000000  0.4819780000000 1.0
C      1  0.5909220000000  0.4677190000000  0.4801580000000 1.0
C      1  0.5237520000000  0.5549670000000  0.5256150000000 1.0
C      1  0.5237590000000  0.4946970000000  0.4395930000000 1.0
C      1  0.5237500000000  0.4503350000000  0.5347990000000 1.0
C      1  0.5536630000000  0.5560810000000  0.4329360000000 1.0
C      1  0.5536560000000  0.4138740000000  0.4849710000000 1.0
C      1  0.5536490000000  0.5300420000000  0.5821080000000 1.0
C      1  0.4748550000000  0.4552320000000  0.5238390000000 1.0
C      1  0.4748570000000  0.5430320000000  0.5268480000000 1.0
C      1  0.4748630000000  0.5017370000000  0.4493060000000 1.0
C      1  0.4364890000000  0.5520940000000  0.5572820000000 1.0
C      1  0.4365010000000  0.5235670000000  0.4262360000000 1.0
C      1  0.4364910000000  0.4243420000000  0.5164640000000 1.0
C      1  0.5197920000000  0.4723330000000  0.5934690000000 1.0
C      1  0.5198050000000  0.5947780000000  0.4772280000000 1.0
C      1  0.5198070000000  0.4328880000000  0.4293080000000 1.0
C      1  0.4863600000000  0.5524970000000  0.5833730000000 1.0
C      1  0.4863750000000  0.5459560000000  0.4128480000000 1.0
C      1  0.4863640000000  0.4015480000000  0.5037760000000 1.0
C      1  0.5885840000000  0.4419320000000  0.4929680000000 1.0
C      1  0.5885800000000  0.5229350000000  0.5538150000000 1.0
C      1  0.5885890000000  0.5351290000000  0.4532410000000 1.0
C      1  0.4511030000000  0.4956870000000  0.4694710000000 1.0
C      1  0.4510980000000  0.4757230000000  0.5189940000000 1.0
C      1  0.4511000000000  0.5285920000000  0.5115220000000 1.0
C      1  0.4337850000000  0.4790980000000  0.4141660000000 1.0
C      1  0.4337710000000  0.4361240000000  0.5610100000000 1.0
C      1  0.4337760000000  0.5847810000000  0.5248050000000 1.0
C      1  0.4835760000000  0.4628950000000  0.4935140000000 1.0
C      1  0.4835720000000  0.5129380000000  0.5353750000000 1.0
C      1  0.4835790000000  0.5241680000000  0.4711060000000 1.0
C      1  0.4054810000000  0.4879630000000  0.5109030000000 1.0
C      1  0.4054820000000  0.5154700000000  0.5049610000000 1.0
C      1  0.4054830000000  0.4965710000000  0.4841100000000 1.0
C      1  0.4628920000000  0.5616470000000  0.5473020000000 1.0
C      1  0.4629020000000  0.5101460000000  0.4229570000000 1.0
C      1  0.4628910000000  0.4282090000000  0.5297310000000 1.0
C      1  0.4372370000000  0.5440190000000  0.4661300000000 1.0
C      1  0.4372350000000  0.4486650000000  0.4788060000000 1.0
C      1  0.4372290000000  0.5073190000000  0.5550470000000 1.0
C      1  0.5460540000000  0.4767250000000  0.4322290000000 1.0
C      1  0.5460420000000  0.4529410000000  0.5540480000000 1.0
C      1  0.5460480000000  0.5703320000000  0.5137360000000 1.0
C      1  0.5696090000000  0.4849080000000  0.4914560000000 1.0
C      1  0.5696070000000  0.5001390000000  0.5173510000000 1.0
C      1  0.5696100000000  0.5149490000000  0.4912130000000 1.0
C      1  0.5044420000000  0.4507250000000  0.5902600000000 1.0
C      1  0.5044530000000  0.6028040000000  0.4975450000000 1.0
C      1  0.5044590000000  0.4464710000000  0.4121970000000 1.0
C      1  0.5108060000000  0.5010930000000  0.5995190000000 1.0
C      1  0.5108210000000  0.5856380000000  0.4492950000000 1.0
C      1  0.5108180000000  0.4132680000000  0.4511890000000 1.0
C      1  0.4972440000000  0.4897470000000  0.5545460000000 1.0
C      1  0.4972520000000  0.5523650000000  0.4816060000000 1.0
C      1  0.4972520000000  0.4578880000000  0.4638470000000 1.0
C      1  0.5549230000000  0.5516730000000  0.5634190000000 1.0
C      1  0.5549350000000  0.5290800000000  0.4235470000000 1.0
C      1  0.5549250000000  0.4192440000000  0.5130490000000 1.0
C      1  0.5856930000000  0.4749880000000  0.5542990000000 1.0
C      1  0.5857000000000  0.5595210000000  0.4945220000000 1.0
C      1  0.5857020000000  0.4654860000000  0.4512030000000 1.0
C      1  0.4431660000000  0.5481170000000  0.4386570000000 1.0
C      1  0.4431600000000  0.4228230000000  0.4889940000000 1.0
C      1  0.4431540000000  0.5290640000000  0.5723330000000 1.0
C      1  0.5015580000000  0.4833230000000  0.5041740000000 1.0
C      1  0.5015570000000  0.5119530000000  0.5123560000000 1.0
C      1  0.5015600000000  0.5047240000000  0.4834710000000 1.0
C      1  0.4213650000000  0.4699420000000  0.5298500000000 1.0
C      1  0.4213680000000  0.5408880000000  0.5110960000000 1.0
C      1  0.4213720000000  0.4891740000000  0.4590320000000 1.0
C      1  0.5277420000000  0.5006070000000  0.4713480000000 1.0
C      1  0.5277370000000  0.4748810000000  0.5138040000000 1.0
C      1  0.5277380000000  0.5245110000000  0.5148550000000 1.0
C      1  0.5766150000000  0.4362630000000  0.5196930000000 1.0
C      1  0.5766140000000  0.5489150000000  0.5453610000000 1.0
C      1  0.5766240000000  0.5148180000000  0.4349670000000 1.0
C      1  0.5258280000000  0.5610070000000  0.4419690000000 1.0
C      1  0.5258230000000  0.4192370000000  0.4761850000000 1.0
C      1  0.5258150000000  0.5197540000000  0.5818530000000 1.0
C      1  0.5126770000000  0.4115330000000  0.5015660000000 1.0
C      1  0.5126720000000  0.5455880000000  0.5758340000000 1.0
C      1  0.5126860000000  0.5428780000000  0.4226040000000 1.0
C      1  0.4954310000000  0.5593340000000  0.5125780000000 1.0
C      1  0.4954360000000  0.4812260000000  0.4423260000000 1.0
C      1  0.4954260000000  0.4594400000000  0.5450950000000 1.0
C      1  0.5726530000000  0.4512570000000  0.5436360000000 1.0
C      1  0.5726570000000  0.5621530000000  0.5204040000000 1.0
C      1  0.5726630000000  0.4865860000000  0.4359810000000 1.0
C      1  0.4828100000000  0.5818500000000  0.4431990000000 1.0
C      1  0.4828060000000  0.4098860000000  0.4575150000000 1.0
C      1  0.4827940000000  0.5082660000000  0.5992820000000 1.0
C      1  0.5270820000000  0.4514950000000  0.4689130000000 1.0
C      1  0.5270750000000  0.4973280000000  0.5575530000000 1.0
C      1  0.5270840000000  0.5511760000000  0.4735410000000 1.0
C      1  0.4549170000000  0.5236810000000  0.4814000000000 1.0
C      1  0.4549160000000  0.4720560000000  0.4887860000000 1.0
C      1  0.4549130000000  0.5042650000000  0.5298010000000 1.0
C      1  0.4212560000000  0.4402380000000  0.5341510000000 1.0
C      1  0.4212580000000  0.5594650000000  0.5346700000000 1.0
C      1  0.4212660000000  0.5003010000000  0.4311570000000 1.0
C      1  0.4641260000000  0.4465290000000  0.4284600000000 1.0
C      1  0.4641120000000  0.4647840000000  0.5820730000000 1.0
C      1  0.4641230000000  0.5886890000000  0.4894570000000 1.0
C      1  0.5752890000000  0.4264580000000  0.4730170000000 1.0
C      1  0.5752810000000  0.5133960000000  0.5771900000000 1.0
C      1  0.5752930000000  0.5601430000000  0.4498130000000 1.0
C      1  0.5397130000000  0.5244570000000  0.4852400000000 1.0
C      1  0.5397120000000  0.4749850000000  0.4862050000000 1.0
C      1  0.5397080000000  0.5005560000000  0.5285660000000 1.0
END
