TITL C-22169-3109-6 -0.470973520921842 125000 -967.721596938977 0 0 137 (C1) n - 1
REM
REM in /rds/project/t2_vol4/rds-t2-cs072/BORA/CARBON/from-Arr/AIRSS/Generating-Clusters/GAP-ML-2020/Higher-Symm/SD-CG/HFTN-CG
REM
REM
REM
REM
REM
REM ./C.cell (b20cbc046b6831c77cfcea5457e17084)
REM AIRSS Version 0.9.1 bugfix July 2018 build 013d7b7c2542+ Fri, 06 Jul 2018 19:26:36 +0100
REM compiler GCC version 9.3.0
REM options -cpp -mtune=generic -march=x86-64 -g -O0
REM seed -1861043231 1412195490 217208311 -1522727876 -465222884 -1290542221 56349685 892384322 -732792135 721816580 295472643 -245131029 1514227038 850355749 -1289740353 -1518120204 -2120043658 55138343 169163987 59660623 -2009928791 -25373014 2121012740 844443572 -627754271 -64060747 903248145 68548952 577446497 939348942 1857302296 1598936632 -910021336
REM
CELL 1.54180   50.00000   50.00000   50.00000   90.00000   90.00000   90.00000
LATT -1
SFAC C  
C      1  0.4815870000000  0.4088020000000  0.5007890000000 1.0
C      1  0.5591640000000  0.5672780000000  0.4868240000000 1.0
C      1  0.4841150000000  0.4914890000000  0.5294070000000 1.0
C      1  0.4207060000000  0.5096600000000  0.4152010000000 1.0
C      1  0.5301720000000  0.4284640000000  0.5135950000000 1.0
C      1  0.5396660000000  0.5818590000000  0.5279510000000 1.0
C      1  0.5373580000000  0.5651500000000  0.4380680000000 1.0
C      1  0.5380490000000  0.5057510000000  0.5446740000000 1.0
C      1  0.5140680000000  0.4303990000000  0.5670280000000 1.0
C      1  0.4299040000000  0.5218000000000  0.5495340000000 1.0
C      1  0.5824050000000  0.4597970000000  0.4867430000000 1.0
C      1  0.5109340000000  0.4372680000000  0.4363320000000 1.0
C      1  0.5085880000000  0.5953370000000  0.4603670000000 1.0
C      1  0.5630760000000  0.4432040000000  0.5464980000000 1.0
C      1  0.5082070000000  0.3987200000000  0.4997190000000 1.0
C      1  0.5732460000000  0.5543690000000  0.5097620000000 1.0
C      1  0.5378750000000  0.4967100000000  0.4993950000000 1.0
C      1  0.5272720000000  0.5289230000000  0.5443690000000 1.0
C      1  0.4487070000000  0.4640700000000  0.3998860000000 1.0
C      1  0.4891440000000  0.4840900000000  0.4799810000000 1.0
C      1  0.5870070000000  0.5287160000000  0.5109450000000 1.0
C      1  0.4391600000000  0.5553050000000  0.4382860000000 1.0
C      1  0.4680330000000  0.5864530000000  0.5280600000000 1.0
C      1  0.4363270000000  0.4414740000000  0.5127240000000 1.0
C      1  0.4994220000000  0.4902040000000  0.4094590000000 1.0
C      1  0.5369740000000  0.5813940000000  0.4990170000000 1.0
C      1  0.5887110000000  0.5144330000000  0.5361950000000 1.0
C      1  0.5288860000000  0.4960170000000  0.4537800000000 1.0
C      1  0.4720930000000  0.4851080000000  0.5891280000000 1.0
C      1  0.5519570000000  0.5142470000000  0.5980540000000 1.0
C      1  0.4825560000000  0.5060490000000  0.5017240000000 1.0
C      1  0.4298940000000  0.5453590000000  0.4655310000000 1.0
C      1  0.5275780000000  0.4538630000000  0.4169530000000 1.0
C      1  0.5034250000000  0.5380010000000  0.4205190000000 1.0
C      1  0.4537250000000  0.4867640000000  0.4378860000000 1.0
C      1  0.5084090000000  0.4372730000000  0.4667940000000 1.0
C      1  0.5086400000000  0.4742660000000  0.5292220000000 1.0
C      1  0.5129080000000  0.4633900000000  0.4839540000000 1.0
C      1  0.4406360000000  0.4702620000000  0.4617950000000 1.0
C      1  0.5909780000000  0.5092890000000  0.4897530000000 1.0
C      1  0.5415500000000  0.4415560000000  0.5663620000000 1.0
C      1  0.5047600000000  0.5237300000000  0.5969580000000 1.0
C      1  0.5471090000000  0.4963080000000  0.4283390000000 1.0
C      1  0.5119380000000  0.5793570000000  0.4387770000000 1.0
C      1  0.4544110000000  0.5446920000000  0.5167660000000 1.0
C      1  0.5330250000000  0.5435250000000  0.4202080000000 1.0
C      1  0.4079470000000  0.5181620000000  0.5051560000000 1.0
C      1  0.4528570000000  0.4529860000000  0.5554000000000 1.0
C      1  0.4786770000000  0.5865400000000  0.5718040000000 1.0
C      1  0.5586840000000  0.4316110000000  0.5212830000000 1.0
C      1  0.4545740000000  0.5299890000000  0.4710210000000 1.0
C      1  0.5796140000000  0.5262100000000  0.5604750000000 1.0
C      1  0.4203030000000  0.4671750000000  0.5209800000000 1.0
C      1  0.5237610000000  0.5742010000000  0.5733930000000 1.0
C      1  0.5535890000000  0.5250760000000  0.4255810000000 1.0
C      1  0.4582400000000  0.5313590000000  0.5469810000000 1.0
C      1  0.4783470000000  0.5465980000000  0.4643470000000 1.0
C      1  0.4173190000000  0.4847450000000  0.4747560000000 1.0
C      1  0.4428440000000  0.5781220000000  0.5420790000000 1.0
C      1  0.4495370000000  0.4990240000000  0.5840860000000 1.0
C      1  0.4296930000000  0.5584630000000  0.5259850000000 1.0
C      1  0.4717390000000  0.4586620000000  0.5777490000000 1.0
C      1  0.5249220000000  0.5242920000000  0.4642790000000 1.0
C      1  0.4783060000000  0.4386690000000  0.4644110000000 1.0
C      1  0.5902660000000  0.4857280000000  0.5312190000000 1.0
C      1  0.4617810000000  0.4556140000000  0.5074160000000 1.0
C      1  0.5620940000000  0.5645770000000  0.5344030000000 1.0
C      1  0.5262320000000  0.5216420000000  0.4922660000000 1.0
C      1  0.4377210000000  0.4272110000000  0.4857110000000 1.0
C      1  0.4141350000000  0.5337810000000  0.5289920000000 1.0
C      1  0.4612860000000  0.5466430000000  0.5739400000000 1.0
C      1  0.5433100000000  0.4652260000000  0.5824710000000 1.0
C      1  0.4991110000000  0.4503730000000  0.5810910000000 1.0
C      1  0.4837720000000  0.4363190000000  0.5119290000000 1.0
C      1  0.4639830000000  0.4167990000000  0.4801020000000 1.0
C      1  0.5396330000000  0.4343060000000  0.4312270000000 1.0
C      1  0.5543740000000  0.4212520000000  0.4763900000000 1.0
C      1  0.4499250000000  0.4297630000000  0.5391420000000 1.0
C      1  0.4815920000000  0.4474030000000  0.4351970000000 1.0
C      1  0.4892390000000  0.5165610000000  0.4049540000000 1.0
C      1  0.5715200000000  0.4353590000000  0.4966680000000 1.0
C      1  0.5648700000000  0.4639810000000  0.4628320000000 1.0
C      1  0.4970380000000  0.4953670000000  0.4537950000000 1.0
C      1  0.4828030000000  0.5159640000000  0.5450480000000 1.0
C      1  0.5585810000000  0.5596570000000  0.4583710000000 1.0
C      1  0.4668110000000  0.5619830000000  0.4411370000000 1.0
C      1  0.4344740000000  0.4741350000000  0.5457450000000 1.0
C      1  0.4830170000000  0.4784970000000  0.4330070000000 1.0
C      1  0.4703610000000  0.5676240000000  0.5074640000000 1.0
C      1  0.5193860000000  0.5870920000000  0.5477510000000 1.0
C      1  0.4662400000000  0.4649990000000  0.4791250000000 1.0
C      1  0.4759620000000  0.4184720000000  0.5344830000000 1.0
C      1  0.4046370000000  0.5064310000000  0.4607230000000 1.0
C      1  0.5028720000000  0.5334000000000  0.5341000000000 1.0
C      1  0.5378550000000  0.4786640000000  0.4757730000000 1.0
C      1  0.5009300000000  0.4126690000000  0.5480030000000 1.0
C      1  0.4992520000000  0.4951960000000  0.5956230000000 1.0
C      1  0.4530020000000  0.5741320000000  0.5690850000000 1.0
C      1  0.4899650000000  0.5930430000000  0.5467560000000 1.0
C      1  0.5961160000000  0.4946640000000  0.4415280000000 1.0
C      1  0.4985380000000  0.5274460000000  0.4514660000000 1.0
C      1  0.4866850000000  0.5447810000000  0.5900080000000 1.0
C      1  0.4017470000000  0.5068410000000  0.4334470000000 1.0
C      1  0.4443710000000  0.4904140000000  0.4080370000000 1.0
C      1  0.5160650000000  0.4719740000000  0.5905570000000 1.0
C      1  0.5654950000000  0.5513880000000  0.5600050000000 1.0
C      1  0.5328870000000  0.5324940000000  0.5948240000000 1.0
C      1  0.5094180000000  0.4513240000000  0.5114990000000 1.0
C      1  0.5912660000000  0.4825260000000  0.5018340000000 1.0
C      1  0.4907980000000  0.5650100000000  0.4257740000000 1.0
C      1  0.4518820000000  0.5142430000000  0.4455100000000 1.0
C      1  0.4913080000000  0.5594630000000  0.4895810000000 1.0
C      1  0.5697440000000  0.5347230000000  0.4479810000000 1.0
C      1  0.4360580000000  0.4321940000000  0.4349040000000 1.0
C      1  0.5786000000000  0.4677730000000  0.5512300000000 1.0
C      1  0.5719960000000  0.4827710000000  0.4402660000000 1.0
C      1  0.4619610000000  0.4735510000000  0.5304560000000 1.0
C      1  0.4418910000000  0.5303100000000  0.4227760000000 1.0
C      1  0.4546700000000  0.4432590000000  0.4173150000000 1.0
C      1  0.4576170000000  0.5204870000000  0.4982920000000 1.0
C      1  0.5715930000000  0.5071550000000  0.5806740000000 1.0
C      1  0.4122670000000  0.4881170000000  0.5025790000000 1.0
C      1  0.5028800000000  0.5318990000000  0.5044400000000 1.0
C      1  0.4980170000000  0.5704350000000  0.5856520000000 1.0
C      1  0.5171460000000  0.4053770000000  0.5262710000000 1.0
C      1  0.5329760000000  0.4878680000000  0.5253290000000 1.0
C      1  0.5569710000000  0.4369680000000  0.4534520000000 1.0
C      1  0.5269870000000  0.4811350000000  0.4107330000000 1.0
C      1  0.5263060000000  0.4169990000000  0.4841710000000 1.0
C      1  0.5435530000000  0.5553960000000  0.5789430000000 1.0
C      1  0.5867970000000  0.5140930000000  0.4606220000000 1.0
C      1  0.5117160000000  0.5823320000000  0.4841630000000 1.0
C      1  0.4314360000000  0.4972850000000  0.5634880000000 1.0
C      1  0.4312190000000  0.4400810000000  0.4602870000000 1.0
C      1  0.5677970000000  0.4795090000000  0.5746700000000 1.0
C      1  0.4085320000000  0.5295100000000  0.4778850000000 1.0
C      1  0.4613550000000  0.5162880000000  0.4043340000000 1.0
END
