TITL C-22226-3562-5 -61.9515047417158 125000 -337.808133814598 0 0 53 (Cs) n - 1
REM
REM in /rds/project/t2_vol4/rds-t2-cs072/BORA/CARBON/from-Arr/AIRSS/Generating-Clusters/GAP-ML-2020/Higher-Symm/SD-CG/HFTN-CG
REM
REM
REM
REM
REM
REM ./C.cell (b20cbc046b6831c77cfcea5457e17084)
REM AIRSS Version 0.9.1 bugfix July 2018 build 013d7b7c2542+ Fri, 06 Jul 2018 19:26:36 +0100
REM compiler GCC version 9.3.0
REM options -cpp -mtune=generic -march=x86-64 -g -O0
REM seed 1163027143 924578805 -222725503 1527075103 1822399515 1917048704 1051543802 1940940034 -378768028 -217935906 1463959074 -2004117335 1505497259 95964219 -285899261 -1157943257 -53624852 -720967068 1039347689 164351608 527671159 1619548829 -1336350274 1513430518 -202647839 317307515 1679156828 2042414733 1640031989 -1382651811 827681835 -1897028573 -750797654
REM
CELL 1.54180   50.00000   50.00000   50.00000   90.00000   90.00000   90.00000
LATT -1
SFAC C  
C      1  0.5134190000000  0.5371770000000  0.4674970000000 1.0
C      1  0.4692970000000  0.5372390000000  0.4835410000000 1.0
C      1  0.4589170000000  0.5373860000000  0.5120890000000 1.0
C      1  0.4814740000000  0.5340720000000  0.5347570000000 1.0
C      1  0.5133720000000  0.5345510000000  0.5360700000000 1.0
C      1  0.5369740000000  0.5339940000000  0.5145760000000 1.0
C      1  0.5397110000000  0.5372730000000  0.4827110000000 1.0
C      1  0.5325710000000  0.5676220000000  0.4883400000000 1.0
C      1  0.5069150000000  0.5658390000000  0.4765450000000 1.0
C      1  0.4801630000000  0.5658760000000  0.4862720000000 1.0
C      1  0.4680800000000  0.5677120000000  0.5117900000000 1.0
C      1  0.4847050000000  0.5651700000000  0.5338780000000 1.0
C      1  0.5124430000000  0.5674950000000  0.5333900000000 1.0
C      1  0.5340110000000  0.5651010000000  0.5159500000000 1.0
C      1  0.5233810000000  0.5337530000000  0.5636010000000 1.0
C      1  0.5537130000000  0.5109690000000  0.5223990000000 1.0
C      1  0.5582660000000  0.5161850000000  0.4697340000000 1.0
C      1  0.5124090000000  0.5204480000000  0.4417070000000 1.0
C      1  0.4534640000000  0.5205310000000  0.4631400000000 1.0
C      1  0.4363090000000  0.5163550000000  0.5140800000000 1.0
C      1  0.4736130000000  0.5110810000000  0.5515240000000 1.0
C      1  0.5295040000000  0.4520970000000  0.4473130000000 1.0
C      1  0.4795400000000  0.4588850000000  0.4433190000000 1.0
C      1  0.4437940000000  0.4522170000000  0.4784790000000 1.0
C      1  0.4510380000000  0.4482330000000  0.5280210000000 1.0
C      1  0.4934770000000  0.4555780000000  0.5544060000000 1.0
C      1  0.5402020000000  0.4555120000000  0.5374150000000 1.0
C      1  0.5557640000000  0.4480870000000  0.4899410000000 1.0
C      1  0.5812610000000  0.5169750000000  0.4577070000000 1.0
C      1  0.5130600000000  0.5250300000000  0.4160220000000 1.0
C      1  0.4364800000000  0.5251370000000  0.4438680000000 1.0
C      1  0.4109620000000  0.5172130000000  0.5196310000000 1.0
C      1  0.4639300000000  0.5070000000000  0.5763990000000 1.0
C      1  0.5306820000000  0.5474660000000  0.5836260000000 1.0
C      1  0.5771020000000  0.5068420000000  0.5352480000000 1.0
C      1  0.5059990000000  0.4662560000000  0.4450540000000 1.0
C      1  0.4603930000000  0.4663190000000  0.4616370000000 1.0
C      1  0.4463070000000  0.4615350000000  0.5043280000000 1.0
C      1  0.4718770000000  0.4616450000000  0.5395070000000 1.0
C      1  0.5157090000000  0.4658420000000  0.5427630000000 1.0
C      1  0.5472030000000  0.4615390000000  0.5121170000000 1.0
C      1  0.5442050000000  0.4613990000000  0.4687310000000 1.0
C      1  0.5082310000000  0.4861100000000  0.5221190000000 1.0
C      1  0.5355290000000  0.4900350000000  0.5071260000000 1.0
C      1  0.5378020000000  0.4909880000000  0.4756730000000 1.0
C      1  0.5122810000000  0.4935880000000  0.4573910000000 1.0
C      1  0.4635700000000  0.4936560000000  0.4751030000000 1.0
C      1  0.4557460000000  0.4911030000000  0.5055100000000 1.0
C      1  0.4776880000000  0.4901160000000  0.5281580000000 1.0
C      1  0.4947610000000  0.5233060000000  0.4849330000000 1.0
C      1  0.4979080000000  0.4483270000000  0.4938730000000 1.0
C      1  0.4991870000000  0.4735800000000  0.4972950000000 1.0
C      1  0.4923020000000  0.4963710000000  0.4782720000000 1.0
END
