TITL C-22186-9743-4 0.00160027514620598 125000 -85.2305225889597 0 0 13 (C4v) n - 1
REM
REM in /rds/project/t2_vol4/rds-t2-cs072/BORA/CARBON/from-Arr/AIRSS/Generating-Clusters/GAP-ML-2020/Higher-Symm/SD-CG/HFTN-CG
REM
REM
REM
REM
REM
REM ./C.cell (b20cbc046b6831c77cfcea5457e17084)
REM AIRSS Version 0.9.1 bugfix July 2018 build 013d7b7c2542+ Fri, 06 Jul 2018 19:26:36 +0100
REM compiler GCC version 9.3.0
REM options -cpp -mtune=generic -march=x86-64 -g -O0
REM seed 1161613943 -2114243427 444822625 -24602646 1911548303 -467569822 1234139102 -1054745456 375034243 -1417047978 1869193945 -178375962 -1764910964 1028453195 -608064251 -1788612969 1145277137 -1941229708 298554116 -2100121118 -305899943 988895891 -1994135173 1182962768 -1444129748 174965769 -2066416401 1028732116 -719606254 396341613 1504027242 1798887923 -227905065
REM
CELL 1.54180   50.00000   50.00000   50.00000   90.00000   90.00000   90.00000
LATT -1
SFAC C  
C      1  0.4879670000000  0.4724230000000  0.4837980000000 1.0
C      1  0.4684540000000  0.4857160000000  0.4990880000000 1.0
C      1  0.4832360000000  0.4776710000000  0.5216280000000 1.0
C      1  0.5189030000000  0.4919080000000  0.5241130000000 1.0
C      1  0.5014380000000  0.4930560000000  0.4702300000000 1.0
C      1  0.4860550000000  0.5235310000000  0.5164220000000 1.0
C      1  0.4699520000000  0.5133880000000  0.4954370000000 1.0
C      1  0.4909800000000  0.5180670000000  0.4770390000000 1.0
C      1  0.5236340000000  0.4866600000000  0.4862830000000 1.0
C      1  0.4937130000000  0.5016250000000  0.5320050000000 1.0
C      1  0.5070830000000  0.5282100000000  0.4980240000000 1.0
C      1  0.5079010000000  0.4705990000000  0.5061180000000 1.0
C      1  0.5266970000000  0.5089650000000  0.5031460000000 1.0
END
