TITL C-22205-8037-3 1081.35081159709 125000 -1258.37376577269 0 0 176 (C1) n - 1
REM
REM in /rds/project/t2_vol4/rds-t2-cs072/BORA/CARBON/from-Arr/AIRSS/Generating-Clusters/GAP-ML-2020/Higher-Symm/SD-CG/HFTN-CG/C160-200
REM
REM
REM
REM
REM
REM ./C.cell (6b4489405718ea1b717e0baf1da4c2d9)
REM AIRSS Version 0.9.1 bugfix July 2018 build 013d7b7c2542+ Fri, 06 Jul 2018 19:26:36 +0100
REM compiler GCC version 9.3.0
REM options -cpp -mtune=generic -march=x86-64 -g -O0
REM seed 1470793016 1814403387 -215145803 -1294413753 938766261 -296873114 1577236810 1737443240 432409807 841002221 1513432210 616796417 425971967 -4160555 1441568214 -1498112719 204073168 -313875586 -936773936 1363799923 1763280279 -540755097 -2118652297 1026207953 1076098840 1177209170 -309565414 -1830835452 1786678994 1807631509 -1497594094 833292720 460716957
REM
CELL 1.54180   50.00000   50.00000   50.00000   90.00000   90.00000   90.00000
LATT -1
SFAC C  
C      1  0.5114340000000  0.4255420000000  0.4982040000000 1.0
C      1  0.5105580000000  0.4362840000000  0.5405070000000 1.0
C      1  0.5094440000000  0.4685200000000  0.5690420000000 1.0
C      1  0.5168110000000  0.5097500000000  0.5825230000000 1.0
C      1  0.5058150000000  0.5422440000000  0.5563100000000 1.0
C      1  0.5119920000000  0.5684830000000  0.5169530000000 1.0
C      1  0.5231320000000  0.6010790000000  0.4817660000000 1.0
C      1  0.5078550000000  0.5421060000000  0.4568470000000 1.0
C      1  0.5254420000000  0.5285150000000  0.3899340000000 1.0
C      1  0.5059040000000  0.4839440000000  0.4372250000000 1.0
C      1  0.5110520000000  0.4417210000000  0.4571790000000 1.0
C      1  0.4920070000000  0.4269470000000  0.5202980000000 1.0
C      1  0.4905700000000  0.4499180000000  0.5574550000000 1.0
C      1  0.4921570000000  0.4926120000000  0.5760180000000 1.0
C      1  0.5147950000000  0.5388720000000  0.5848630000000 1.0
C      1  0.4913470000000  0.5613460000000  0.5399800000000 1.0
C      1  0.5038340000000  0.5785540000000  0.4905570000000 1.0
C      1  0.4906980000000  0.5623930000000  0.4694830000000 1.0
C      1  0.4963100000000  0.5292670000000  0.4356630000000 1.0
C      1  0.4865040000000  0.5046170000000  0.4391330000000 1.0
C      1  0.4916500000000  0.4583930000000  0.4416250000000 1.0
C      1  0.4924880000000  0.4289940000000  0.4765410000000 1.0
C      1  0.4978660000000  0.5441890000000  0.6080220000000 1.0
C      1  0.4814830000000  0.5856470000000  0.5588820000000 1.0
C      1  0.4972070000000  0.6092420000000  0.4939980000000 1.0
C      1  0.4814530000000  0.5818620000000  0.4442560000000 1.0
C      1  0.5007230000000  0.5427800000000  0.3884770000000 1.0
C      1  0.4742190000000  0.4768230000000  0.3818310000000 1.0
C      1  0.4866050000000  0.4365820000000  0.4165750000000 1.0
C      1  0.4829920000000  0.4012690000000  0.4634380000000 1.0
C      1  0.4824680000000  0.3962930000000  0.5228860000000 1.0
C      1  0.4808740000000  0.4248430000000  0.5759900000000 1.0
C      1  0.4791370000000  0.4787150000000  0.6032530000000 1.0
C      1  0.5882400000000  0.5072210000000  0.4483720000000 1.0
C      1  0.5885880000000  0.4790050000000  0.4537440000000 1.0
C      1  0.5889370000000  0.4577950000000  0.4735260000000 1.0
C      1  0.5881590000000  0.4499170000000  0.5016600000000 1.0
C      1  0.5879600000000  0.4579800000000  0.5295760000000 1.0
C      1  0.5870950000000  0.4803410000000  0.5476310000000 1.0
C      1  0.5844400000000  0.5086430000000  0.5490340000000 1.0
C      1  0.5882960000000  0.5344680000000  0.5370880000000 1.0
C      1  0.5906010000000  0.5498430000000  0.5124100000000 1.0
C      1  0.5888770000000  0.5496590000000  0.4832380000000 1.0
C      1  0.5897690000000  0.5337640000000  0.4594000000000 1.0
C      1  0.5231210000000  0.5032930000000  0.6100490000000 1.0
C      1  0.5304600000000  0.5809030000000  0.5756420000000 1.0
C      1  0.5265370000000  0.5966300000000  0.5270320000000 1.0
C      1  0.5222510000000  0.6017810000000  0.4527270000000 1.0
C      1  0.5293870000000  0.5694000000000  0.4137560000000 1.0
C      1  0.5211020000000  0.4998810000000  0.3873290000000 1.0
C      1  0.5317740000000  0.4502870000000  0.4032160000000 1.0
C      1  0.5268200000000  0.4164840000000  0.4456600000000 1.0
C      1  0.5266900000000  0.3997510000000  0.5004030000000 1.0
C      1  0.5259060000000  0.4156720000000  0.5563460000000 1.0
C      1  0.5245970000000  0.4564080000000  0.5933880000000 1.0
C      1  0.5263150000000  0.4625880000000  0.4731860000000 1.0
C      1  0.5263690000000  0.4537190000000  0.4993190000000 1.0
C      1  0.5262010000000  0.4605690000000  0.5262170000000 1.0
C      1  0.5259230000000  0.4799060000000  0.5459820000000 1.0
C      1  0.5342260000000  0.5061650000000  0.5550120000000 1.0
C      1  0.5241630000000  0.5287070000000  0.5405100000000 1.0
C      1  0.5271140000000  0.5424830000000  0.5168470000000 1.0
C      1  0.5350210000000  0.5304230000000  0.4953860000000 1.0
C      1  0.5289850000000  0.5296340000000  0.4698660000000 1.0
C      1  0.5418790000000  0.5077350000000  0.4598270000000 1.0
C      1  0.5268180000000  0.4856300000000  0.4576690000000 1.0
C      1  0.5672350000000  0.5367550000000  0.4167290000000 1.0
C      1  0.5644100000000  0.4854140000000  0.4113360000000 1.0
C      1  0.5678710000000  0.4407650000000  0.4339060000000 1.0
C      1  0.5666760000000  0.4150010000000  0.4765780000000 1.0
C      1  0.5660090000000  0.4154750000000  0.5272360000000 1.0
C      1  0.5656180000000  0.4427520000000  0.5697080000000 1.0
C      1  0.5633410000000  0.4882640000000  0.5897060000000 1.0
C      1  0.5624710000000  0.5418170000000  0.5776510000000 1.0
C      1  0.5678540000000  0.5777150000000  0.5453050000000 1.0
C      1  0.5676220000000  0.5898410000000  0.4984120000000 1.0
C      1  0.5638030000000  0.5740990000000  0.4489130000000 1.0
C      1  0.4250100000000  0.5661890000000  0.5448850000000 1.0
C      1  0.4203890000000  0.5797380000000  0.5019100000000 1.0
C      1  0.4250960000000  0.5652730000000  0.4597500000000 1.0
C      1  0.4202340000000  0.5321600000000  0.4316260000000 1.0
C      1  0.4258390000000  0.4901710000000  0.4228140000000 1.0
C      1  0.4287530000000  0.4482740000000  0.4391330000000 1.0
C      1  0.4282450000000  0.4227880000000  0.4768030000000 1.0
C      1  0.4279440000000  0.4227980000000  0.5218960000000 1.0
C      1  0.4271070000000  0.4472300000000  0.5592950000000 1.0
C      1  0.4243680000000  0.4873530000000  0.5786100000000 1.0
C      1  0.4273440000000  0.5320110000000  0.5728560000000 1.0
C      1  0.4374440000000  0.5590280000000  0.5702980000000 1.0
C      1  0.4308460000000  0.5881370000000  0.5273410000000 1.0
C      1  0.4315230000000  0.5882910000000  0.4766560000000 1.0
C      1  0.4329680000000  0.5570980000000  0.4337110000000 1.0
C      1  0.4326600000000  0.5159050000000  0.4124750000000 1.0
C      1  0.4354750000000  0.4644790000000  0.4161390000000 1.0
C      1  0.4376410000000  0.4227130000000  0.4498140000000 1.0
C      1  0.4374050000000  0.4077510000000  0.4995910000000 1.0
C      1  0.4368080000000  0.4224240000000  0.5491720000000 1.0
C      1  0.4346580000000  0.4610890000000  0.5828900000000 1.0
C      1  0.4328140000000  0.5113750000000  0.5920950000000 1.0
C      1  0.4848730000000  0.5676060000000  0.5970050000000 1.0
C      1  0.4768420000000  0.6077680000000  0.5390950000000 1.0
C      1  0.4780430000000  0.6142590000000  0.4722360000000 1.0
C      1  0.4780940000000  0.5720080000000  0.4180750000000 1.0
C      1  0.4787600000000  0.5251270000000  0.3861300000000 1.0
C      1  0.4804570000000  0.4501160000000  0.3891040000000 1.0
C      1  0.4811010000000  0.4099550000000  0.4244750000000 1.0
C      1  0.4806020000000  0.3819000000000  0.4846870000000 1.0
C      1  0.4797220000000  0.3920710000000  0.5513460000000 1.0
C      1  0.4772040000000  0.4371070000000  0.6017980000000 1.0
C      1  0.4744200000000  0.5029430000000  0.6201300000000 1.0
C      1  0.4914230000000  0.4993410000000  0.3829640000000 1.0
C      1  0.5064360000000  0.4406260000000  0.3963240000000 1.0
C      1  0.5026440000000  0.4000890000000  0.4402720000000 1.0
C      1  0.5019660000000  0.3833770000000  0.5035840000000 1.0
C      1  0.5006790000000  0.4036810000000  0.5672130000000 1.0
C      1  0.4984870000000  0.4551940000000  0.6085490000000 1.0
C      1  0.4987010000000  0.5185760000000  0.6208950000000 1.0
C      1  0.5023120000000  0.5852030000000  0.5806900000000 1.0
C      1  0.5001840000000  0.6120050000000  0.5225350000000 1.0
C      1  0.4940160000000  0.6062180000000  0.4489370000000 1.0
C      1  0.5020830000000  0.5664480000000  0.4041530000000 1.0
C      1  0.5795610000000  0.5763990000000  0.5199550000000 1.0
C      1  0.5745920000000  0.5746580000000  0.4754010000000 1.0
C      1  0.5768160000000  0.5511930000000  0.4388500000000 1.0
C      1  0.5748150000000  0.5099710000000  0.4214840000000 1.0
C      1  0.5766110000000  0.4670800000000  0.4292340000000 1.0
C      1  0.5780680000000  0.4342380000000  0.4591800000000 1.0
C      1  0.5766260000000  0.4226810000000  0.5018820000000 1.0
C      1  0.5765520000000  0.4352290000000  0.5446840000000 1.0
C      1  0.5759100000000  0.4692580000000  0.5734680000000 1.0
C      1  0.5651080000000  0.5130470000000  0.5729290000000 1.0
C      1  0.5770610000000  0.5537610000000  0.5568730000000 1.0
C      1  0.5391470000000  0.5847350000000  0.4366320000000 1.0
C      1  0.5433970000000  0.5459600000000  0.4042000000000 1.0
C      1  0.5401020000000  0.4785690000000  0.3969020000000 1.0
C      1  0.5432970000000  0.4320690000000  0.4234440000000 1.0
C      1  0.5413950000000  0.4041480000000  0.4720430000000 1.0
C      1  0.5410710000000  0.4036010000000  0.5301870000000 1.0
C      1  0.5404300000000  0.4338000000000  0.5782710000000 1.0
C      1  0.5399360000000  0.4809440000000  0.6047270000000 1.0
C      1  0.5391870000000  0.5552670000000  0.5856840000000 1.0
C      1  0.5425500000000  0.5900000000000  0.5515470000000 1.0
C      1  0.5428300000000  0.6017480000000  0.5025590000000 1.0
C      1  0.4491340000000  0.5119230000000  0.6143560000000 1.0
C      1  0.4624160000000  0.5712440000000  0.5782380000000 1.0
C      1  0.4511190000000  0.6057550000000  0.5308210000000 1.0
C      1  0.4521820000000  0.6055670000000  0.4734610000000 1.0
C      1  0.4545160000000  0.5569510000000  0.4141740000000 1.0
C      1  0.4543150000000  0.5320100000000  0.4001650000000 1.0
C      1  0.4537290000000  0.4636750000000  0.3944720000000 1.0
C      1  0.4603070000000  0.4067390000000  0.4440950000000 1.0
C      1  0.4600270000000  0.3911560000000  0.5029730000000 1.0
C      1  0.4590260000000  0.4099430000000  0.5612150000000 1.0
C      1  0.4573290000000  0.4578560000000  0.5990980000000 1.0
C      1  0.4156050000000  0.4653110000000  0.5383850000000 1.0
C      1  0.4147470000000  0.4918900000000  0.5510630000000 1.0
C      1  0.4152480000000  0.5209620000000  0.5481710000000 1.0
C      1  0.4130830000000  0.5431750000000  0.5300300000000 1.0
C      1  0.4107820000000  0.5519560000000  0.5024710000000 1.0
C      1  0.4126920000000  0.5424170000000  0.4752420000000 1.0
C      1  0.4105610000000  0.5198570000000  0.4566430000000 1.0
C      1  0.4137650000000  0.4915320000000  0.4502800000000 1.0
C      1  0.4158540000000  0.4645870000000  0.4604800000000 1.0
C      1  0.4160970000000  0.4486960000000  0.4847330000000 1.0
C      1  0.4161230000000  0.4491240000000  0.5139730000000 1.0
C      1  0.4703240000000  0.4970340000000  0.4619230000000 1.0
C      1  0.4732760000000  0.4692430000000  0.4642020000000 1.0
C      1  0.4754230000000  0.4530370000000  0.4860420000000 1.0
C      1  0.4758400000000  0.4531500000000  0.5138770000000 1.0
C      1  0.4747000000000  0.4674590000000  0.5381950000000 1.0
C      1  0.4759120000000  0.4940750000000  0.5489990000000 1.0
C      1  0.4702440000000  0.5158090000000  0.5351440000000 1.0
C      1  0.4715740000000  0.5420200000000  0.5283430000000 1.0
C      1  0.4597670000000  0.5507010000000  0.5057820000000 1.0
C      1  0.4715240000000  0.5428920000000  0.4824310000000 1.0
C      1  0.4657240000000  0.5170750000000  0.4781880000000 1.0
END
