TITL C-22167-3418-6 -0.243034499454729 125000 -1030.94692633111 0 0 147 (C1) n - 1
REM
REM in /rds/project/t2_vol4/rds-t2-cs072/BORA/CARBON/from-Arr/AIRSS/Generating-Clusters/GAP-ML-2020/Higher-Symm/SD-CG/HFTN-CG
REM
REM
REM
REM
REM
REM ./C.cell (b20cbc046b6831c77cfcea5457e17084)
REM AIRSS Version 0.9.1 bugfix July 2018 build 013d7b7c2542+ Fri, 06 Jul 2018 19:26:36 +0100
REM compiler GCC version 9.3.0
REM options -cpp -mtune=generic -march=x86-64 -g -O0
REM seed 1158941187 266867877 770422082 152651868 -265385552 -1382303258 504884570 -441102263 -402983432 1572008047 -319086607 1483431418 743954045 -388469172 917213065 1680897699 -1992269331 -1236911916 -1936436055 2073422951 -1109316248 -1907897532 1058160850 323561214 -1820564945 2026812456 -125798048 -613766242 -1129776619 -1969712666 1435298634 987864106 -99664551
REM
CELL 1.54180   50.00000   50.00000   50.00000   90.00000   90.00000   90.00000
LATT -1
SFAC C  
C      1  0.4076100000000  0.5291910000000  0.4796810000000 1.0
C      1  0.4075310000000  0.5341610000000  0.5099230000000 1.0
C      1  0.4073580000000  0.5135470000000  0.5327190000000 1.0
C      1  0.4074530000000  0.4829190000000  0.5308340000000 1.0
C      1  0.4074950000000  0.4653600000000  0.5057310000000 1.0
C      1  0.4077070000000  0.4739580000000  0.4762580000000 1.0
C      1  0.4077160000000  0.5022960000000  0.4647430000000 1.0
C      1  0.4580330000000  0.5216020000000  0.4157090000000 1.0
C      1  0.4590290000000  0.5799340000000  0.4642830000000 1.0
C      1  0.4583530000000  0.5771020000000  0.5405320000000 1.0
C      1  0.4585660000000  0.5165790000000  0.5856250000000 1.0
C      1  0.4588010000000  0.4435220000000  0.5665860000000 1.0
C      1  0.4581460000000  0.4128100000000  0.4978720000000 1.0
C      1  0.4592220000000  0.4470360000000  0.4303680000000 1.0
C      1  0.4540350000000  0.5086890000000  0.5327830000000 1.0
C      1  0.4542910000000  0.4799870000000  0.5270510000000 1.0
C      1  0.4542490000000  0.4665660000000  0.5009130000000 1.0
C      1  0.4547110000000  0.4782040000000  0.4739250000000 1.0
C      1  0.4543750000000  0.5069210000000  0.4671050000000 1.0
C      1  0.4544550000000  0.5307620000000  0.4843600000000 1.0
C      1  0.4541630000000  0.5309810000000  0.5137230000000 1.0
C      1  0.5440210000000  0.4431320000000  0.4373510000000 1.0
C      1  0.5499790000000  0.5213660000000  0.4091160000000 1.0
C      1  0.5439800000000  0.5747430000000  0.4589990000000 1.0
C      1  0.5489040000000  0.5811810000000  0.5416610000000 1.0
C      1  0.5476080000000  0.5198850000000  0.5867420000000 1.0
C      1  0.5479580000000  0.4449420000000  0.5703440000000 1.0
C      1  0.5493040000000  0.4084790000000  0.5024120000000 1.0
C      1  0.5738830000000  0.5743770000000  0.5285100000000 1.0
C      1  0.5734470000000  0.5245550000000  0.5748950000000 1.0
C      1  0.5735640000000  0.4572960000000  0.5662240000000 1.0
C      1  0.5744760000000  0.4211030000000  0.5088970000000 1.0
C      1  0.5709350000000  0.4454710000000  0.4458570000000 1.0
C      1  0.5746550000000  0.5103840000000  0.4204010000000 1.0
C      1  0.5711110000000  0.5659630000000  0.4593550000000 1.0
C      1  0.4301000000000  0.5464740000000  0.4706080000000 1.0
C      1  0.4304250000000  0.5519850000000  0.5173330000000 1.0
C      1  0.4299330000000  0.5185800000000  0.5514800000000 1.0
C      1  0.4302640000000  0.4717020000000  0.5465750000000 1.0
C      1  0.4302790000000  0.4461410000000  0.5068910000000 1.0
C      1  0.4304080000000  0.4611160000000  0.4617540000000 1.0
C      1  0.4306390000000  0.5052930000000  0.4458030000000 1.0
C      1  0.5039370000000  0.5458040000000  0.5889060000000 1.0
C      1  0.5039970000000  0.4594540000000  0.5909930000000 1.0
C      1  0.5042310000000  0.4033490000000  0.5248650000000 1.0
C      1  0.5032880000000  0.4173160000000  0.4423900000000 1.0
C      1  0.5036300000000  0.4989790000000  0.3997910000000 1.0
C      1  0.5031200000000  0.5752770000000  0.4324890000000 1.0
C      1  0.5034460000000  0.5974050000000  0.5216590000000 1.0
C      1  0.4412900000000  0.5611500000000  0.4494860000000 1.0
C      1  0.4421990000000  0.5775420000000  0.5157720000000 1.0
C      1  0.4411580000000  0.5355220000000  0.5709160000000 1.0
C      1  0.4416640000000  0.4670080000000  0.5719260000000 1.0
C      1  0.4413240000000  0.4234310000000  0.5195900000000 1.0
C      1  0.4414900000000  0.4371520000000  0.4520700000000 1.0
C      1  0.4420690000000  0.4974550000000  0.4211760000000 1.0
C      1  0.4995910000000  0.4678520000000  0.4412760000000 1.0
C      1  0.4975150000000  0.5264790000000  0.4412020000000 1.0
C      1  0.4994920000000  0.5644390000000  0.4818240000000 1.0
C      1  0.4978830000000  0.5510070000000  0.5391490000000 1.0
C      1  0.4984810000000  0.5024200000000  0.5638890000000 1.0
C      1  0.4984780000000  0.4512580000000  0.5416860000000 1.0
C      1  0.4976090000000  0.4370830000000  0.4879320000000 1.0
C      1  0.3767920000000  0.5313570000000  0.5089050000000 1.0
C      1  0.3766950000000  0.5124940000000  0.5297960000000 1.0
C      1  0.3767190000000  0.4843950000000  0.5282100000000 1.0
C      1  0.3768360000000  0.4682390000000  0.5051660000000 1.0
C      1  0.3769270000000  0.4760520000000  0.4781410000000 1.0
C      1  0.3769880000000  0.5020770000000  0.4674940000000 1.0
C      1  0.3768620000000  0.5266580000000  0.4811730000000 1.0
C      1  0.5942460000000  0.5131190000000  0.4686200000000 1.0
C      1  0.5937960000000  0.5327290000000  0.4906240000000 1.0
C      1  0.5944630000000  0.5276870000000  0.5195080000000 1.0
C      1  0.5946370000000  0.5020150000000  0.5336640000000 1.0
C      1  0.5946320000000  0.4750050000000  0.5224700000000 1.0
C      1  0.5943570000000  0.4667830000000  0.4943730000000 1.0
C      1  0.5937730000000  0.4837900000000  0.4703250000000 1.0
C      1  0.5861690000000  0.4539930000000  0.5409810000000 1.0
C      1  0.5863230000000  0.4390290000000  0.4899070000000 1.0
C      1  0.5835500000000  0.4707170000000  0.4461740000000 1.0
C      1  0.5863340000000  0.5241730000000  0.4425890000000 1.0
C      1  0.5835390000000  0.5592780000000  0.4838190000000 1.0
C      1  0.5861500000000  0.5500370000000  0.5364710000000 1.0
C      1  0.5860310000000  0.5028800000000  0.5615300000000 1.0
C      1  0.5274270000000  0.4535410000000  0.5370030000000 1.0
C      1  0.5257600000000  0.4428050000000  0.4838750000000 1.0
C      1  0.5299900000000  0.4695900000000  0.4419330000000 1.0
C      1  0.5257210000000  0.5283450000000  0.4472360000000 1.0
C      1  0.5298740000000  0.5630730000000  0.4829390000000 1.0
C      1  0.5264030000000  0.5453700000000  0.5381920000000 1.0
C      1  0.5274310000000  0.5003300000000  0.5590140000000 1.0
C      1  0.4867070000000  0.5757890000000  0.4567600000000 1.0
C      1  0.4862090000000  0.5789880000000  0.5336160000000 1.0
C      1  0.4864170000000  0.5240230000000  0.5825500000000 1.0
C      1  0.4866800000000  0.4505000000000  0.5701390000000 1.0
C      1  0.4862450000000  0.4142880000000  0.5055290000000 1.0
C      1  0.4869440000000  0.4407990000000  0.4361190000000 1.0
C      1  0.4860330000000  0.5143440000000  0.4152530000000 1.0
C      1  0.5446170000000  0.4893580000000  0.5828880000000 1.0
C      1  0.5446490000000  0.4287250000000  0.5440630000000 1.0
C      1  0.5445750000000  0.4189080000000  0.4746370000000 1.0
C      1  0.5442910000000  0.4786420000000  0.4172610000000 1.0
C      1  0.5447270000000  0.5444430000000  0.4268810000000 1.0
C      1  0.5441190000000  0.5849050000000  0.4979740000000 1.0
C      1  0.5446350000000  0.5580100000000  0.5605200000000 1.0
C      1  0.5363320000000  0.4861270000000  0.4693630000000 1.0
C      1  0.5355060000000  0.5141910000000  0.4703260000000 1.0
C      1  0.5362200000000  0.5323580000000  0.4917650000000 1.0
C      1  0.5354230000000  0.5255810000000  0.5188670000000 1.0
C      1  0.5359440000000  0.5001620000000  0.5307960000000 1.0
C      1  0.5359530000000  0.4749640000000  0.5187280000000 1.0
C      1  0.5355190000000  0.4691570000000  0.4913800000000 1.0
C      1  0.4574310000000  0.4194840000000  0.4698340000000 1.0
C      1  0.4593310000000  0.4733350000000  0.4183600000000 1.0
C      1  0.4572890000000  0.5475860000000  0.4284910000000 1.0
C      1  0.4593440000000  0.5855500000000  0.4927010000000 1.0
C      1  0.4579130000000  0.5585800000000  0.5627320000000 1.0
C      1  0.4585210000000  0.4878250000000  0.5848320000000 1.0
C      1  0.4584570000000  0.4261130000000  0.5437010000000 1.0
C      1  0.5723630000000  0.4827630000000  0.5752170000000 1.0
C      1  0.5725050000000  0.4307380000000  0.5340160000000 1.0
C      1  0.5718350000000  0.4298630000000  0.4679960000000 1.0
C      1  0.5718410000000  0.4833580000000  0.4238230000000 1.0
C      1  0.5720440000000  0.5479980000000  0.4391700000000 1.0
C      1  0.5716050000000  0.5778240000000  0.5013990000000 1.0
C      1  0.5724830000000  0.5475260000000  0.5608440000000 1.0
C      1  0.4871750000000  0.4809530000000  0.4165240000000 1.0
C      1  0.4850030000000  0.5534730000000  0.4333260000000 1.0
C      1  0.4872070000000  0.5855700000000  0.5002770000000 1.0
C      1  0.4857130000000  0.5520550000000  0.5672750000000 1.0
C      1  0.4863420000000  0.4806330000000  0.5823580000000 1.0
C      1  0.4862340000000  0.4233000000000  0.5362000000000 1.0
C      1  0.4851360000000  0.4230840000000  0.4632680000000 1.0
C      1  0.4865430000000  0.5341190000000  0.4881010000000 1.0
C      1  0.4856750000000  0.5299850000000  0.5185770000000 1.0
C      1  0.4857820000000  0.5038540000000  0.5347750000000 1.0
C      1  0.4859580000000  0.4751390000000  0.5246310000000 1.0
C      1  0.4856270000000  0.4650820000000  0.4956130000000 1.0
C      1  0.4867500000000  0.4810100000000  0.4694160000000 1.0
C      1  0.4857180000000  0.5118830000000  0.4664460000000 1.0
C      1  0.5308210000000  0.4195120000000  0.4474270000000 1.0
C      1  0.5319380000000  0.4997320000000  0.4023400000000 1.0
C      1  0.5308280000000  0.5705700000000  0.4335570000000 1.0
C      1  0.5316850000000  0.5940200000000  0.5221800000000 1.0
C      1  0.5317280000000  0.5444660000000  0.5847790000000 1.0
C      1  0.5318550000000  0.4620550000000  0.5876430000000 1.0
C      1  0.5320850000000  0.4074630000000  0.5257110000000 1.0
END
