TITL C-22168-9692-3 -588.536694676268 125000 -1097.5406043229 0 0 159 (C1) n - 1
REM
REM in /rds/project/t2_vol4/rds-t2-cs072/BORA/CARBON/from-Arr/AIRSS/Generating-Clusters/GAP-ML-2020/Higher-Symm/SD-CG/HFTN-CG
REM
REM
REM
REM
REM
REM ./C.cell (b20cbc046b6831c77cfcea5457e17084)
REM AIRSS Version 0.9.1 bugfix July 2018 build 013d7b7c2542+ Fri, 06 Jul 2018 19:26:36 +0100
REM compiler GCC version 9.3.0
REM options -cpp -mtune=generic -march=x86-64 -g -O0
REM seed -661316921 -1584138342 2090139333 -992249289 -813852656 -1356688813 1337388452 1797078732 -1341475355 -1560461315 -1458804699 -672902028 -1616384055 -35778797 -1637372551 1221658320 1410809620 -1355387041 -543419062 -1196324649 1388258126 336199444 -1837430464 862616450 -1819191589 -401106143 2066515533 177004031 138800486 -590405505 661856624 275558546 469333223
REM
CELL 1.54180   50.00000   50.00000   50.00000   90.00000   90.00000   90.00000
LATT -1
SFAC C  
C      1  0.5267410000000  0.4871170000000  0.5875870000000 1.0
C      1  0.5274650000000  0.5158250000000  0.5866990000000 1.0
C      1  0.5035670000000  0.5322190000000  0.5879450000000 1.0
C      1  0.4755410000000  0.5261340000000  0.5863580000000 1.0
C      1  0.4641710000000  0.4998080000000  0.5851330000000 1.0
C      1  0.4773840000000  0.4732990000000  0.5855260000000 1.0
C      1  0.5051370000000  0.4667560000000  0.5858890000000 1.0
C      1  0.5515330000000  0.4650440000000  0.5202290000000 1.0
C      1  0.5541480000000  0.5269210000000  0.5181980000000 1.0
C      1  0.5152900000000  0.5640450000000  0.5213980000000 1.0
C      1  0.4662310000000  0.5523580000000  0.5205270000000 1.0
C      1  0.4440020000000  0.5018870000000  0.5159790000000 1.0
C      1  0.4624630000000  0.4511650000000  0.5193230000000 1.0
C      1  0.5106490000000  0.4330060000000  0.5202650000000 1.0
C      1  0.5497150000000  0.5871800000000  0.4763190000000 1.0
C      1  0.4645220000000  0.5994820000000  0.4825270000000 1.0
C      1  0.4103600000000  0.5338160000000  0.4784970000000 1.0
C      1  0.4203330000000  0.4439360000000  0.4765490000000 1.0
C      1  0.4894310000000  0.3947630000000  0.4815140000000 1.0
C      1  0.5705970000000  0.4260610000000  0.4771710000000 1.0
C      1  0.5946650000000  0.5076970000000  0.4796030000000 1.0
C      1  0.5386640000000  0.4205480000000  0.5138560000000 1.0
C      1  0.5770300000000  0.4822890000000  0.5163790000000 1.0
C      1  0.5621840000000  0.5556550000000  0.5113260000000 1.0
C      1  0.4965420000000  0.5891210000000  0.5192280000000 1.0
C      1  0.4366070000000  0.5497190000000  0.5144940000000 1.0
C      1  0.4241460000000  0.4780710000000  0.5113290000000 1.0
C      1  0.4669810000000  0.4192780000000  0.5174590000000 1.0
C      1  0.4684170000000  0.4814400000000  0.4507540000000 1.0
C      1  0.4867200000000  0.4562310000000  0.4510870000000 1.0
C      1  0.5175420000000  0.4599040000000  0.4526650000000 1.0
C      1  0.5323100000000  0.4859890000000  0.4539430000000 1.0
C      1  0.5225650000000  0.5339900000000  0.4535400000000 1.0
C      1  0.4974690000000  0.5504840000000  0.4520230000000 1.0
C      1  0.4741850000000  0.5308850000000  0.4528070000000 1.0
C      1  0.5126680000000  0.4380990000000  0.5678650000000 1.0
C      1  0.5467390000000  0.4764430000000  0.5705660000000 1.0
C      1  0.5508990000000  0.5269460000000  0.5662240000000 1.0
C      1  0.5086060000000  0.5552040000000  0.5717090000000 1.0
C      1  0.4622940000000  0.5470590000000  0.5673580000000 1.0
C      1  0.4425000000000  0.4989120000000  0.5646890000000 1.0
C      1  0.4636570000000  0.4542360000000  0.5669090000000 1.0
C      1  0.4770940000000  0.5323700000000  0.5407150000000 1.0
C      1  0.4644620000000  0.4987100000000  0.5387000000000 1.0
C      1  0.4778480000000  0.4656590000000  0.5408690000000 1.0
C      1  0.5090060000000  0.4540420000000  0.5422150000000 1.0
C      1  0.5328660000000  0.4728700000000  0.5428070000000 1.0
C      1  0.5329680000000  0.5248620000000  0.5407820000000 1.0
C      1  0.5086470000000  0.5437020000000  0.5428450000000 1.0
C      1  0.4982420000000  0.5391170000000  0.4102410000000 1.0
C      1  0.4717750000000  0.5286330000000  0.4084830000000 1.0
C      1  0.4640480000000  0.5003030000000  0.4057040000000 1.0
C      1  0.4900310000000  0.4563450000000  0.4073510000000 1.0
C      1  0.5178670000000  0.4631100000000  0.4114300000000 1.0
C      1  0.5313910000000  0.4898810000000  0.4116520000000 1.0
C      1  0.5237100000000  0.5201650000000  0.4105820000000 1.0
C      1  0.5782090000000  0.5103080000000  0.5272860000000 1.0
C      1  0.5444850000000  0.5751860000000  0.5230410000000 1.0
C      1  0.4708170000000  0.5812290000000  0.5307550000000 1.0
C      1  0.4251780000000  0.5247890000000  0.5234540000000 1.0
C      1  0.4325710000000  0.4537060000000  0.5233800000000 1.0
C      1  0.4922170000000  0.4109200000000  0.5293400000000 1.0
C      1  0.5609580000000  0.4357680000000  0.5232070000000 1.0
C      1  0.4656390000000  0.4250250000000  0.5674660000000 1.0
C      1  0.5411470000000  0.4224650000000  0.5635280000000 1.0
C      1  0.5743840000000  0.4810440000000  0.5662870000000 1.0
C      1  0.5628640000000  0.5565640000000  0.5621010000000 1.0
C      1  0.5003110000000  0.5823760000000  0.5695260000000 1.0
C      1  0.4318300000000  0.5479060000000  0.5638190000000 1.0
C      1  0.4217070000000  0.4769780000000  0.5624340000000 1.0
C      1  0.5398800000000  0.3928120000000  0.5251210000000 1.0
C      1  0.5976520000000  0.4644780000000  0.5275990000000 1.0
C      1  0.5898790000000  0.5602830000000  0.5213650000000 1.0
C      1  0.5136520000000  0.6097090000000  0.5315870000000 1.0
C      1  0.4200950000000  0.5726010000000  0.5248200000000 1.0
C      1  0.3974500000000  0.4857950000000  0.5220070000000 1.0
C      1  0.4423230000000  0.4076790000000  0.5295660000000 1.0
C      1  0.4563000000000  0.5062480000000  0.4908330000000 1.0
C      1  0.4687070000000  0.4620160000000  0.4936480000000 1.0
C      1  0.5032990000000  0.4439220000000  0.4945930000000 1.0
C      1  0.5350390000000  0.4701250000000  0.4965270000000 1.0
C      1  0.5412530000000  0.5145280000000  0.4942550000000 1.0
C      1  0.5126110000000  0.5508830000000  0.4960960000000 1.0
C      1  0.4789960000000  0.5469540000000  0.4953040000000 1.0
C      1  0.4542870000000  0.4814490000000  0.4767510000000 1.0
C      1  0.4801500000000  0.4422200000000  0.4781540000000 1.0
C      1  0.5255600000000  0.4481570000000  0.4791940000000 1.0
C      1  0.5498450000000  0.4889260000000  0.4791660000000 1.0
C      1  0.5344540000000  0.5388960000000  0.4795840000000 1.0
C      1  0.4953530000000  0.5645620000000  0.4788390000000 1.0
C      1  0.4608260000000  0.5320880000000  0.4790630000000 1.0
C      1  0.4111150000000  0.5153860000000  0.4562030000000 1.0
C      1  0.4347280000000  0.4258110000000  0.4574730000000 1.0
C      1  0.5086700000000  0.3999320000000  0.4581450000000 1.0
C      1  0.5773230000000  0.4447140000000  0.4561900000000 1.0
C      1  0.5853070000000  0.5240040000000  0.4567640000000 1.0
C      1  0.5287580000000  0.5971120000000  0.4580090000000 1.0
C      1  0.4514820000000  0.5854350000000  0.4586600000000 1.0
C      1  0.3886210000000  0.4999910000000  0.4985620000000 1.0
C      1  0.4255830000000  0.4078060000000  0.5058450000000 1.0
C      1  0.5253820000000  0.3807890000000  0.5032290000000 1.0
C      1  0.6024700000000  0.4480140000000  0.5036250000000 1.0
C      1  0.6019120000000  0.5464810000000  0.4989500000000 1.0
C      1  0.5284250000000  0.6173470000000  0.5069870000000 1.0
C      1  0.4264570000000  0.5914570000000  0.5038440000000 1.0
C      1  0.5371110000000  0.3971680000000  0.5518190000000 1.0
C      1  0.5849820000000  0.4576360000000  0.5532520000000 1.0
C      1  0.5873740000000  0.5559340000000  0.5482910000000 1.0
C      1  0.5223380000000  0.5961820000000  0.5559400000000 1.0
C      1  0.4212850000000  0.5707630000000  0.5518130000000 1.0
C      1  0.4029810000000  0.4935970000000  0.5487170000000 1.0
C      1  0.4401430000000  0.4209460000000  0.5543990000000 1.0
C      1  0.5418530000000  0.5303700000000  0.4302940000000 1.0
C      1  0.4937930000000  0.5669690000000  0.4283140000000 1.0
C      1  0.4546260000000  0.5395260000000  0.4311010000000 1.0
C      1  0.4482170000000  0.4939540000000  0.4291740000000 1.0
C      1  0.4819210000000  0.4352540000000  0.4293470000000 1.0
C      1  0.5298420000000  0.4444600000000  0.4306000000000 1.0
C      1  0.5532600000000  0.4864420000000  0.4311840000000 1.0
C      1  0.5923340000000  0.4591720000000  0.4773720000000 1.0
C      1  0.5855630000000  0.5484700000000  0.4724120000000 1.0
C      1  0.5150500000000  0.6106020000000  0.4813840000000 1.0
C      1  0.4308610000000  0.5777450000000  0.4769490000000 1.0
C      1  0.4025100000000  0.4924140000000  0.4722300000000 1.0
C      1  0.4407590000000  0.4079800000000  0.4803090000000 1.0
C      1  0.5303100000000  0.3950300000000  0.4762500000000 1.0
C      1  0.4747090000000  0.5756150000000  0.5603270000000 1.0
C      1  0.4229890000000  0.5207470000000  0.5536450000000 1.0
C      1  0.4323770000000  0.4512880000000  0.5537830000000 1.0
C      1  0.4908390000000  0.4166670000000  0.5600220000000 1.0
C      1  0.5661340000000  0.4345900000000  0.5520080000000 1.0
C      1  0.5738990000000  0.5076270000000  0.5571230000000 1.0
C      1  0.5470640000000  0.5798920000000  0.5517450000000 1.0
C      1  0.5796360000000  0.4840650000000  0.4855470000000 1.0
C      1  0.5588320000000  0.5593460000000  0.4808910000000 1.0
C      1  0.4922030000000  0.5935960000000  0.4886500000000 1.0
C      1  0.4336600000000  0.5492720000000  0.4842390000000 1.0
C      1  0.4235420000000  0.4727450000000  0.4800460000000 1.0
C      1  0.4686010000000  0.4137790000000  0.4872000000000 1.0
C      1  0.5425870000000  0.4209870000000  0.4834300000000 1.0
C      1  0.4522830000000  0.5985610000000  0.5088380000000 1.0
C      1  0.4011710000000  0.5237480000000  0.5032950000000 1.0
C      1  0.4183940000000  0.4341310000000  0.5036580000000 1.0
C      1  0.4992830000000  0.3874560000000  0.5079190000000 1.0
C      1  0.5825260000000  0.4297620000000  0.5031500000000 1.0
C      1  0.6002990000000  0.5198220000000  0.5049160000000 1.0
C      1  0.5470960000000  0.5977450000000  0.5031440000000 1.0
C      1  0.5076530000000  0.4191430000000  0.4369950000000 1.0
C      1  0.5596860000000  0.4550290000000  0.4364250000000 1.0
C      1  0.5657710000000  0.5154840000000  0.4372980000000 1.0
C      1  0.5149890000000  0.5861560000000  0.4368150000000 1.0
C      1  0.4613900000000  0.5698770000000  0.4365690000000 1.0
C      1  0.4324750000000  0.5164260000000  0.4371920000000 1.0
C      1  0.4533080000000  0.4294670000000  0.4377350000000 1.0
C      1  0.4860130000000  0.5044580000000  0.4513560000000 1.0
C      1  0.5122260000000  0.5062840000000  0.4569990000000 1.0
C      1  0.5220030000000  0.4984320000000  0.5337760000000 1.0
C      1  0.4749320000000  0.4765080000000  0.3969960000000 1.0
C      1  0.5189120000000  0.4965870000000  0.5053740000000 1.0
END
