TITL C-22191-7952-2 -120.866591056874 125000 -1404.4628110086 0 0 199 (C1) n - 1
REM
REM in /rds/project/t2_vol4/rds-t2-cs072/BORA/CARBON/from-Arr/AIRSS/Generating-Clusters/GAP-ML-2020/Higher-Symm/SD-CG/HFTN-CG/C160-200
REM
REM
REM
REM
REM
REM ./C.cell (6b4489405718ea1b717e0baf1da4c2d9)
REM AIRSS Version 0.9.1 bugfix July 2018 build 013d7b7c2542+ Fri, 06 Jul 2018 19:26:36 +0100
REM compiler GCC version 9.3.0
REM options -cpp -mtune=generic -march=x86-64 -g -O0
REM seed 496830887 1702752518 207895523 1391596890 -1117573088 439427414 1367178171 1744652610 429753835 330965712 1840221836 -440678061 741884451 -1211515614 959104345 1560226818 -1124869067 -1387398186 -615986535 -1857524902 -1496055246 -749888284 531234832 1220113601 530052232 -949331298 2132806265 -1717755576 1139836076 -1615726204 919636595 -1474895407 905867151
REM
CELL 1.54180   50.00000   50.00000   50.00000   90.00000   90.00000   90.00000
LATT -1
SFAC C  
C      1  0.4163010000000  0.5213050000000  0.4337150000000 1.0
C      1  0.5851110000000  0.5243690000000  0.5659400000000 1.0
C      1  0.4204300000000  0.4673130000000  0.4332990000000 1.0
C      1  0.5849660000000  0.4747860000000  0.5660880000000 1.0
C      1  0.5233170000000  0.5550900000000  0.4645050000000 1.0
C      1  0.4768990000000  0.5551620000000  0.5360220000000 1.0
C      1  0.5237830000000  0.4424500000000  0.4641090000000 1.0
C      1  0.4770920000000  0.4428410000000  0.5369940000000 1.0
C      1  0.5022010000000  0.4870320000000  0.3645740000000 1.0
C      1  0.4973120000000  0.4863830000000  0.6349970000000 1.0
C      1  0.5031210000000  0.5132140000000  0.3653280000000 1.0
C      1  0.4968100000000  0.5125640000000  0.6346560000000 1.0
C      1  0.5396730000000  0.5251800000000  0.5817710000000 1.0
C      1  0.4615800000000  0.5249040000000  0.4192750000000 1.0
C      1  0.5399560000000  0.4738610000000  0.5817720000000 1.0
C      1  0.4628520000000  0.4749810000000  0.4198220000000 1.0
C      1  0.5675690000000  0.5133910000000  0.5864690000000 1.0
C      1  0.4340780000000  0.5121090000000  0.4132730000000 1.0
C      1  0.5676040000000  0.4858830000000  0.5865710000000 1.0
C      1  0.4352640000000  0.4848490000000  0.4139120000000 1.0
C      1  0.5426890000000  0.5289910000000  0.4633150000000 1.0
C      1  0.4580210000000  0.5288940000000  0.5372410000000 1.0
C      1  0.5441060000000  0.4678840000000  0.4626840000000 1.0
C      1  0.4576410000000  0.4688700000000  0.5384170000000 1.0
C      1  0.4096620000000  0.5293630000000  0.5533710000000 1.0
C      1  0.5912650000000  0.5300770000000  0.4464910000000 1.0
C      1  0.4100360000000  0.4678760000000  0.5542570000000 1.0
C      1  0.5914790000000  0.4673840000000  0.4460240000000 1.0
C      1  0.4150970000000  0.5140070000000  0.4789420000000 1.0
C      1  0.5856790000000  0.5148530000000  0.5210090000000 1.0
C      1  0.4156720000000  0.4838290000000  0.4793180000000 1.0
C      1  0.5855350000000  0.4843240000000  0.5211030000000 1.0
C      1  0.5869260000000  0.5703360000000  0.5183690000000 1.0
C      1  0.4140250000000  0.5686700000000  0.4810580000000 1.0
C      1  0.5849680000000  0.4295690000000  0.5182490000000 1.0
C      1  0.4171270000000  0.4291140000000  0.4837270000000 1.0
C      1  0.4182100000000  0.5515840000000  0.5687760000000 1.0
C      1  0.5822290000000  0.5521440000000  0.4310040000000 1.0
C      1  0.4189380000000  0.4459910000000  0.5701650000000 1.0
C      1  0.5811340000000  0.4453800000000  0.4304860000000 1.0
C      1  0.5677130000000  0.5134870000000  0.4433550000000 1.0
C      1  0.4335830000000  0.5132820000000  0.5566840000000 1.0
C      1  0.5688140000000  0.4846620000000  0.4428190000000 1.0
C      1  0.4336640000000  0.4842810000000  0.5571830000000 1.0
C      1  0.5271200000000  0.4298710000000  0.4925640000000 1.0
C      1  0.4790550000000  0.4358070000000  0.5090500000000 1.0
C      1  0.5225380000000  0.5635510000000  0.4921290000000 1.0
C      1  0.4776950000000  0.5631620000000  0.5082410000000 1.0
C      1  0.4473460000000  0.5281410000000  0.5112680000000 1.0
C      1  0.5529520000000  0.5281510000000  0.4894660000000 1.0
C      1  0.4479650000000  0.4703680000000  0.5121750000000 1.0
C      1  0.5528380000000  0.4701650000000  0.4893670000000 1.0
C      1  0.4215870000000  0.5141610000000  0.5087770000000 1.0
C      1  0.5792160000000  0.5146930000000  0.4913500000000 1.0
C      1  0.4219010000000  0.4833490000000  0.5089990000000 1.0
C      1  0.5790570000000  0.4836320000000  0.4913920000000 1.0
C      1  0.4593160000000  0.4469430000000  0.4138090000000 1.0
C      1  0.5393030000000  0.4447780000000  0.5860390000000 1.0
C      1  0.4621910000000  0.5538760000000  0.4140160000000 1.0
C      1  0.5383790000000  0.5541750000000  0.5863080000000 1.0
C      1  0.5550230000000  0.4098260000000  0.4450610000000 1.0
C      1  0.4436450000000  0.4100240000000  0.5556800000000 1.0
C      1  0.5574370000000  0.5873860000000  0.4468590000000 1.0
C      1  0.4424080000000  0.5871290000000  0.5532260000000 1.0
C      1  0.5292810000000  0.4478820000000  0.4150230000000 1.0
C      1  0.4706160000000  0.4470720000000  0.5850120000000 1.0
C      1  0.5305940000000  0.5512120000000  0.4165480000000 1.0
C      1  0.4697150000000  0.5513300000000  0.5839990000000 1.0
C      1  0.4197770000000  0.4101330000000  0.5060420000000 1.0
C      1  0.5765810000000  0.4143280000000  0.4953900000000 1.0
C      1  0.4166750000000  0.5873420000000  0.5040370000000 1.0
C      1  0.5836650000000  0.5885360000000  0.4952160000000 1.0
C      1  0.3913520000000  0.4685630000000  0.4713660000000 1.0
C      1  0.6108350000000  0.4706120000000  0.5286290000000 1.0
C      1  0.3897140000000  0.5256930000000  0.4701560000000 1.0
C      1  0.6112080000000  0.5278420000000  0.5286080000000 1.0
C      1  0.4013150000000  0.4685060000000  0.5275120000000 1.0
C      1  0.5999920000000  0.4683110000000  0.4729590000000 1.0
C      1  0.4007000000000  0.5282820000000  0.5266630000000 1.0
C      1  0.6000590000000  0.5291280000000  0.4732320000000 1.0
C      1  0.5045740000000  0.6001700000000  0.5263300000000 1.0
C      1  0.4953640000000  0.6001450000000  0.4739550000000 1.0
C      1  0.5046570000000  0.3977670000000  0.5263540000000 1.0
C      1  0.4917990000000  0.4011610000000  0.4725270000000 1.0
C      1  0.5826020000000  0.5750210000000  0.4477280000000 1.0
C      1  0.4174130000000  0.5743170000000  0.5518330000000 1.0
C      1  0.5799250000000  0.4223360000000  0.4472690000000 1.0
C      1  0.4185580000000  0.4226770000000  0.5540940000000 1.0
C      1  0.3922600000000  0.5090920000000  0.4440200000000 1.0
C      1  0.6104070000000  0.5137440000000  0.5550210000000 1.0
C      1  0.3929250000000  0.4791210000000  0.4443280000000 1.0
C      1  0.6103680000000  0.4847190000000  0.5550070000000 1.0
C      1  0.4633050000000  0.4545490000000  0.4923580000000 1.0
C      1  0.5391070000000  0.4528410000000  0.5095660000000 1.0
C      1  0.4612940000000  0.5452640000000  0.4913310000000 1.0
C      1  0.5392540000000  0.5461200000000  0.5090040000000 1.0
C      1  0.5557190000000  0.5677120000000  0.5710970000000 1.0
C      1  0.4446090000000  0.5671820000000  0.4291420000000 1.0
C      1  0.5559680000000  0.4306190000000  0.5705060000000 1.0
C      1  0.4365460000000  0.4399110000000  0.4279950000000 1.0
C      1  0.4996640000000  0.5302200000000  0.3858150000000 1.0
C      1  0.5009580000000  0.5296780000000  0.6142980000000 1.0
C      1  0.4982360000000  0.4699570000000  0.3849310000000 1.0
C      1  0.5018640000000  0.4690550000000  0.6149370000000 1.0
C      1  0.4866540000000  0.4099890000000  0.4261330000000 1.0
C      1  0.5112630000000  0.4080500000000  0.5731330000000 1.0
C      1  0.4900220000000  0.5908940000000  0.4274250000000 1.0
C      1  0.5099890000000  0.5907710000000  0.5726760000000 1.0
C      1  0.4415660000000  0.4568760000000  0.5889790000000 1.0
C      1  0.5590790000000  0.4568980000000  0.4117310000000 1.0
C      1  0.4409360000000  0.5413090000000  0.5878960000000 1.0
C      1  0.5595790000000  0.5415080000000  0.4121950000000 1.0
C      1  0.4780050000000  0.5122330000000  0.5498880000000 1.0
C      1  0.5236440000000  0.5117290000000  0.4501180000000 1.0
C      1  0.4777630000000  0.4856320000000  0.5506880000000 1.0
C      1  0.5232610000000  0.4844880000000  0.4505920000000 1.0
C      1  0.4859300000000  0.5694460000000  0.4083170000000 1.0
C      1  0.5143350000000  0.5693410000000  0.5918810000000 1.0
C      1  0.4827130000000  0.4311060000000  0.4072950000000 1.0
C      1  0.5155600000000  0.4295040000000  0.5923290000000 1.0
C      1  0.4599110000000  0.4841610000000  0.4516250000000 1.0
C      1  0.5412050000000  0.4833650000000  0.5483820000000 1.0
C      1  0.4591030000000  0.5159500000000  0.4509200000000 1.0
C      1  0.5414580000000  0.5161530000000  0.5484960000000 1.0
C      1  0.4518330000000  0.6056740000000  0.5333610000000 1.0
C      1  0.5480080000000  0.6060790000000  0.4665760000000 1.0
C      1  0.4530340000000  0.3912450000000  0.5359700000000 1.0
C      1  0.5425840000000  0.3949850000000  0.4663720000000 1.0
C      1  0.5055490000000  0.4440350000000  0.3951040000000 1.0
C      1  0.4935700000000  0.4432580000000  0.6047420000000 1.0
C      1  0.5080660000000  0.5557050000000  0.3963750000000 1.0
C      1  0.4923700000000  0.5552870000000  0.6038750000000 1.0
C      1  0.4411090000000  0.4428510000000  0.4722150000000 1.0
C      1  0.5616090000000  0.4414690000000  0.5304980000000 1.0
C      1  0.4391060000000  0.5570310000000  0.4700570000000 1.0
C      1  0.5623380000000  0.5585080000000  0.5297570000000 1.0
C      1  0.5641480000000  0.5132690000000  0.4121690000000 1.0
C      1  0.4369180000000  0.5130860000000  0.5878290000000 1.0
C      1  0.5644270000000  0.4850830000000  0.4121210000000 1.0
C      1  0.4370880000000  0.4850770000000  0.5882250000000 1.0
C      1  0.6089420000000  0.4449140000000  0.4849450000000 1.0
C      1  0.3921000000000  0.4452040000000  0.5158770000000 1.0
C      1  0.6097830000000  0.5521770000000  0.4850930000000 1.0
C      1  0.3907140000000  0.5508660000000  0.5141450000000 1.0
C      1  0.4838220000000  0.5972330000000  0.5652720000000 1.0
C      1  0.5161590000000  0.5970830000000  0.4350110000000 1.0
C      1  0.4852360000000  0.4009520000000  0.5665900000000 1.0
C      1  0.5125630000000  0.4029040000000  0.4333110000000 1.0
C      1  0.4669070000000  0.5737760000000  0.5636280000000 1.0
C      1  0.5331190000000  0.5736300000000  0.4369470000000 1.0
C      1  0.4679510000000  0.4241700000000  0.5650000000000 1.0
C      1  0.5315020000000  0.4247350000000  0.4344100000000 1.0
C      1  0.5017040000000  0.4566420000000  0.5458670000000 1.0
C      1  0.5017160000000  0.4612360000000  0.4569470000000 1.0
C      1  0.5017640000000  0.5421610000000  0.5455070000000 1.0
C      1  0.4990830000000  0.5412160000000  0.4551860000000 1.0
C      1  0.3916710000000  0.5503530000000  0.4847030000000 1.0
C      1  0.6094390000000  0.5523770000000  0.5143320000000 1.0
C      1  0.3934290000000  0.4448320000000  0.4867850000000 1.0
C      1  0.6085180000000  0.4458190000000  0.5142700000000 1.0
C      1  0.4719630000000  0.4084040000000  0.4507410000000 1.0
C      1  0.5242910000000  0.4054310000000  0.5470920000000 1.0
C      1  0.4758260000000  0.5937970000000  0.4527920000000 1.0
C      1  0.5243120000000  0.5939340000000  0.5473950000000 1.0
C      1  0.5120680000000  0.5148670000000  0.5890440000000 1.0
C      1  0.4893030000000  0.5152100000000  0.4114700000000 1.0
C      1  0.5122960000000  0.4837910000000  0.5892990000000 1.0
C      1  0.4898160000000  0.4844700000000  0.4112670000000 1.0
C      1  0.5223860000000  0.4679390000000  0.5305470000000 1.0
C      1  0.4800800000000  0.4743600000000  0.4728310000000 1.0
C      1  0.5230040000000  0.5313230000000  0.5308390000000 1.0
C      1  0.4792380000000  0.5266080000000  0.4717540000000 1.0
C      1  0.4815530000000  0.3888760000000  0.5408830000000 1.0
C      1  0.5151140000000  0.3923410000000  0.4594750000000 1.0
C      1  0.4803580000000  0.6087120000000  0.5392200000000 1.0
C      1  0.5194740000000  0.6087760000000  0.4609830000000 1.0
C      1  0.5928630000000  0.4225560000000  0.4738080000000 1.0
C      1  0.4055770000000  0.4226870000000  0.5279050000000 1.0
C      1  0.5967090000000  0.5750910000000  0.4733430000000 1.0
C      1  0.4035660000000  0.5739650000000  0.5258950000000 1.0
C      1  0.5654710000000  0.6079380000000  0.4879120000000 1.0
C      1  0.4344890000000  0.6070050000000  0.5118040000000 1.0
C      1  0.5489680000000  0.4077780000000  0.4905490000000 1.0
C      1  0.4369380000000  0.3900500000000  0.5136330000000 1.0
C      1  0.5096350000000  0.5276920000000  0.4311350000000 1.0
C      1  0.4916580000000  0.5278620000000  0.5692190000000 1.0
C      1  0.5102490000000  0.4707640000000  0.4293850000000 1.0
C      1  0.4917760000000  0.4704540000000  0.5700450000000 1.0
C      1  0.4517770000000  0.5785690000000  0.4524060000000 1.0
C      1  0.5487240000000  0.5792530000000  0.5478120000000 1.0
C      1  0.4486560000000  0.4252890000000  0.4500810000000 1.0
C      1  0.5490470000000  0.4192530000000  0.5470310000000 1.0
C      1  0.5683370000000  0.5296790000000  0.5422570000000 1.0
C      1  0.4326430000000  0.5286880000000  0.4575470000000 1.0
C      1  0.5679870000000  0.4699300000000  0.5423840000000 1.0
C      1  0.4344430000000  0.4704790000000  0.4596440000000 1.0
C      1  0.4995400000000  0.4151500000000  0.5000410000000 1.0
C      1  0.5000600000000  0.5826200000000  0.5001970000000 1.0
C      1  0.4892890000000  0.5007250000000  0.4856840000000 1.0
END
