TITL C-22444-4565-4 4.63175662304582 125000 -756.203892260997 0 0 112 (C1) n - 1
REM
REM in /rds/project/t2_vol4/rds-t2-cs072/BORA/CARBON/from-Arr/AIRSS/Generating-Clusters/GAP-ML-2020/Higher-Symm/SD-CG/HFTN-CG
REM
REM
REM
REM
REM
REM ./C.cell (b20cbc046b6831c77cfcea5457e17084)
REM AIRSS Version 0.9.1 bugfix July 2018 build 013d7b7c2542+ Fri, 06 Jul 2018 19:26:36 +0100
REM compiler GCC version 9.3.0
REM options -cpp -mtune=generic -march=x86-64 -g -O0
REM seed -1252805333 1498539649 1863079278 621998222 -2082629585 -347855721 -1409247105 711979127 -1882396673 -1838479804 1354575216 1905728986 -1231105514 232670279 31218252 -1273921168 351201773 1446002390 1442337758 1628051739 785810481 1770600732 -243156629 1625936760 1755113623 449688829 -499113300 2126292754 1702061580 -76488805 819135455 -2031182997 189187188
REM
CELL 1.54180   50.00000   50.00000   50.00000   90.00000   90.00000   90.00000
LATT -1
SFAC C  
C      1  0.5860480000000  0.5322490000000  0.5220620000000 1.0
C      1  0.5348030000000  0.5337380000000  0.5792120000000 1.0
C      1  0.4591200000000  0.5296060000000  0.5823960000000 1.0
C      1  0.4188070000000  0.5353330000000  0.5187470000000 1.0
C      1  0.4339110000000  0.5336450000000  0.4436730000000 1.0
C      1  0.5017200000000  0.5311610000000  0.4101400000000 1.0
C      1  0.5685060000000  0.5342700000000  0.4479490000000 1.0
C      1  0.4564440000000  0.5469010000000  0.4303650000000 1.0
C      1  0.5213410000000  0.5482210000000  0.4232380000000 1.0
C      1  0.5749530000000  0.5486870000000  0.4733680000000 1.0
C      1  0.5686270000000  0.5487510000000  0.5390650000000 1.0
C      1  0.5084170000000  0.5477370000000  0.5801960000000 1.0
C      1  0.4455650000000  0.5464570000000  0.5628920000000 1.0
C      1  0.4293310000000  0.5506210000000  0.4958230000000 1.0
C      1  0.4441830000000  0.5075040000000  0.4962290000000 1.0
C      1  0.4683030000000  0.5061570000000  0.4532400000000 1.0
C      1  0.5162670000000  0.5070830000000  0.4460710000000 1.0
C      1  0.5519500000000  0.5074220000000  0.4797890000000 1.0
C      1  0.5483010000000  0.5071420000000  0.5282340000000 1.0
C      1  0.5081090000000  0.5062670000000  0.5563680000000 1.0
C      1  0.4615940000000  0.5056590000000  0.5423780000000 1.0
C      1  0.5302650000000  0.5303400000000  0.5183730000000 1.0
C      1  0.5046320000000  0.5298430000000  0.5366500000000 1.0
C      1  0.4749450000000  0.5288640000000  0.5278410000000 1.0
C      1  0.4648690000000  0.5315740000000  0.4977860000000 1.0
C      1  0.4793650000000  0.5296690000000  0.4698160000000 1.0
C      1  0.5099000000000  0.5308200000000  0.4653030000000 1.0
C      1  0.5328060000000  0.5305280000000  0.4869180000000 1.0
C      1  0.5739840000000  0.4743330000000  0.4567600000000 1.0
C      1  0.5800890000000  0.4738990000000  0.5311530000000 1.0
C      1  0.5261310000000  0.4732820000000  0.5822090000000 1.0
C      1  0.4518430000000  0.4722160000000  0.5717340000000 1.0
C      1  0.4144200000000  0.4749800000000  0.5072050000000 1.0
C      1  0.4407150000000  0.4739400000000  0.4376890000000 1.0
C      1  0.5124720000000  0.4731300000000  0.4150210000000 1.0
C      1  0.5120920000000  0.5834670000000  0.4657550000000 1.0
C      1  0.5305490000000  0.5804420000000  0.4876530000000 1.0
C      1  0.5251970000000  0.5793320000000  0.5158950000000 1.0
C      1  0.4998790000000  0.5774030000000  0.5299590000000 1.0
C      1  0.4715630000000  0.5737730000000  0.5229440000000 1.0
C      1  0.4679700000000  0.5766590000000  0.4724340000000 1.0
C      1  0.4874210000000  0.5957870000000  0.4713430000000 1.0
C      1  0.4619560000000  0.5009170000000  0.5728080000000 1.0
C      1  0.4210090000000  0.5043840000000  0.5154490000000 1.0
C      1  0.4383630000000  0.5034890000000  0.4471270000000 1.0
C      1  0.5033170000000  0.5020400000000  0.4188460000000 1.0
C      1  0.5649510000000  0.5039680000000  0.4522130000000 1.0
C      1  0.5778550000000  0.5029690000000  0.5214720000000 1.0
C      1  0.5321690000000  0.5032140000000  0.5747250000000 1.0
C      1  0.5464690000000  0.5573370000000  0.5198330000000 1.0
C      1  0.4980580000000  0.5565600000000  0.5525000000000 1.0
C      1  0.4678970000000  0.5547360000000  0.5450250000000 1.0
C      1  0.4567620000000  0.5644270000000  0.4976030000000 1.0
C      1  0.4751020000000  0.5563260000000  0.4516140000000 1.0
C      1  0.5069100000000  0.5583990000000  0.4482420000000 1.0
C      1  0.5501660000000  0.5577010000000  0.4885030000000 1.0
C      1  0.4655550000000  0.4167140000000  0.5094480000000 1.0
C      1  0.4708720000000  0.4169220000000  0.4794270000000 1.0
C      1  0.4980870000000  0.4166720000000  0.4646030000000 1.0
C      1  0.5266610000000  0.4167980000000  0.4765070000000 1.0
C      1  0.5350230000000  0.4167450000000  0.5060550000000 1.0
C      1  0.5171380000000  0.4165270000000  0.5310410000000 1.0
C      1  0.4862010000000  0.4163170000000  0.5325730000000 1.0
C      1  0.5083730000000  0.4884670000000  0.4674040000000 1.0
C      1  0.5303640000000  0.4887530000000  0.4863550000000 1.0
C      1  0.5296370000000  0.4884190000000  0.5156060000000 1.0
C      1  0.5065920000000  0.4879580000000  0.5333920000000 1.0
C      1  0.4782750000000  0.4880340000000  0.5260660000000 1.0
C      1  0.4667670000000  0.4888340000000  0.4993810000000 1.0
C      1  0.4798660000000  0.4884860000000  0.4733800000000 1.0
C      1  0.4551320000000  0.4391200000000  0.4659920000000 1.0
C      1  0.4991830000000  0.4382750000000  0.4437690000000 1.0
C      1  0.5435370000000  0.4388730000000  0.4643160000000 1.0
C      1  0.5551540000000  0.4386880000000  0.5117150000000 1.0
C      1  0.5254100000000  0.4383920000000  0.5503180000000 1.0
C      1  0.4762750000000  0.4378090000000  0.5510640000000 1.0
C      1  0.4450500000000  0.4389080000000  0.5131920000000 1.0
C      1  0.5644900000000  0.4734550000000  0.5548410000000 1.0
C      1  0.4978410000000  0.4719120000000  0.5851250000000 1.0
C      1  0.4319780000000  0.4726460000000  0.5510740000000 1.0
C      1  0.4180470000000  0.4745420000000  0.4792240000000 1.0
C      1  0.4651490000000  0.4725620000000  0.4226660000000 1.0
C      1  0.5390520000000  0.4733320000000  0.4250570000000 1.0
C      1  0.5829360000000  0.4735580000000  0.4837210000000 1.0
C      1  0.5556220000000  0.5036240000000  0.5578610000000 1.0
C      1  0.4900580000000  0.5011210000000  0.5805900000000 1.0
C      1  0.4309790000000  0.5027100000000  0.5426720000000 1.0
C      1  0.4252050000000  0.5046400000000  0.4729200000000 1.0
C      1  0.4745470000000  0.5015430000000  0.4233700000000 1.0
C      1  0.5435440000000  0.5037500000000  0.4327180000000 1.0
C      1  0.5796180000000  0.5029020000000  0.4924120000000 1.0
C      1  0.4324040000000  0.4576330000000  0.4601710000000 1.0
C      1  0.4896730000000  0.4559730000000  0.4223230000000 1.0
C      1  0.5545460000000  0.4572000000000  0.4436090000000 1.0
C      1  0.5780810000000  0.4568270000000  0.5074390000000 1.0
C      1  0.5432890000000  0.4567850000000  0.5657070000000 1.0
C      1  0.4756050000000  0.4552530000000  0.5747000000000 1.0
C      1  0.4261950000000  0.4572050000000  0.5271320000000 1.0
C      1  0.5584320000000  0.5341040000000  0.5629050000000 1.0
C      1  0.4870980000000  0.5301440000000  0.5898500000000 1.0
C      1  0.4255840000000  0.5327590000000  0.5463250000000 1.0
C      1  0.4236260000000  0.5356370000000  0.4702940000000 1.0
C      1  0.4730250000000  0.5303480000000  0.4135970000000 1.0
C      1  0.5472570000000  0.5340220000000  0.4283760000000 1.0
C      1  0.5885350000000  0.5320410000000  0.4931730000000 1.0
C      1  0.4665920000000  0.4575150000000  0.5049070000000 1.0
C      1  0.4755180000000  0.4574520000000  0.4770930000000 1.0
C      1  0.5027860000000  0.4572090000000  0.4664630000000 1.0
C      1  0.5279760000000  0.4574910000000  0.4813240000000 1.0
C      1  0.5321340000000  0.4572840000000  0.5102350000000 1.0
C      1  0.5120760000000  0.4570390000000  0.5315710000000 1.0
C      1  0.4829600000000  0.4567050000000  0.5291160000000 1.0
END
