TITL C-22210-3788-6 -55.5350719195671 125000 -564.183245236537 0 0 81 (C2v) n - 1
REM
REM in /rds/project/t2_vol4/rds-t2-cs072/BORA/CARBON/from-Arr/AIRSS/Generating-Clusters/GAP-ML-2020/Higher-Symm/SD-CG/HFTN-CG
REM
REM
REM
REM
REM
REM ./C.cell (b20cbc046b6831c77cfcea5457e17084)
REM AIRSS Version 0.9.1 bugfix July 2018 build 013d7b7c2542+ Fri, 06 Jul 2018 19:26:36 +0100
REM compiler GCC version 9.3.0
REM options -cpp -mtune=generic -march=x86-64 -g -O0
REM seed -1786442415 -205518818 -954245181 1379973669 -1701383219 -1884542883 1011304986 -209257257 2006712355 41403193 -377851374 -1119461094 -695760870 1852439778 -811223253 -930123677 1538279124 -844798376 -1040674284 -2024574892 171762956 -511262740 -505676181 1697705998 -1399165616 -1624751149 1823173060 -701404087 1523904202 -707794488 1927683807 -100207504 812403710
REM
CELL 1.54180   50.00000   50.00000   50.00000   90.00000   90.00000   90.00000
LATT -1
SFAC C  
C      1  0.5612990000000  0.5251840000000  0.4684860000000 1.0
C      1  0.5595450000000  0.4746620000000  0.5296780000000 1.0
C      1  0.4385700000000  0.5257710000000  0.4683840000000 1.0
C      1  0.4397400000000  0.4752360000000  0.5295790000000 1.0
C      1  0.5612530000000  0.5260970000000  0.5297770000000 1.0
C      1  0.5595900000000  0.4737750000000  0.4701130000000 1.0
C      1  0.4385240000000  0.5266840000000  0.5296750000000 1.0
C      1  0.4397850000000  0.4743490000000  0.4700140000000 1.0
C      1  0.5340850000000  0.4188950000000  0.4877190000000 1.0
C      1  0.5348140000000  0.5799900000000  0.5112980000000 1.0
C      1  0.4647340000000  0.4192270000000  0.4876610000000 1.0
C      1  0.4655070000000  0.5803220000000  0.5112410000000 1.0
C      1  0.5340650000000  0.4192820000000  0.5136760000000 1.0
C      1  0.5348340000000  0.5796030000000  0.4853120000000 1.0
C      1  0.4647140000000  0.4196130000000  0.5136180000000 1.0
C      1  0.4655270000000  0.5799350000000  0.4852550000000 1.0
C      1  0.5282430000000  0.5582630000000  0.4693490000000 1.0
C      1  0.5271140000000  0.4404180000000  0.5295350000000 1.0
C      1  0.4719400000000  0.5585330000000  0.4693030000000 1.0
C      1  0.4718410000000  0.4406820000000  0.5294900000000 1.0
C      1  0.5281980000000  0.5591340000000  0.5278790000000 1.0
C      1  0.5271580000000  0.4395500000000  0.4712260000000 1.0
C      1  0.4718960000000  0.5594040000000  0.5278330000000 1.0
C      1  0.4718850000000  0.4398140000000  0.4711800000000 1.0
C      1  0.5804670000000  0.5141280000000  0.5138200000000 1.0
C      1  0.5799070000000  0.4843930000000  0.4852450000000 1.0
C      1  0.4192220000000  0.5149000000000  0.5136860000000 1.0
C      1  0.4195450000000  0.4851610000000  0.4851120000000 1.0
C      1  0.5804890000000  0.5136960000000  0.4848220000000 1.0
C      1  0.5798850000000  0.4848250000000  0.5142680000000 1.0
C      1  0.4192440000000  0.5144680000000  0.4846880000000 1.0
C      1  0.4195230000000  0.4855930000000  0.5141350000000 1.0
C      1  0.5146250000000  0.5505940000000  0.4452390000000 1.0
C      1  0.5137300000000  0.4479320000000  0.5535820000000 1.0
C      1  0.4855240000000  0.5507340000000  0.4452150000000 1.0
C      1  0.4852570000000  0.4480690000000  0.5535580000000 1.0
C      1  0.5145440000000  0.5521870000000  0.5521870000000 1.0
C      1  0.5138110000000  0.4463450000000  0.4469460000000 1.0
C      1  0.4854430000000  0.5523260000000  0.5521630000000 1.0
C      1  0.4853370000000  0.4464810000000  0.4469230000000 1.0
C      1  0.5520080000000  0.5154350000000  0.5543010000000 1.0
C      1  0.5518780000000  0.4850420000000  0.4453870000000 1.0
C      1  0.4476250000000  0.5159340000000  0.5542150000000 1.0
C      1  0.4476450000000  0.4855410000000  0.4453010000000 1.0
C      1  0.5520910000000  0.5137970000000  0.4442760000000 1.0
C      1  0.5517950000000  0.4866600000000  0.5540460000000 1.0
C      1  0.4477080000000  0.5142960000000  0.4441890000000 1.0
C      1  0.4475630000000  0.4871590000000  0.5539600000000 1.0
C      1  0.5295200000000  0.5304490000000  0.5653060000000 1.0
C      1  0.5259330000000  0.4727700000000  0.4388470000000 1.0
C      1  0.4702380000000  0.5307330000000  0.5652570000000 1.0
C      1  0.4734820000000  0.4730210000000  0.4388030000000 1.0
C      1  0.5296200000000  0.5284760000000  0.4327950000000 1.0
C      1  0.5258410000000  0.4745870000000  0.5609100000000 1.0
C      1  0.4703380000000  0.5287600000000  0.4327460000000 1.0
C      1  0.4733890000000  0.4748380000000  0.5608660000000 1.0
C      1  0.4853560000000  0.4871650000000  0.5829980000000 1.0
C      1  0.4856480000000  0.5134840000000  0.4156840000000 1.0
C      1  0.5139560000000  0.4870280000000  0.5830220000000 1.0
C      1  0.5141930000000  0.5133480000000  0.4157080000000 1.0
C      1  0.4854820000000  0.4846840000000  0.4163320000000 1.0
C      1  0.4855220000000  0.5159720000000  0.5827890000000 1.0
C      1  0.5140820000000  0.4845470000000  0.4163560000000 1.0
C      1  0.5140660000000  0.5158360000000  0.5828130000000 1.0
C      1  0.5336350000000  0.4660890000000  0.5158190000000 1.0
C      1  0.5370700000000  0.5333780000000  0.4830430000000 1.0
C      1  0.4655890000000  0.4664140000000  0.5157620000000 1.0
C      1  0.4628520000000  0.5337330000000  0.4829820000000 1.0
C      1  0.5336590000000  0.4656180000000  0.4841830000000 1.0
C      1  0.5370460000000  0.5338530000000  0.5149460000000 1.0
C      1  0.4656130000000  0.4659430000000  0.4841260000000 1.0
C      1  0.4628280000000  0.5342080000000  0.5148840000000 1.0
C      1  0.4844630000000  0.4837820000000  0.4677590000000 1.0
C      1  0.4842640000000  0.5136070000000  0.5228800000000 1.0
C      1  0.5150080000000  0.4836360000000  0.4677840000000 1.0
C      1  0.5154000000000  0.5134580000000  0.5229060000000 1.0
C      1  0.4844150000000  0.4847330000000  0.5316200000000 1.0
C      1  0.4843000000000  0.5129040000000  0.4756350000000 1.0
C      1  0.5149590000000  0.4845870000000  0.5316450000000 1.0
C      1  0.5154360000000  0.5127550000000  0.4756600000000 1.0
C      1  0.4998460000000  0.5122370000000  0.4992840000000 1.0
END
