TITL C-22182-1903-1 714.976339982532 125000 -966.769644968186 0 0 144 (S8) n - 1
REM
REM in /rds/project/t2_vol4/rds-t2-cs072/BORA/CARBON/from-Arr/AIRSS/Generating-Clusters/GAP-ML-2020/Higher-Symm/SD-CG/HFTN-CG
REM
REM
REM
REM
REM
REM ./C.cell (b20cbc046b6831c77cfcea5457e17084)
REM AIRSS Version 0.9.1 bugfix July 2018 build 013d7b7c2542+ Fri, 06 Jul 2018 19:26:36 +0100
REM compiler GCC version 9.3.0
REM options -cpp -mtune=generic -march=x86-64 -g -O0
REM seed 307558505 1838780500 1303813152 -1262252295 1983486591 -1157327395 -1724780203 1852410645 435593976 14725229 658277791 2023570725 -288956563 -1104944469 60080107 -1440827555 1850739418 -1486740271 -1241210097 1172031861 2054314237 962285617 1690785776 360875786 32273303 887138547 -2130674974 -908081890 -494487886 -140173919 1751794404 1212046064 769618508
REM
CELL 1.54180   50.00000   50.00000   50.00000   90.00000   90.00000   90.00000
LATT -1
SFAC C  
C      1  0.4699640000000  0.5706810000000  0.5546630000000 1.0
C      1  0.5287440000000  0.5712110000000  0.4453290000000 1.0
C      1  0.5706760000000  0.5300360000000  0.5546720000000 1.0
C      1  0.5712170000000  0.4712560000000  0.4453360000000 1.0
C      1  0.5300300000000  0.4293240000000  0.5546740000000 1.0
C      1  0.4712620000000  0.4287840000000  0.4453330000000 1.0
C      1  0.4293180000000  0.4699700000000  0.5546670000000 1.0
C      1  0.4287890000000  0.5287380000000  0.4453260000000 1.0
C      1  0.4829440000000  0.6044240000000  0.5165110000000 1.0
C      1  0.5617800000000  0.5858980000000  0.4834820000000 1.0
C      1  0.6044230000000  0.5170560000000  0.5165220000000 1.0
C      1  0.5858990000000  0.4382200000000  0.4834900000000 1.0
C      1  0.5170540000000  0.3955770000000  0.5165240000000 1.0
C      1  0.4382220000000  0.4141010000000  0.4834840000000 1.0
C      1  0.3955750000000  0.4829460000000  0.5165120000000 1.0
C      1  0.4141030000000  0.5617780000000  0.4834740000000 1.0
C      1  0.5889010000000  0.5535100000000  0.5113860000000 1.0
C      1  0.6007010000000  0.4749740000000  0.4886230000000 1.0
C      1  0.5535090000000  0.4111000000000  0.5113910000000 1.0
C      1  0.4749750000000  0.3993010000000  0.4886200000000 1.0
C      1  0.4110980000000  0.4464910000000  0.5113810000000 1.0
C      1  0.3993010000000  0.5250260000000  0.4886090000000 1.0
C      1  0.4464900000000  0.5889020000000  0.5113760000000 1.0
C      1  0.5250260000000  0.6006980000000  0.4886130000000 1.0
C      1  0.5348040000000  0.5002030000000  0.5498520000000 1.0
C      1  0.5247570000000  0.4755280000000  0.4501530000000 1.0
C      1  0.5001990000000  0.4651980000000  0.5498520000000 1.0
C      1  0.4755340000000  0.4752440000000  0.4501500000000 1.0
C      1  0.4651910000000  0.4998020000000  0.5498480000000 1.0
C      1  0.4752490000000  0.5244660000000  0.4501480000000 1.0
C      1  0.4997950000000  0.5348080000000  0.5498480000000 1.0
C      1  0.5244720000000  0.5247510000000  0.4501500000000 1.0
C      1  0.4532850000000  0.5418810000000  0.4934900000000 1.0
C      1  0.4965810000000  0.5626470000000  0.5065020000000 1.0
C      1  0.5418810000000  0.5467150000000  0.4934960000000 1.0
C      1  0.5626480000000  0.5034190000000  0.5065080000000 1.0
C      1  0.5467160000000  0.4581190000000  0.4935000000000 1.0
C      1  0.5034180000000  0.4373540000000  0.5065090000000 1.0
C      1  0.4581190000000  0.4532850000000  0.4934960000000 1.0
C      1  0.4373520000000  0.4965820000000  0.5065010000000 1.0
C      1  0.4996400000000  0.5331970000000  0.4392420000000 1.0
C      1  0.5232130000000  0.5237340000000  0.5607570000000 1.0
C      1  0.5332030000000  0.5003600000000  0.4392460000000 1.0
C      1  0.5237320000000  0.4767820000000  0.5607580000000 1.0
C      1  0.5003670000000  0.4667960000000  0.4392460000000 1.0
C      1  0.4767800000000  0.4762730000000  0.5607570000000 1.0
C      1  0.4668040000000  0.4996330000000  0.4392420000000 1.0
C      1  0.4762610000000  0.5232240000000  0.5607520000000 1.0
C      1  0.5376310000000  0.5885250000000  0.4655130000000 1.0
C      1  0.5892040000000  0.5359920000000  0.5344880000000 1.0
C      1  0.5885290000000  0.4623700000000  0.4655220000000 1.0
C      1  0.5359890000000  0.4107960000000  0.5344910000000 1.0
C      1  0.4623730000000  0.4114710000000  0.4655180000000 1.0
C      1  0.4107920000000  0.4640110000000  0.5344810000000 1.0
C      1  0.4114750000000  0.5376270000000  0.4655080000000 1.0
C      1  0.4640080000000  0.5892070000000  0.5344780000000 1.0
C      1  0.5252000000000  0.4701090000000  0.4795250000000 1.0
C      1  0.4966810000000  0.4610480000000  0.5204800000000 1.0
C      1  0.4701100000000  0.4748010000000  0.4795220000000 1.0
C      1  0.4610450000000  0.5033190000000  0.5204750000000 1.0
C      1  0.4748030000000  0.5298890000000  0.4795200000000 1.0
C      1  0.5033170000000  0.5389540000000  0.5204760000000 1.0
C      1  0.5298920000000  0.5251970000000  0.4795230000000 1.0
C      1  0.5389530000000  0.4966830000000  0.5204800000000 1.0
C      1  0.4449670000000  0.4874510000000  0.4812160000000 1.0
C      1  0.4522110000000  0.5300430000000  0.5187770000000 1.0
C      1  0.4874540000000  0.5550320000000  0.4812150000000 1.0
C      1  0.5300410000000  0.5477880000000  0.5187810000000 1.0
C      1  0.5550350000000  0.5125470000000  0.4812210000000 1.0
C      1  0.5477870000000  0.4699590000000  0.5187850000000 1.0
C      1  0.5125490000000  0.4449660000000  0.4812230000000 1.0
C      1  0.4699560000000  0.4522140000000  0.5187830000000 1.0
C      1  0.4677000000000  0.4624210000000  0.5851490000000 1.0
C      1  0.4505930000000  0.4962560000000  0.4148470000000 1.0
C      1  0.4624100000000  0.5322990000000  0.5851480000000 1.0
C      1  0.4962650000000  0.5494080000000  0.4148470000000 1.0
C      1  0.5322900000000  0.5375870000000  0.5851500000000 1.0
C      1  0.5494170000000  0.5037360000000  0.4148520000000 1.0
C      1  0.5375800000000  0.4677090000000  0.5851560000000 1.0
C      1  0.5037450000000  0.4505840000000  0.4148520000000 1.0
C      1  0.4824810000000  0.5474940000000  0.6001810000000 1.0
C      1  0.5212030000000  0.5459580000000  0.3998150000000 1.0
C      1  0.5474840000000  0.5175170000000  0.6001860000000 1.0
C      1  0.5459690000000  0.4787980000000  0.3998190000000 1.0
C      1  0.5175070000000  0.4525150000000  0.6001880000000 1.0
C      1  0.4788090000000  0.4540320000000  0.3998170000000 1.0
C      1  0.4525050000000  0.4824930000000  0.6001820000000 1.0
C      1  0.4540420000000  0.5211920000000  0.3998120000000 1.0
C      1  0.4659890000000  0.5426450000000  0.4107710000000 1.0
C      1  0.5061000000000  0.5542150000000  0.5892220000000 1.0
C      1  0.5426550000000  0.5340110000000  0.4107760000000 1.0
C      1  0.5542060000000  0.4938990000000  0.5892280000000 1.0
C      1  0.5340210000000  0.4573460000000  0.4107790000000 1.0
C      1  0.4938900000000  0.4457940000000  0.5892270000000 1.0
C      1  0.4573550000000  0.4659800000000  0.4107750000000 1.0
C      1  0.4457840000000  0.5061100000000  0.5892210000000 1.0
C      1  0.5231630000000  0.4295020000000  0.4561820000000 1.0
C      1  0.4665260000000  0.4337770000000  0.5438260000000 1.0
C      1  0.4295060000000  0.4768360000000  0.4561730000000 1.0
C      1  0.4337710000000  0.5334730000000  0.5438180000000 1.0
C      1  0.4768420000000  0.5704940000000  0.4561720000000 1.0
C      1  0.5334690000000  0.5662270000000  0.5438230000000 1.0
C      1  0.5704980000000  0.5231600000000  0.4561790000000 1.0
C      1  0.5662240000000  0.4665320000000  0.5438290000000 1.0
C      1  0.4525170000000  0.4532520000000  0.5612930000000 1.0
C      1  0.4333730000000  0.5005110000000  0.4387040000000 1.0
C      1  0.4532470000000  0.5474800000000  0.5612860000000 1.0
C      1  0.5005180000000  0.5666260000000  0.4387050000000 1.0
C      1  0.5474760000000  0.5467540000000  0.5612940000000 1.0
C      1  0.5666330000000  0.4994830000000  0.4387110000000 1.0
C      1  0.5467460000000  0.4525260000000  0.5612960000000 1.0
C      1  0.4994890000000  0.4333680000000  0.4387110000000 1.0
C      1  0.4109970000000  0.4599620000000  0.4707320000000 1.0
C      1  0.4087520000000  0.5346270000000  0.5292570000000 1.0
C      1  0.4599650000000  0.5890030000000  0.4707290000000 1.0
C      1  0.5346240000000  0.5912470000000  0.5292620000000 1.0
C      1  0.5890060000000  0.5400350000000  0.4707380000000 1.0
C      1  0.5912450000000  0.4653760000000  0.5292710000000 1.0
C      1  0.5400380000000  0.4109940000000  0.4707420000000 1.0
C      1  0.4653730000000  0.4087560000000  0.5292670000000 1.0
C      1  0.4506010000000  0.4018020000000  0.5060710000000 1.0
C      1  0.3956330000000  0.4654930000000  0.4939280000000 1.0
C      1  0.4018000000000  0.5493990000000  0.5060600000000 1.0
C      1  0.4654940000000  0.6043670000000  0.4939250000000 1.0
C      1  0.5493980000000  0.5981990000000  0.5060660000000 1.0
C      1  0.6043680000000  0.5345070000000  0.4939360000000 1.0
C      1  0.5981990000000  0.4506010000000  0.5060760000000 1.0
C      1  0.5345070000000  0.3956320000000  0.4939390000000 1.0
C      1  0.4559960000000  0.5449800000000  0.4395950000000 1.0
C      1  0.5006870000000  0.5629290000000  0.5603970000000 1.0
C      1  0.5449870000000  0.5440040000000  0.4396000000000 1.0
C      1  0.5629230000000  0.4993130000000  0.5604040000000 1.0
C      1  0.5440110000000  0.4550130000000  0.4396050000000 1.0
C      1  0.4993060000000  0.4370780000000  0.5604030000000 1.0
C      1  0.4550200000000  0.4559900000000  0.4396000000000 1.0
C      1  0.4370700000000  0.5006930000000  0.5603960000000 1.0
C      1  0.5080600000000  0.5911270000000  0.5110440000000 1.0
C      1  0.5701370000000  0.5587360000000  0.4889540000000 1.0
C      1  0.5911270000000  0.4919400000000  0.5110530000000 1.0
C      1  0.5587370000000  0.4298630000000  0.4889590000000 1.0
C      1  0.4919390000000  0.4088740000000  0.5110520000000 1.0
C      1  0.4298640000000  0.4412630000000  0.4889520000000 1.0
C      1  0.4088720000000  0.5080610000000  0.5110410000000 1.0
C      1  0.4412640000000  0.5701360000000  0.4889460000000 1.0
END
