TITL C-22168-1968-3 25.9635463223153 125000 -749.621293002584 0 0 108 (C1) n - 1
REM
REM in /rds/project/t2_vol4/rds-t2-cs072/BORA/CARBON/from-Arr/AIRSS/Generating-Clusters/GAP-ML-2020/Higher-Symm/SD-CG/HFTN-CG
REM
REM
REM
REM
REM
REM ./C.cell (b20cbc046b6831c77cfcea5457e17084)
REM AIRSS Version 0.9.1 bugfix July 2018 build 013d7b7c2542+ Fri, 06 Jul 2018 19:26:36 +0100
REM compiler GCC version 9.3.0
REM options -cpp -mtune=generic -march=x86-64 -g -O0
REM seed -442337440 649048942 -1728600039 -2031205355 -1178845852 -1338328298 -377765389 -1338630276 1888638187 -95173765 214698204 737742535 -947423256 1983633238 1619115813 1725978826 896702513 -1859982394 1070405582 -430616078 488484171 -1930902975 1336357927 -1268448683 -1002799958 1219023643 2067585850 2021619715 -1264239360 1903094187 1314081639 -1389076288 -1535902093
REM
CELL 1.54180   50.00000   50.00000   50.00000   90.00000   90.00000   90.00000
LATT -1
SFAC C  
C      1  0.5418940000000  0.5779570000000  0.4741840000000 1.0
C      1  0.5429590000000  0.5426760000000  0.4281280000000 1.0
C      1  0.5454540000000  0.5160960000000  0.4182280000000 1.0
C      1  0.5348910000000  0.4598210000000  0.4292570000000 1.0
C      1  0.5421710000000  0.4374230000000  0.4455340000000 1.0
C      1  0.5370250000000  0.4188330000000  0.4973670000000 1.0
C      1  0.5445580000000  0.4216280000000  0.5252110000000 1.0
C      1  0.5372430000000  0.4575220000000  0.5697990000000 1.0
C      1  0.5446270000000  0.4833720000000  0.5809470000000 1.0
C      1  0.5377920000000  0.5397820000000  0.5723620000000 1.0
C      1  0.5447330000000  0.5623310000000  0.5552640000000 1.0
C      1  0.5343570000000  0.5803700000000  0.5016460000000 1.0
C      1  0.5018340000000  0.4835590000000  0.4044060000000 1.0
C      1  0.4990520000000  0.4362470000000  0.4243590000000 1.0
C      1  0.5015920000000  0.4091230000000  0.4653050000000 1.0
C      1  0.4999840000000  0.4057790000000  0.5156970000000 1.0
C      1  0.5018690000000  0.4256100000000  0.5615280000000 1.0
C      1  0.4999560000000  0.4666260000000  0.5911030000000 1.0
C      1  0.5020380000000  0.5165760000000  0.5946820000000 1.0
C      1  0.4998320000000  0.5624120000000  0.5747850000000 1.0
C      1  0.5011010000000  0.5909710000000  0.5340580000000 1.0
C      1  0.4990830000000  0.5966230000000  0.4829600000000 1.0
C      1  0.5035060000000  0.5736340000000  0.4392920000000 1.0
C      1  0.5016520000000  0.5335620000000  0.4101380000000 1.0
C      1  0.5133130000000  0.4049990000000  0.4909210000000 1.0
C      1  0.5157870000000  0.4211710000000  0.5353870000000 1.0
C      1  0.5132170000000  0.4451630000000  0.5785140000000 1.0
C      1  0.5158960000000  0.4914180000000  0.5868060000000 1.0
C      1  0.5135520000000  0.5411950000000  0.5871030000000 1.0
C      1  0.5157430000000  0.5712950000000  0.5512530000000 1.0
C      1  0.5118620000000  0.5956000000000  0.5084130000000 1.0
C      1  0.5162520000000  0.5853680000000  0.4621460000000 1.0
C      1  0.5165900000000  0.5537500000000  0.4232220000000 1.0
C      1  0.5165660000000  0.5083210000000  0.4134540000000 1.0
C      1  0.5122090000000  0.4585910000000  0.4127400000000 1.0
C      1  0.5158220000000  0.4234660000000  0.4446380000000 1.0
C      1  0.4486230000000  0.5225190000000  0.5499390000000 1.0
C      1  0.4413510000000  0.5489920000000  0.5345870000000 1.0
C      1  0.4476950000000  0.5564020000000  0.5055660000000 1.0
C      1  0.4419750000000  0.5542280000000  0.4753310000000 1.0
C      1  0.4493270000000  0.5312220000000  0.4558140000000 1.0
C      1  0.4421180000000  0.5053340000000  0.4397490000000 1.0
C      1  0.4477650000000  0.4764240000000  0.4476290000000 1.0
C      1  0.4415660000000  0.4518760000000  0.4646630000000 1.0
C      1  0.4492080000000  0.4464930000000  0.4947820000000 1.0
C      1  0.4418340000000  0.4460130000000  0.5255600000000 1.0
C      1  0.4477280000000  0.4671140000000  0.5466560000000 1.0
C      1  0.4416640000000  0.4939750000000  0.5599940000000 1.0
C      1  0.4601540000000  0.4500480000000  0.5702350000000 1.0
C      1  0.4584910000000  0.4920250000000  0.5851740000000 1.0
C      1  0.4607340000000  0.5348450000000  0.5763020000000 1.0
C      1  0.4577090000000  0.5698560000000  0.5494950000000 1.0
C      1  0.4595680000000  0.5853350000000  0.5084030000000 1.0
C      1  0.4586600000000  0.5769150000000  0.4644620000000 1.0
C      1  0.4617530000000  0.5483440000000  0.4318980000000 1.0
C      1  0.4590700000000  0.5080610000000  0.4145890000000 1.0
C      1  0.4599510000000  0.4644930000000  0.4212830000000 1.0
C      1  0.4575990000000  0.4306570000000  0.4503320000000 1.0
C      1  0.4605860000000  0.4172830000000  0.4917520000000 1.0
C      1  0.4583580000000  0.4228920000000  0.5358250000000 1.0
C      1  0.4732920000000  0.5324000000000  0.4122990000000 1.0
C      1  0.4731570000000  0.4847420000000  0.4064500000000 1.0
C      1  0.4706500000000  0.4390280000000  0.4266080000000 1.0
C      1  0.4728510000000  0.4134830000000  0.4669000000000 1.0
C      1  0.4718720000000  0.4085180000000  0.5157410000000 1.0
C      1  0.4731210000000  0.4272700000000  0.5598050000000 1.0
C      1  0.4717150000000  0.4673100000000  0.5891570000000 1.0
C      1  0.4736180000000  0.5151640000000  0.5914450000000 1.0
C      1  0.4717510000000  0.5601220000000  0.5719900000000 1.0
C      1  0.4723060000000  0.5883070000000  0.5334510000000 1.0
C      1  0.4707150000000  0.5934520000000  0.4838820000000 1.0
C      1  0.4746200000000  0.5708430000000  0.4417310000000 1.0
C      1  0.5160010000000  0.5051300000000  0.4476110000000 1.0
C      1  0.5301840000000  0.4794240000000  0.4525210000000 1.0
C      1  0.5168440000000  0.4650300000000  0.4743500000000 1.0
C      1  0.5300630000000  0.4499530000000  0.4947870000000 1.0
C      1  0.5159590000000  0.4532980000000  0.5216140000000 1.0
C      1  0.5301020000000  0.4697600000000  0.5420260000000 1.0
C      1  0.5158950000000  0.4953230000000  0.5518360000000 1.0
C      1  0.5298750000000  0.5214520000000  0.5481690000000 1.0
C      1  0.5156330000000  0.5426870000000  0.5321010000000 1.0
C      1  0.5298740000000  0.5498050000000  0.5070000000000 1.0
C      1  0.5163810000000  0.5363680000000  0.4848070000000 1.0
C      1  0.5290650000000  0.5259830000000  0.4631400000000 1.0
C      1  0.5595230000000  0.4692070000000  0.5388600000000 1.0
C      1  0.5643600000000  0.4925200000000  0.5564000000000 1.0
C      1  0.5591670000000  0.5183970000000  0.5454500000000 1.0
C      1  0.5644430000000  0.5450600000000  0.5339100000000 1.0
C      1  0.5595140000000  0.5481700000000  0.5062090000000 1.0
C      1  0.5620670000000  0.5547500000000  0.4769510000000 1.0
C      1  0.5561020000000  0.5343930000000  0.4554310000000 1.0
C      1  0.5642880000000  0.5068980000000  0.4416460000000 1.0
C      1  0.5598110000000  0.4818720000000  0.4537560000000 1.0
C      1  0.5641920000000  0.4546930000000  0.4647230000000 1.0
C      1  0.5597430000000  0.4512760000000  0.4924430000000 1.0
C      1  0.5644900000000  0.4471630000000  0.5213180000000 1.0
C      1  0.4768380000000  0.4789500000000  0.4543320000000 1.0
C      1  0.4897060000000  0.4654350000000  0.4738930000000 1.0
C      1  0.4744080000000  0.4616690000000  0.4961780000000 1.0
C      1  0.4895840000000  0.4629020000000  0.5186690000000 1.0
C      1  0.4763170000000  0.4716700000000  0.5404560000000 1.0
C      1  0.4893770000000  0.4949870000000  0.5426130000000 1.0
C      1  0.4739500000000  0.5163500000000  0.5360820000000 1.0
C      1  0.4885560000000  0.5369040000000  0.5264800000000 1.0
C      1  0.4764670000000  0.5490270000000  0.5054100000000 1.0
C      1  0.4893250000000  0.5377500000000  0.4846380000000 1.0
C      1  0.4739970000000  0.5216340000000  0.4687460000000 1.0
C      1  0.4887300000000  0.5032520000000  0.4551280000000 1.0
END
