TITL C-22173-1915-6 -0.0613800289662678 125000 -315.173951101134 0 0 48 (C1) n - 1
REM
REM in /rds/project/t2_vol4/rds-t2-cs072/BORA/CARBON/from-Arr/AIRSS/Generating-Clusters/GAP-ML-2020/Higher-Symm/SD-CG/HFTN-CG
REM
REM
REM
REM
REM
REM ./C.cell (b20cbc046b6831c77cfcea5457e17084)
REM AIRSS Version 0.9.1 bugfix July 2018 build 013d7b7c2542+ Fri, 06 Jul 2018 19:26:36 +0100
REM compiler GCC version 9.3.0
REM options -cpp -mtune=generic -march=x86-64 -g -O0
REM seed 218933639 973460821 847439806 934256128 406718286 -749392176 2035894954 -1301017571 -328511474 1827333453 1324497605 -1939732405 -552399888 1752392938 -2139895495 5267874 653612438 -397140764 -2018279370 -1022185300 -1006297142 -810586439 1892697815 -1956181071 -817448916 490641574 -1287578251 -1612618888 505793412 2035649657 -1926947259 -507889576 -497147971
REM
CELL 1.54180   50.00000   50.00000   50.00000   90.00000   90.00000   90.00000
LATT -1
SFAC C  
C      1  0.5439620000000  0.5451370000000  0.4841080000000 1.0
C      1  0.5513070000000  0.4597250000000  0.5172180000000 1.0
C      1  0.5496950000000  0.5326420000000  0.5070450000000 1.0
C      1  0.5494860000000  0.4599970000000  0.4901220000000 1.0
C      1  0.5148410000000  0.4437110000000  0.4590700000000 1.0
C      1  0.5154190000000  0.5602870000000  0.5319090000000 1.0
C      1  0.5106810000000  0.4407500000000  0.5353220000000 1.0
C      1  0.5061230000000  0.5648300000000  0.4556570000000 1.0
C      1  0.4572680000000  0.4918080000000  0.5210300000000 1.0
C      1  0.4567970000000  0.5367290000000  0.4955280000000 1.0
C      1  0.4561870000000  0.4698320000000  0.4874640000000 1.0
C      1  0.4597950000000  0.5192630000000  0.5183210000000 1.0
C      1  0.5035120000000  0.4279230000000  0.5102800000000 1.0
C      1  0.4981160000000  0.5831230000000  0.4778230000000 1.0
C      1  0.5041410000000  0.4262110000000  0.4811060000000 1.0
C      1  0.5030480000000  0.5703930000000  0.5053740000000 1.0
C      1  0.4836500000000  0.5258610000000  0.5335450000000 1.0
C      1  0.4812690000000  0.4798610000000  0.4708650000000 1.0
C      1  0.4757480000000  0.5323570000000  0.4732570000000 1.0
C      1  0.4833730000000  0.4811160000000  0.5341350000000 1.0
C      1  0.4758280000000  0.4368110000000  0.5166550000000 1.0
C      1  0.4707540000000  0.5767560000000  0.4739950000000 1.0
C      1  0.4787130000000  0.4334770000000  0.4705850000000 1.0
C      1  0.4767120000000  0.5710250000000  0.5196940000000 1.0
C      1  0.4876560000000  0.5546420000000  0.5398260000000 1.0
C      1  0.4873160000000  0.4541090000000  0.4531570000000 1.0
C      1  0.4775810000000  0.5565610000000  0.4548510000000 1.0
C      1  0.4833810000000  0.4517070000000  0.5395220000000 1.0
C      1  0.5309160000000  0.4925860000000  0.4585610000000 1.0
C      1  0.5225350000000  0.5117270000000  0.5512080000000 1.0
C      1  0.5291200000000  0.4863110000000  0.5535150000000 1.0
C      1  0.5147960000000  0.5136590000000  0.4572540000000 1.0
C      1  0.5278440000000  0.4639770000000  0.5342420000000 1.0
C      1  0.5214180000000  0.5415920000000  0.4678720000000 1.0
C      1  0.5287490000000  0.4662510000000  0.4709120000000 1.0
C      1  0.5290740000000  0.5356660000000  0.5295690000000 1.0
C      1  0.5064950000000  0.5242260000000  0.5122550000000 1.0
C      1  0.5047550000000  0.4725830000000  0.4888090000000 1.0
C      1  0.5010170000000  0.5425190000000  0.4915660000000 1.0
C      1  0.5077960000000  0.4782430000000  0.5161850000000 1.0
C      1  0.4634890000000  0.4428160000000  0.4925450000000 1.0
C      1  0.4583360000000  0.5653320000000  0.4988800000000 1.0
C      1  0.4870770000000  0.5076300000000  0.4630590000000 1.0
C      1  0.4940240000000  0.5043230000000  0.5501510000000 1.0
C      1  0.5192710000000  0.5004430000000  0.5036220000000 1.0
C      1  0.4385980000000  0.4786130000000  0.5060720000000 1.0
C      1  0.5477130000000  0.5042660000000  0.5033300000000 1.0
C      1  0.5628500000000  0.4811030000000  0.5033920000000 1.0
END
