TITL C-22183-9205-2 720.904157921991 125000 -1209.62059410618 0 0 172 (Ci) n - 1
REM
REM in /rds/project/t2_vol4/rds-t2-cs072/BORA/CARBON/from-Arr/AIRSS/Generating-Clusters/GAP-ML-2020/Higher-Symm/SD-CG/HFTN-CG/C160-200
REM
REM
REM
REM
REM
REM ./C.cell (6b4489405718ea1b717e0baf1da4c2d9)
REM AIRSS Version 0.9.1 bugfix July 2018 build 013d7b7c2542+ Fri, 06 Jul 2018 19:26:36 +0100
REM compiler GCC version 9.3.0
REM options -cpp -mtune=generic -march=x86-64 -g -O0
REM seed 1685519301 -187209019 1734758652 -927916559 -877812272 130987644 -1648050229 306285178 -1236521361 1283064675 -864909120 1045349120 -1905919656 1874356399 1397707892 -1238735717 -1335315149 -1840331093 -2101162823 -1145120635 1457065826 -1685910536 1295092573 317133137 -2059088927 -1712280730 276778307 -1632240583 -1925795617 373216170 -869589372 2114777652 1012310855
REM
CELL 1.54180   50.00000   50.00000   50.00000   90.00000   90.00000   90.00000
LATT -1
SFAC C  
C      1  0.4604540000000  0.5483860000000  0.4752620000000 1.0
C      1  0.5395460000000  0.4516140000000  0.5247380000000 1.0
C      1  0.6170280000000  0.5321500000000  0.5447990000000 1.0
C      1  0.3829720000000  0.4678490000000  0.4552010000000 1.0
C      1  0.4801290000000  0.5165100000000  0.5464850000000 1.0
C      1  0.5198710000000  0.4834900000000  0.4535150000000 1.0
C      1  0.5031950000000  0.4235210000000  0.5467820000000 1.0
C      1  0.4968050000000  0.5764790000000  0.4532180000000 1.0
C      1  0.5203640000000  0.4999400000000  0.3908850000000 1.0
C      1  0.4796360000000  0.5000600000000  0.6091150000000 1.0
C      1  0.5878890000000  0.5301290000000  0.4424300000000 1.0
C      1  0.4121110000000  0.4698710000000  0.5575700000000 1.0
C      1  0.4779840000000  0.4778670000000  0.5884960000000 1.0
C      1  0.5220160000000  0.5221330000000  0.4115040000000 1.0
C      1  0.4841040000000  0.5648100000000  0.5875950000000 1.0
C      1  0.5158960000000  0.4351900000000  0.4124050000000 1.0
C      1  0.4836530000000  0.4112070000000  0.4454480000000 1.0
C      1  0.5163470000000  0.5887930000000  0.5545520000000 1.0
C      1  0.6007020000000  0.5375340000000  0.5233010000000 1.0
C      1  0.3992980000000  0.4624660000000  0.4766990000000 1.0
C      1  0.4738020000000  0.4511560000000  0.5202490000000 1.0
C      1  0.5261980000000  0.5488440000000  0.4797510000000 1.0
C      1  0.4848690000000  0.4279120000000  0.5721120000000 1.0
C      1  0.5151310000000  0.5720880000000  0.4278880000000 1.0
C      1  0.5961320000000  0.5304550000000  0.4957440000000 1.0
C      1  0.4038680000000  0.4695450000000  0.5042560000000 1.0
C      1  0.4489830000000  0.4632940000000  0.5116260000000 1.0
C      1  0.5510170000000  0.5367060000000  0.4883740000000 1.0
C      1  0.5034010000000  0.6017840000000  0.5062190000000 1.0
C      1  0.4965990000000  0.3982160000000  0.4937810000000 1.0
C      1  0.4897800000000  0.4920410000000  0.5067560000000 1.0
C      1  0.5102200000000  0.5079590000000  0.4932440000000 1.0
C      1  0.5483940000000  0.5857330000000  0.5134800000000 1.0
C      1  0.4516060000000  0.4142670000000  0.4865200000000 1.0
C      1  0.5272000000000  0.4074110000000  0.5359710000000 1.0
C      1  0.4728000000000  0.5925890000000  0.4640290000000 1.0
C      1  0.4856630000000  0.5461910000000  0.4003910000000 1.0
C      1  0.5143370000000  0.4538090000000  0.5996090000000 1.0
C      1  0.5278360000000  0.5932820000000  0.4949840000000 1.0
C      1  0.4721640000000  0.4067180000000  0.5050160000000 1.0
C      1  0.5020480000000  0.4007480000000  0.4651280000000 1.0
C      1  0.4979520000000  0.5992520000000  0.5348720000000 1.0
C      1  0.4545750000000  0.4809570000000  0.5727760000000 1.0
C      1  0.5454250000000  0.5190430000000  0.4272240000000 1.0
C      1  0.5102320000000  0.5728500000000  0.5777940000000 1.0
C      1  0.4897680000000  0.4271500000000  0.4222060000000 1.0
C      1  0.5879870000000  0.5039480000000  0.4811060000000 1.0
C      1  0.4120130000000  0.4960520000000  0.5188940000000 1.0
C      1  0.5215540000000  0.3986580000000  0.5091170000000 1.0
C      1  0.4784460000000  0.6013420000000  0.4908830000000 1.0
C      1  0.5475600000000  0.5097830000000  0.5649450000000 1.0
C      1  0.4524400000000  0.4902170000000  0.4350550000000 1.0
C      1  0.4710790000000  0.4539310000000  0.4634030000000 1.0
C      1  0.5289210000000  0.5460690000000  0.5365970000000 1.0
C      1  0.4284490000000  0.4291800000000  0.4920750000000 1.0
C      1  0.5715510000000  0.5708200000000  0.5079250000000 1.0
C      1  0.4361020000000  0.4342420000000  0.4449120000000 1.0
C      1  0.5638980000000  0.5657580000000  0.5550880000000 1.0
C      1  0.3998870000000  0.4794320000000  0.4363760000000 1.0
C      1  0.6001130000000  0.5205680000000  0.5636240000000 1.0
C      1  0.5344400000000  0.4757630000000  0.3979210000000 1.0
C      1  0.4655600000000  0.5242370000000  0.6020790000000 1.0
C      1  0.4533280000000  0.4945520000000  0.4770970000000 1.0
C      1  0.5466720000000  0.5054480000000  0.5229030000000 1.0
C      1  0.4998530000000  0.5176080000000  0.5674170000000 1.0
C      1  0.5001470000000  0.4823920000000  0.4325830000000 1.0
C      1  0.4936980000000  0.4937550000000  0.5343860000000 1.0
C      1  0.5063020000000  0.5062450000000  0.4656140000000 1.0
C      1  0.5123900000000  0.5340980000000  0.6085880000000 1.0
C      1  0.4876100000000  0.4659020000000  0.3914130000000 1.0
C      1  0.4250470000000  0.4477740000000  0.4699680000000 1.0
C      1  0.5749530000000  0.5522260000000  0.5300320000000 1.0
C      1  0.4471230000000  0.5212770000000  0.4038680000000 1.0
C      1  0.5528770000000  0.4787230000000  0.5961320000000 1.0
C      1  0.4862890000000  0.5443500000000  0.6067950000000 1.0
C      1  0.5137110000000  0.4556500000000  0.3932050000000 1.0
C      1  0.4916550000000  0.4942220000000  0.3857120000000 1.0
C      1  0.5083450000000  0.5057780000000  0.6142880000000 1.0
C      1  0.4466840000000  0.5346570000000  0.5813220000000 1.0
C      1  0.5533160000000  0.4653430000000  0.4186780000000 1.0
C      1  0.5373130000000  0.4949130000000  0.4982850000000 1.0
C      1  0.4626870000000  0.5050870000000  0.5017150000000 1.0
C      1  0.4298530000000  0.5209520000000  0.5566270000000 1.0
C      1  0.5701470000000  0.4790480000000  0.4433730000000 1.0
C      1  0.4956240000000  0.5106910000000  0.4229030000000 1.0
C      1  0.5043760000000  0.4893080000000  0.5770970000000 1.0
C      1  0.5911340000000  0.5042740000000  0.4512110000000 1.0
C      1  0.4088660000000  0.4957260000000  0.5487890000000 1.0
C      1  0.4371900000000  0.4357130000000  0.5618600000000 1.0
C      1  0.5628100000000  0.5642870000000  0.4381400000000 1.0
C      1  0.4217470000000  0.4479270000000  0.5149860000000 1.0
C      1  0.5782530000000  0.5520730000000  0.4850140000000 1.0
C      1  0.4339040000000  0.5840780000000  0.5085090000000 1.0
C      1  0.5660960000000  0.4159220000000  0.4914910000000 1.0
C      1  0.4595790000000  0.4219990000000  0.4585550000000 1.0
C      1  0.5404210000000  0.5780010000000  0.5414450000000 1.0
C      1  0.4227790000000  0.4713000000000  0.4191170000000 1.0
C      1  0.5772210000000  0.5287000000000  0.5808830000000 1.0
C      1  0.5046240000000  0.5476290000000  0.5222590000000 1.0
C      1  0.4953760000000  0.4523710000000  0.4777410000000 1.0
C      1  0.5184240000000  0.4489170000000  0.5492080000000 1.0
C      1  0.4815760000000  0.5510830000000  0.4507920000000 1.0
C      1  0.4491550000000  0.4661720000000  0.4799230000000 1.0
C      1  0.5508450000000  0.5338280000000  0.5200770000000 1.0
C      1  0.4954390000000  0.4631890000000  0.5039600000000 1.0
C      1  0.5045610000000  0.5368110000000  0.4960400000000 1.0
C      1  0.5466450000000  0.4985550000000  0.4494460000000 1.0
C      1  0.4533550000000  0.5014450000000  0.5505540000000 1.0
C      1  0.4585760000000  0.5107430000000  0.4540050000000 1.0
C      1  0.5414240000000  0.4892570000000  0.5459950000000 1.0
C      1  0.4761470000000  0.4228700000000  0.5304610000000 1.0
C      1  0.5238530000000  0.5771300000000  0.4695390000000 1.0
C      1  0.4359060000000  0.5583480000000  0.4401700000000 1.0
C      1  0.5640940000000  0.4416520000000  0.5598300000000 1.0
C      1  0.4704620000000  0.5345200000000  0.4993580000000 1.0
C      1  0.5295380000000  0.4654800000000  0.5006420000000 1.0
C      1  0.4396300000000  0.4471380000000  0.4198070000000 1.0
C      1  0.5603700000000  0.5528620000000  0.5801930000000 1.0
C      1  0.5293810000000  0.5500630000000  0.5863200000000 1.0
C      1  0.4706190000000  0.4499370000000  0.4136800000000 1.0
C      1  0.4323100000000  0.5651110000000  0.5305340000000 1.0
C      1  0.5676900000000  0.4348890000000  0.4694660000000 1.0
C      1  0.5657930000000  0.5382930000000  0.4258030000000 1.0
C      1  0.4342070000000  0.4617070000000  0.5741960000000 1.0
C      1  0.5985350000000  0.4643630000000  0.5147170000000 1.0
C      1  0.4014650000000  0.5356380000000  0.4852830000000 1.0
C      1  0.4392960000000  0.5343670000000  0.4580560000000 1.0
C      1  0.5607040000000  0.4656330000000  0.5419440000000 1.0
C      1  0.5751590000000  0.4192970000000  0.5188260000000 1.0
C      1  0.4248410000000  0.5807030000000  0.4811740000000 1.0
C      1  0.5796380000000  0.4608220000000  0.4662940000000 1.0
C      1  0.4203620000000  0.5391780000000  0.5337060000000 1.0
C      1  0.4702650000000  0.5930690000000  0.5356620000000 1.0
C      1  0.5297350000000  0.4069310000000  0.4643380000000 1.0
C      1  0.5919620000000  0.4927220000000  0.5625540000000 1.0
C      1  0.4080380000000  0.5072780000000  0.4374460000000 1.0
C      1  0.5946040000000  0.4375790000000  0.5186760000000 1.0
C      1  0.4053960000000  0.5624210000000  0.4813240000000 1.0
C      1  0.5385380000000  0.5777830000000  0.4425980000000 1.0
C      1  0.4614620000000  0.4222170000000  0.5574020000000 1.0
C      1  0.5885180000000  0.4751900000000  0.5400640000000 1.0
C      1  0.4114830000000  0.5248100000000  0.4599360000000 1.0
C      1  0.5550640000000  0.5083510000000  0.4780090000000 1.0
C      1  0.4449360000000  0.4916490000000  0.5219910000000 1.0
C      1  0.4869410000000  0.5210560000000  0.4498040000000 1.0
C      1  0.5130590000000  0.4789440000000  0.5501960000000 1.0
C      1  0.5693960000000  0.4992140000000  0.5824630000000 1.0
C      1  0.4306030000000  0.5007860000000  0.4175380000000 1.0
C      1  0.4163440000000  0.4444900000000  0.5433710000000 1.0
C      1  0.5836560000000  0.5555100000000  0.4566290000000 1.0
C      1  0.4442870000000  0.5476690000000  0.4150770000000 1.0
C      1  0.5557120000000  0.4523310000000  0.5849230000000 1.0
C      1  0.4594640000000  0.5593710000000  0.5734710000000 1.0
C      1  0.5405360000000  0.4406290000000  0.4265290000000 1.0
C      1  0.5301320000000  0.4428410000000  0.5791380000000 1.0
C      1  0.4698680000000  0.5571590000000  0.4208630000000 1.0
C      1  0.4581510000000  0.5672510000000  0.5450970000000 1.0
C      1  0.5418490000000  0.4327490000000  0.4549030000000 1.0
C      1  0.4769440000000  0.5423970000000  0.5295120000000 1.0
C      1  0.5230560000000  0.4576030000000  0.4704880000000 1.0
C      1  0.4879160000000  0.4489890000000  0.5916620000000 1.0
C      1  0.5120840000000  0.5510110000000  0.4083380000000 1.0
C      1  0.5234400000000  0.4825550000000  0.6019530000000 1.0
C      1  0.4765600000000  0.5174450000000  0.3980470000000 1.0
C      1  0.4448070000000  0.5815310000000  0.4590470000000 1.0
C      1  0.5551930000000  0.4184690000000  0.5409530000000 1.0
C      1  0.5926640000000  0.4754910000000  0.4879890000000 1.0
C      1  0.4073360000000  0.5245090000000  0.5120110000000 1.0
C      1  0.5418630000000  0.4016070000000  0.4891080000000 1.0
C      1  0.4581370000000  0.5983930000000  0.5108920000000 1.0
C      1  0.4738200000000  0.4690580000000  0.4368180000000 1.0
C      1  0.5261800000000  0.5309420000000  0.5631820000000 1.0
END
