TITL C-22084-8371-2 0.0793884290353169 125000 -1293.70495320738 0 0 181 (C2v) n - 1
REM
REM in /rds/project/t2_vol4/rds-t2-cs072/BORA/CARBON/from-Arr/AIRSS/Generating-Clusters/GAP-ML-2020/Higher-Symm/SD-CG/HFTN-CG/C160-200
REM
REM
REM
REM
REM
REM ./C.cell (6b4489405718ea1b717e0baf1da4c2d9)
REM AIRSS Version 0.9.1 bugfix July 2018 build 013d7b7c2542+ Fri, 06 Jul 2018 19:26:36 +0100
REM compiler GCC version 9.3.0
REM options -cpp -mtune=generic -march=x86-64 -g -O0
REM seed 2002147849 -651317176 -1902680105 1663073512 -1948271164 -293943279 -1291635561 146394239 783464394 -1174110856 2143381881 -1658842425 762087084 1206266313 634163637 -722403741 -1509458225 -915870971 -98454469 -2146836645 -1511627382 809030378 875979495 -119387712 820139445 1150955512 1147459706 -870139714 586610285 -227792204 1192510203 530563489 -70442018
REM
CELL 1.54180   50.00000   50.00000   50.00000   90.00000   90.00000   90.00000
LATT -1
SFAC C  
C      1  0.5147540000000  0.5560830000000  0.5898870000000 1.0
C      1  0.4854140000000  0.4436370000000  0.5898860000000 1.0
C      1  0.5147520000000  0.4436360000000  0.5898860000000 1.0
C      1  0.4854150000000  0.5560830000000  0.5898860000000 1.0
C      1  0.4489400000000  0.4670420000000  0.4892300000000 1.0
C      1  0.5512310000000  0.5326790000000  0.4892320000000 1.0
C      1  0.4489410000000  0.5326800000000  0.4892300000000 1.0
C      1  0.5512300000000  0.4670410000000  0.4892320000000 1.0
C      1  0.5786230000000  0.4838640000000  0.4833850000000 1.0
C      1  0.4215480000000  0.5158570000000  0.4833820000000 1.0
C      1  0.5786240000000  0.5158550000000  0.4833850000000 1.0
C      1  0.4215480000000  0.4838660000000  0.4833810000000 1.0
C      1  0.4559680000000  0.4672650000000  0.5583860000000 1.0
C      1  0.5442000000000  0.5324550000000  0.5583880000000 1.0
C      1  0.4559690000000  0.5324560000000  0.5583870000000 1.0
C      1  0.5441990000000  0.4672640000000  0.5583880000000 1.0
C      1  0.5603600000000  0.4610690000000  0.4216980000000 1.0
C      1  0.4398140000000  0.5386530000000  0.4216960000000 1.0
C      1  0.5603610000000  0.5386520000000  0.4216990000000 1.0
C      1  0.4398130000000  0.4610700000000  0.4216960000000 1.0
C      1  0.4024370000000  0.4728790000000  0.5030690000000 1.0
C      1  0.5977340000000  0.5268420000000  0.5030740000000 1.0
C      1  0.4024380000000  0.5268450000000  0.5030700000000 1.0
C      1  0.5977330000000  0.4728760000000  0.5030730000000 1.0
C      1  0.5884490000000  0.5716350000000  0.4830790000000 1.0
C      1  0.4117220000000  0.4280860000000  0.4830750000000 1.0
C      1  0.5884480000000  0.4280840000000  0.4830780000000 1.0
C      1  0.4117240000000  0.5716370000000  0.4830760000000 1.0
C      1  0.5972740000000  0.4442010000000  0.5052010000000 1.0
C      1  0.4028960000000  0.5555200000000  0.5051980000000 1.0
C      1  0.5972760000000  0.5555170000000  0.5052020000000 1.0
C      1  0.4028950000000  0.4442040000000  0.5051970000000 1.0
C      1  0.5295450000000  0.4860590000000  0.5417540000000 1.0
C      1  0.4706240000000  0.5136610000000  0.5417530000000 1.0
C      1  0.5295450000000  0.5136600000000  0.5417540000000 1.0
C      1  0.4706240000000  0.4860600000000  0.5417530000000 1.0
C      1  0.4605720000000  0.5583260000000  0.4158820000000 1.0
C      1  0.5396020000000  0.4413960000000  0.4158830000000 1.0
C      1  0.4605710000000  0.4413970000000  0.4158810000000 1.0
C      1  0.5396030000000  0.5583250000000  0.4158830000000 1.0
C      1  0.5152830000000  0.5330370000000  0.6076560000000 1.0
C      1  0.4848840000000  0.4666820000000  0.6076550000000 1.0
C      1  0.5152820000000  0.4666820000000  0.6076560000000 1.0
C      1  0.4848840000000  0.5330380000000  0.6076550000000 1.0
C      1  0.4021260000000  0.5142690000000  0.5287090000000 1.0
C      1  0.5980440000000  0.4854510000000  0.5287130000000 1.0
C      1  0.4021260000000  0.4854540000000  0.5287090000000 1.0
C      1  0.5980440000000  0.5142670000000  0.5287130000000 1.0
C      1  0.4850130000000  0.5258180000000  0.5179570000000 1.0
C      1  0.5151570000000  0.4739030000000  0.5179570000000 1.0
C      1  0.4850120000000  0.4739030000000  0.5179570000000 1.0
C      1  0.5151580000000  0.5258170000000  0.5179580000000 1.0
C      1  0.4693820000000  0.3853880000000  0.4746880000000 1.0
C      1  0.5307900000000  0.6143340000000  0.4746910000000 1.0
C      1  0.4693840000000  0.6143340000000  0.4746900000000 1.0
C      1  0.5307870000000  0.3853870000000  0.4746890000000 1.0
C      1  0.4433560000000  0.6034890000000  0.4697170000000 1.0
C      1  0.5568160000000  0.3962320000000  0.4697180000000 1.0
C      1  0.4433530000000  0.3962340000000  0.4697160000000 1.0
C      1  0.5568190000000  0.6034870000000  0.4697190000000 1.0
C      1  0.5870060000000  0.4851630000000  0.4546010000000 1.0
C      1  0.4131660000000  0.5145580000000  0.4545980000000 1.0
C      1  0.5870070000000  0.5145560000000  0.4546020000000 1.0
C      1  0.4131660000000  0.4851660000000  0.4545980000000 1.0
C      1  0.4275840000000  0.5818000000000  0.5393800000000 1.0
C      1  0.5725850000000  0.4179200000000  0.5393820000000 1.0
C      1  0.4275820000000  0.4179220000000  0.5393790000000 1.0
C      1  0.5725870000000  0.5817980000000  0.5393830000000 1.0
C      1  0.5147930000000  0.4705410000000  0.4649840000000 1.0
C      1  0.4853790000000  0.5291810000000  0.4649840000000 1.0
C      1  0.5147930000000  0.5291800000000  0.4649840000000 1.0
C      1  0.4853790000000  0.4705410000000  0.4649830000000 1.0
C      1  0.5303360000000  0.5953710000000  0.5453770000000 1.0
C      1  0.4698330000000  0.4043490000000  0.5453740000000 1.0
C      1  0.5303340000000  0.4043480000000  0.5453760000000 1.0
C      1  0.4698350000000  0.5953720000000  0.5453760000000 1.0
C      1  0.4734030000000  0.5146240000000  0.4907290000000 1.0
C      1  0.5267690000000  0.4850970000000  0.4907300000000 1.0
C      1  0.4734020000000  0.4850980000000  0.4907290000000 1.0
C      1  0.5267690000000  0.5146230000000  0.4907300000000 1.0
C      1  0.5363300000000  0.6059550000000  0.5202630000000 1.0
C      1  0.4638400000000  0.3937660000000  0.5202600000000 1.0
C      1  0.5363270000000  0.3937650000000  0.5202620000000 1.0
C      1  0.4638430000000  0.6059560000000  0.5202610000000 1.0
C      1  0.5606540000000  0.4850710000000  0.5887850000000 1.0
C      1  0.4395130000000  0.5146490000000  0.5887830000000 1.0
C      1  0.5606540000000  0.5146480000000  0.5887860000000 1.0
C      1  0.4395130000000  0.4850720000000  0.5887830000000 1.0
C      1  0.5811370000000  0.4336050000000  0.4551210000000 1.0
C      1  0.4190360000000  0.5661160000000  0.4551190000000 1.0
C      1  0.5811380000000  0.5661140000000  0.4551220000000 1.0
C      1  0.4190340000000  0.4336070000000  0.4551180000000 1.0
C      1  0.5403160000000  0.4160990000000  0.4276460000000 1.0
C      1  0.4598580000000  0.5836230000000  0.4276460000000 1.0
C      1  0.5403180000000  0.5836220000000  0.4276470000000 1.0
C      1  0.4598560000000  0.4161000000000  0.4276450000000 1.0
C      1  0.4855090000000  0.5692300000000  0.5433880000000 1.0
C      1  0.5146600000000  0.4304900000000  0.5433880000000 1.0
C      1  0.4855070000000  0.4304910000000  0.5433870000000 1.0
C      1  0.5146620000000  0.5692300000000  0.5433890000000 1.0
C      1  0.5713010000000  0.4692820000000  0.5676140000000 1.0
C      1  0.4288670000000  0.5304380000000  0.5676120000000 1.0
C      1  0.5713010000000  0.5304360000000  0.5676150000000 1.0
C      1  0.4288670000000  0.4692840000000  0.5676110000000 1.0
C      1  0.5635380000000  0.5982910000000  0.5169090000000 1.0
C      1  0.4366320000000  0.4014300000000  0.5169050000000 1.0
C      1  0.5635350000000  0.4014280000000  0.5169080000000 1.0
C      1  0.4366350000000  0.5982930000000  0.5169070000000 1.0
C      1  0.5466580000000  0.5135700000000  0.4221330000000 1.0
C      1  0.4535160000000  0.4861520000000  0.4221310000000 1.0
C      1  0.5466570000000  0.4861510000000  0.4221330000000 1.0
C      1  0.4535170000000  0.5135710000000  0.4221310000000 1.0
C      1  0.5311340000000  0.4479900000000  0.4731840000000 1.0
C      1  0.4690380000000  0.5517310000000  0.4731840000000 1.0
C      1  0.5311350000000  0.5517310000000  0.4731850000000 1.0
C      1  0.4690370000000  0.4479910000000  0.4731830000000 1.0
C      1  0.5144750000000  0.3826820000000  0.4526130000000 1.0
C      1  0.4856970000000  0.6170400000000  0.4526140000000 1.0
C      1  0.5144780000000  0.6170390000000  0.4526140000000 1.0
C      1  0.4856940000000  0.3826820000000  0.4526120000000 1.0
C      1  0.5815200000000  0.5404310000000  0.4405920000000 1.0
C      1  0.4186530000000  0.4592910000000  0.4405880000000 1.0
C      1  0.5815190000000  0.4592890000000  0.4405910000000 1.0
C      1  0.4186540000000  0.5404330000000  0.4405890000000 1.0
C      1  0.5169550000000  0.3975240000000  0.4977590000000 1.0
C      1  0.4832160000000  0.6021970000000  0.4977600000000 1.0
C      1  0.5169580000000  0.6021960000000  0.4977600000000 1.0
C      1  0.4832130000000  0.3975250000000  0.4977580000000 1.0
C      1  0.5208250000000  0.4783450000000  0.4347730000000 1.0
C      1  0.4793480000000  0.5213760000000  0.4347730000000 1.0
C      1  0.5208260000000  0.5213760000000  0.4347730000000 1.0
C      1  0.4793480000000  0.4783460000000  0.4347720000000 1.0
C      1  0.4761970000000  0.4449580000000  0.5181340000000 1.0
C      1  0.5239730000000  0.5547630000000  0.5181350000000 1.0
C      1  0.4761990000000  0.5547630000000  0.5181340000000 1.0
C      1  0.5239710000000  0.4449570000000  0.5181350000000 1.0
C      1  0.4862290000000  0.5451150000000  0.4162070000000 1.0
C      1  0.5139450000000  0.4546070000000  0.4162070000000 1.0
C      1  0.4862280000000  0.4546070000000  0.4162070000000 1.0
C      1  0.5139460000000  0.5451150000000  0.4162080000000 1.0
C      1  0.4484190000000  0.4177840000000  0.5584000000000 1.0
C      1  0.5517490000000  0.5819360000000  0.5584030000000 1.0
C      1  0.4484210000000  0.5819370000000  0.5584010000000 1.0
C      1  0.5517470000000  0.4177830000000  0.5584020000000 1.0
C      1  0.5620450000000  0.4126870000000  0.4470160000000 1.0
C      1  0.4381280000000  0.5870350000000  0.4470140000000 1.0
C      1  0.5620480000000  0.5870330000000  0.4470170000000 1.0
C      1  0.4381250000000  0.4126880000000  0.4470130000000 1.0
C      1  0.4848400000000  0.4315010000000  0.4922350000000 1.0
C      1  0.5153320000000  0.5682200000000  0.4922370000000 1.0
C      1  0.4848410000000  0.5682200000000  0.4922360000000 1.0
C      1  0.5153300000000  0.4315010000000  0.4922360000000 1.0
C      1  0.4489060000000  0.4513150000000  0.5131860000000 1.0
C      1  0.5512640000000  0.5484060000000  0.5131890000000 1.0
C      1  0.4489070000000  0.5484070000000  0.5131870000000 1.0
C      1  0.5512630000000  0.4513140000000  0.5131880000000 1.0
C      1  0.4636540000000  0.5146030000000  0.6065760000000 1.0
C      1  0.5365120000000  0.4851170000000  0.6065770000000 1.0
C      1  0.4636540000000  0.4851180000000  0.6065760000000 1.0
C      1  0.5365120000000  0.5146020000000  0.6065770000000 1.0
C      1  0.4849170000000  0.4022620000000  0.4316670000000 1.0
C      1  0.5152570000000  0.5974600000000  0.4316690000000 1.0
C      1  0.4849190000000  0.5974600000000  0.4316680000000 1.0
C      1  0.5152540000000  0.4022610000000  0.4316680000000 1.0
C      1  0.5319740000000  0.4414680000000  0.5663060000000 1.0
C      1  0.4681940000000  0.5582520000000  0.5663050000000 1.0
C      1  0.5319760000000  0.5582520000000  0.5663060000000 1.0
C      1  0.4681930000000  0.4414680000000  0.5663040000000 1.0
C      1  0.5910640000000  0.4390880000000  0.5331920000000 1.0
C      1  0.4091060000000  0.5606320000000  0.5331890000000 1.0
C      1  0.5910650000000  0.5606300000000  0.5331930000000 1.0
C      1  0.4091040000000  0.4390910000000  0.5331880000000 1.0
C      1  0.5908640000000  0.5350120000000  0.5475800000000 1.0
C      1  0.4093050000000  0.4647090000000  0.5475760000000 1.0
C      1  0.5908630000000  0.4647060000000  0.5475800000000 1.0
C      1  0.4093050000000  0.5350140000000  0.5475770000000 1.0
C      1  0.5732840000000  0.5946580000000  0.4908790000000 1.0
C      1  0.4268870000000  0.4050630000000  0.4908750000000 1.0
C      1  0.5732820000000  0.4050610000000  0.4908780000000 1.0
C      1  0.4268890000000  0.5946600000000  0.4908760000000 1.0
C      1  0.5000870000000  0.4998610000000  0.4297090000000 1.0
END
