TITL C-22181-1994-2 -0.0277046036271087 125000 -686.673227059419 0 0 99 (C3) n - 1
REM
REM in /rds/project/t2_vol4/rds-t2-cs072/BORA/CARBON/from-Arr/AIRSS/Generating-Clusters/GAP-ML-2020/Higher-Symm/SD-CG/HFTN-CG
REM
REM
REM
REM
REM
REM ./C.cell (b20cbc046b6831c77cfcea5457e17084)
REM AIRSS Version 0.9.1 bugfix July 2018 build 013d7b7c2542+ Fri, 06 Jul 2018 19:26:36 +0100
REM compiler GCC version 9.3.0
REM options -cpp -mtune=generic -march=x86-64 -g -O0
REM seed 1584252003 1198789378 -244855044 318102400 1025350507 -1792401177 881149938 -1751461074 -255667376 -1759371376 711625449 1722050112 -1648885662 -775971281 151601351 1187306043 -1275294502 -1014365949 -268148573 1221964362 -1910873705 -651088165 1716328626 1816803869 1531405422 -1774308515 -1040903414 1077094896 1496109285 581255305 299153573 -790537153 1874603052
REM
CELL 1.54180   50.00000   50.00000   50.00000   90.00000   90.00000   90.00000
LATT -1
SFAC C  
C      1  0.5354270000000  0.4523860000000  0.5702920000000 1.0
C      1  0.5372900000000  0.5838780000000  0.5060930000000 1.0
C      1  0.5364660000000  0.4625280000000  0.4243080000000 1.0
C      1  0.5259800000000  0.5328550000000  0.4498850000000 1.0
C      1  0.5246510000000  0.4396120000000  0.4965980000000 1.0
C      1  0.5252510000000  0.5266930000000  0.5539990000000 1.0
C      1  0.5766510000000  0.4532470000000  0.4824110000000 1.0
C      1  0.5768160000000  0.5064440000000  0.5492800000000 1.0
C      1  0.5776670000000  0.5377500000000  0.4697770000000 1.0
C      1  0.4658240000000  0.5224910000000  0.4738860000000 1.0
C      1  0.4650830000000  0.4669030000000  0.4935790000000 1.0
C      1  0.4653370000000  0.5117540000000  0.5318760000000 1.0
C      1  0.6112290000000  0.5149180000000  0.4982110000000 1.0
C      1  0.6110020000000  0.4885370000000  0.4879680000000 1.0
C      1  0.6108720000000  0.4928580000000  0.5159370000000 1.0
C      1  0.4608770000000  0.4910100000000  0.5810150000000 1.0
C      1  0.4625340000000  0.5755050000000  0.4672860000000 1.0
C      1  0.4610800000000  0.4347640000000  0.4509660000000 1.0
C      1  0.4338690000000  0.4702970000000  0.5489800000000 1.0
C      1  0.4351510000000  0.5587170000000  0.5012410000000 1.0
C      1  0.4345390000000  0.4731600000000  0.4485310000000 1.0
C      1  0.4533690000000  0.5362210000000  0.5719990000000 1.0
C      1  0.4543540000000  0.5452670000000  0.4326380000000 1.0
C      1  0.4525760000000  0.4200590000000  0.4944760000000 1.0
C      1  0.5118060000000  0.5748770000000  0.4674100000000 1.0
C      1  0.5103490000000  0.4340960000000  0.4514440000000 1.0
C      1  0.5101500000000  0.4906690000000  0.5813510000000 1.0
C      1  0.5300530000000  0.4866160000000  0.4759890000000 1.0
C      1  0.5297350000000  0.4852350000000  0.5235930000000 1.0
C      1  0.5303430000000  0.5271510000000  0.5009900000000 1.0
C      1  0.5021020000000  0.5280090000000  0.5079870000000 1.0
C      1  0.5019430000000  0.4928700000000  0.4717490000000 1.0
C      1  0.5014820000000  0.4790600000000  0.5202990000000 1.0
C      1  0.4435200000000  0.4309500000000  0.5190340000000 1.0
C      1  0.4446650000000  0.5522410000000  0.5502890000000 1.0
C      1  0.4450590000000  0.5186550000000  0.4296180000000 1.0
C      1  0.4856940000000  0.4247890000000  0.4615080000000 1.0
C      1  0.4857970000000  0.5045800000000  0.5843820000000 1.0
C      1  0.4873620000000  0.5710870000000  0.4538490000000 1.0
C      1  0.5115760000000  0.5826790000000  0.4958160000000 1.0
C      1  0.5105760000000  0.4547970000000  0.4304860000000 1.0
C      1  0.5097470000000  0.4621710000000  0.5739000000000 1.0
C      1  0.4590250000000  0.4670150000000  0.5653030000000 1.0
C      1  0.4606490000000  0.5739350000000  0.4959220000000 1.0
C      1  0.4597600000000  0.4603850000000  0.4380090000000 1.0
C      1  0.4272620000000  0.5468930000000  0.5280290000000 1.0
C      1  0.4272950000000  0.5024380000000  0.4453790000000 1.0
C      1  0.4262420000000  0.4530950000000  0.5252000000000 1.0
C      1  0.5570690000000  0.4463610000000  0.4626790000000 1.0
C      1  0.5569380000000  0.4932340000000  0.5651100000000 1.0
C      1  0.5582430000000  0.5584990000000  0.4733060000000 1.0
C      1  0.5929400000000  0.5359650000000  0.4941410000000 1.0
C      1  0.5924060000000  0.4748970000000  0.4717750000000 1.0
C      1  0.5921220000000  0.4860660000000  0.5358450000000 1.0
C      1  0.5015240000000  0.5420200000000  0.5561850000000 1.0
C      1  0.5021310000000  0.5276120000000  0.4355190000000 1.0
C      1  0.5005920000000  0.4303210000000  0.5083230000000 1.0
C      1  0.4907460000000  0.4762120000000  0.4915770000000 1.0
C      1  0.4908510000000  0.5048010000000  0.5248130000000 1.0
C      1  0.4912740000000  0.5192870000000  0.4834370000000 1.0
C      1  0.4652110000000  0.5411670000000  0.5347150000000 1.0
C      1  0.4654260000000  0.5102510000000  0.4469940000000 1.0
C      1  0.4643070000000  0.4497460000000  0.5176240000000 1.0
C      1  0.4204080000000  0.5196380000000  0.4688490000000 1.0
C      1  0.4196140000000  0.4649710000000  0.4985710000000 1.0
C      1  0.4199950000000  0.5180470000000  0.5310570000000 1.0
C      1  0.5756020000000  0.4879520000000  0.4526650000000 1.0
C      1  0.5748120000000  0.4633660000000  0.5340940000000 1.0
C      1  0.5758520000000  0.5461770000000  0.5146770000000 1.0
C      1  0.4416210000000  0.5113870000000  0.4865530000000 1.0
C      1  0.4412510000000  0.4839560000000  0.4968640000000 1.0
C      1  0.4413840000000  0.5066030000000  0.5154660000000 1.0
C      1  0.4825230000000  0.5319220000000  0.5758860000000 1.0
C      1  0.4836230000000  0.5501370000000  0.4344160000000 1.0
C      1  0.4818170000000  0.4185170000000  0.4893670000000 1.0
C      1  0.4256660000000  0.5481430000000  0.4737620000000 1.0
C      1  0.4246480000000  0.4548620000000  0.4714270000000 1.0
C      1  0.4246220000000  0.4994860000000  0.5533820000000 1.0
C      1  0.4422600000000  0.5602250000000  0.4542790000000 1.0
C      1  0.4407310000000  0.4315870000000  0.4707020000000 1.0
C      1  0.4409460000000  0.5101360000000  0.5739000000000 1.0
C      1  0.4910040000000  0.4990610000000  0.4411250000000 1.0
C      1  0.4898920000000  0.4496920000000  0.5302480000000 1.0
C      1  0.4910310000000  0.5515580000000  0.5284490000000 1.0
C      1  0.5382690000000  0.5165020000000  0.5264170000000 1.0
C      1  0.5385820000000  0.5137800000000  0.4724980000000 1.0
C      1  0.5378940000000  0.4684480000000  0.5018130000000 1.0
C      1  0.5323420000000  0.5058120000000  0.5716570000000 1.0
C      1  0.5336390000000  0.5584240000000  0.4591400000000 1.0
C      1  0.5322010000000  0.4346770000000  0.4698270000000 1.0
C      1  0.5659350000000  0.5259320000000  0.5324340000000 1.0
C      1  0.5662510000000  0.5136650000000  0.4613230000000 1.0
C      1  0.5653440000000  0.4582170000000  0.5074980000000 1.0
C      1  0.4850920000000  0.4534870000000  0.5595400000000 1.0
C      1  0.4867500000000  0.5751300000000  0.5105180000000 1.0
C      1  0.4861200000000  0.4718480000000  0.4296750000000 1.0
C      1  0.5581400000000  0.4655980000000  0.4411790000000 1.0
C      1  0.5573840000000  0.4649790000000  0.5591980000000 1.0
C      1  0.5588900000000  0.5674920000000  0.5007310000000 1.0
END
