TITL C-22174-9772-9 -212.770320595749 125000 -835.923281863046 0 0 117 (C1) n - 1
REM
REM in /rds/project/t2_vol4/rds-t2-cs072/BORA/CARBON/from-Arr/AIRSS/Generating-Clusters/GAP-ML-2020/Higher-Symm/SD-CG/HFTN-CG
REM
REM
REM
REM
REM
REM ./C.cell (b20cbc046b6831c77cfcea5457e17084)
REM AIRSS Version 0.9.1 bugfix July 2018 build 013d7b7c2542+ Fri, 06 Jul 2018 19:26:36 +0100
REM compiler GCC version 9.3.0
REM options -cpp -mtune=generic -march=x86-64 -g -O0
REM seed 1795474376 -113980692 1878209360 -227842913 1454490467 1082450483 -1876714777 -885662053 1900424617 -1049649042 837975868 -1380504036 -1541616375 585071879 1524555928 1775560579 -108135115 288942003 247186318 -1579360199 1145195299 -850934088 821924146 -1873075281 -1654163530 1888136402 179982637 -2146472610 -992325777 -241249778 845071716 1208666955 15581182
REM
CELL 1.54180   50.00000   50.00000   50.00000   90.00000   90.00000   90.00000
LATT -1
SFAC C  
C      1  0.5626740000000  0.5435140000000  0.4782190000000 1.0
C      1  0.5631370000000  0.5066880000000  0.4488070000000 1.0
C      1  0.5683060000000  0.4596150000000  0.4553780000000 1.0
C      1  0.5679720000000  0.4452940000000  0.5011330000000 1.0
C      1  0.5651480000000  0.4724780000000  0.5402780000000 1.0
C      1  0.5669230000000  0.5163080000000  0.5538700000000 1.0
C      1  0.5669870000000  0.5513550000000  0.5238240000000 1.0
C      1  0.4582170000000  0.5743980000000  0.4713920000000 1.0
C      1  0.4551760000000  0.5259330000000  0.4232430000000 1.0
C      1  0.4534190000000  0.4584190000000  0.4311000000000 1.0
C      1  0.4564600000000  0.4256140000000  0.4901900000000 1.0
C      1  0.4587840000000  0.4491400000000  0.5543110000000 1.0
C      1  0.4576030000000  0.5130670000000  0.5779870000000 1.0
C      1  0.4572840000000  0.5696340000000  0.5397350000000 1.0
C      1  0.5152910000000  0.5572640000000  0.5189500000000 1.0
C      1  0.5101920000000  0.5341800000000  0.4716960000000 1.0
C      1  0.5097170000000  0.5079980000000  0.4541380000000 1.0
C      1  0.5150190000000  0.4499000000000  0.4556460000000 1.0
C      1  0.5236160000000  0.4292490000000  0.5077810000000 1.0
C      1  0.5180000000000  0.4813570000000  0.5591320000000 1.0
C      1  0.5100990000000  0.5115500000000  0.5521810000000 1.0
C      1  0.5227430000000  0.5817010000000  0.5018670000000 1.0
C      1  0.5192050000000  0.5591980000000  0.4320370000000 1.0
C      1  0.5164130000000  0.4868560000000  0.4089770000000 1.0
C      1  0.5212140000000  0.4207070000000  0.4589340000000 1.0
C      1  0.5279750000000  0.4271700000000  0.5356490000000 1.0
C      1  0.5252510000000  0.4857100000000  0.5878540000000 1.0
C      1  0.5181030000000  0.5550140000000  0.5767170000000 1.0
C      1  0.4988780000000  0.4747830000000  0.5025150000000 1.0
C      1  0.4788130000000  0.4904540000000  0.5180900000000 1.0
C      1  0.4919710000000  0.5136410000000  0.5297910000000 1.0
C      1  0.4926740000000  0.5368690000000  0.5143470000000 1.0
C      1  0.4867140000000  0.5314040000000  0.4878910000000 1.0
C      1  0.4881520000000  0.4922780000000  0.4665250000000 1.0
C      1  0.4940600000000  0.4664410000000  0.4757350000000 1.0
C      1  0.5041390000000  0.5643860000000  0.4582840000000 1.0
C      1  0.5015490000000  0.5113570000000  0.4213270000000 1.0
C      1  0.4980430000000  0.4458060000000  0.4310960000000 1.0
C      1  0.4999780000000  0.4163120000000  0.4998860000000 1.0
C      1  0.5017200000000  0.4582310000000  0.5646970000000 1.0
C      1  0.5018930000000  0.5291480000000  0.5808270000000 1.0
C      1  0.5016170000000  0.5792370000000  0.5343900000000 1.0
C      1  0.5381870000000  0.5379360000000  0.5194110000000 1.0
C      1  0.5355020000000  0.5302820000000  0.4902200000000 1.0
C      1  0.5359610000000  0.4944110000000  0.4622400000000 1.0
C      1  0.5390840000000  0.4645750000000  0.4647730000000 1.0
C      1  0.5387540000000  0.4546380000000  0.4951360000000 1.0
C      1  0.5371610000000  0.4845110000000  0.5351560000000 1.0
C      1  0.5380910000000  0.5149160000000  0.5392450000000 1.0
C      1  0.4333680000000  0.4582350000000  0.5448220000000 1.0
C      1  0.4337530000000  0.5101890000000  0.5623920000000 1.0
C      1  0.4343200000000  0.5553900000000  0.5314080000000 1.0
C      1  0.4334130000000  0.5611670000000  0.4769650000000 1.0
C      1  0.4312310000000  0.5222900000000  0.4384430000000 1.0
C      1  0.4310770000000  0.4679660000000  0.4459800000000 1.0
C      1  0.4325200000000  0.4404610000000  0.4929690000000 1.0
C      1  0.5478240000000  0.4150280000000  0.4627860000000 1.0
C      1  0.5537690000000  0.4215380000000  0.5445300000000 1.0
C      1  0.5520390000000  0.4837030000000  0.5898990000000 1.0
C      1  0.5451460000000  0.5583300000000  0.5716340000000 1.0
C      1  0.5491060000000  0.5898470000000  0.4989600000000 1.0
C      1  0.5461350000000  0.5542210000000  0.4310580000000 1.0
C      1  0.5428760000000  0.4799920000000  0.4120190000000 1.0
C      1  0.5600420000000  0.5381650000000  0.4480680000000 1.0
C      1  0.5628120000000  0.4822700000000  0.4296590000000 1.0
C      1  0.5671250000000  0.4320040000000  0.4702110000000 1.0
C      1  0.5658210000000  0.4426110000000  0.5322210000000 1.0
C      1  0.5676770000000  0.4887360000000  0.5679290000000 1.0
C      1  0.5641580000000  0.5472110000000  0.5557690000000 1.0
C      1  0.5655010000000  0.5685790000000  0.4979640000000 1.0
C      1  0.5000830000000  0.5415180000000  0.4193840000000 1.0
C      1  0.4958730000000  0.4664180000000  0.4116150000000 1.0
C      1  0.4973280000000  0.4128480000000  0.4720860000000 1.0
C      1  0.5031450000000  0.4351320000000  0.5485580000000 1.0
C      1  0.5013970000000  0.5018010000000  0.5939890000000 1.0
C      1  0.4989480000000  0.5713600000000  0.5619150000000 1.0
C      1  0.5027140000000  0.5825760000000  0.4821860000000 1.0
C      1  0.4763160000000  0.5842340000000  0.4924400000000 1.0
C      1  0.4733900000000  0.5480720000000  0.4276890000000 1.0
C      1  0.4689940000000  0.4766830000000  0.4140890000000 1.0
C      1  0.4717750000000  0.4228120000000  0.4649140000000 1.0
C      1  0.4764940000000  0.4310750000000  0.5390850000000 1.0
C      1  0.4760300000000  0.4914210000000  0.5842930000000 1.0
C      1  0.4722610000000  0.5615350000000  0.5634360000000 1.0
C      1  0.4041400000000  0.4920100000000  0.5311110000000 1.0
C      1  0.4043980000000  0.5199790000000  0.5271400000000 1.0
C      1  0.4047740000000  0.5343390000000  0.5026140000000 1.0
C      1  0.4040030000000  0.5252720000000  0.4759950000000 1.0
C      1  0.4033680000000  0.4985420000000  0.4671840000000 1.0
C      1  0.4033160000000  0.4751630000000  0.4829520000000 1.0
C      1  0.4035150000000  0.4719820000000  0.5112470000000 1.0
C      1  0.4723770000000  0.5045940000000  0.4157900000000 1.0
C      1  0.4717540000000  0.4383010000000  0.4403930000000 1.0
C      1  0.4747430000000  0.4208090000000  0.5122770000000 1.0
C      1  0.4755370000000  0.4652660000000  0.5718750000000 1.0
C      1  0.4737920000000  0.5368610000000  0.5775110000000 1.0
C      1  0.4756350000000  0.5828770000000  0.5217850000000 1.0
C      1  0.4754820000000  0.5652480000000  0.4501430000000 1.0
C      1  0.4221350000000  0.5400830000000  0.4599740000000 1.0
C      1  0.4210530000000  0.4956560000000  0.4451770000000 1.0
C      1  0.4215320000000  0.4568900000000  0.4713840000000 1.0
C      1  0.4221460000000  0.4517000000000  0.5182420000000 1.0
C      1  0.4228440000000  0.4850350000000  0.5514080000000 1.0
C      1  0.4237040000000  0.5313270000000  0.5445850000000 1.0
C      1  0.4238500000000  0.5552480000000  0.5041220000000 1.0
C      1  0.5820710000000  0.4856550000000  0.5202150000000 1.0
C      1  0.5869550000000  0.5112890000000  0.5333170000000 1.0
C      1  0.5872780000000  0.5327870000000  0.5154570000000 1.0
C      1  0.5829410000000  0.5251810000000  0.4882200000000 1.0
C      1  0.5839200000000  0.5025580000000  0.4691180000000 1.0
C      1  0.5872600000000  0.4743600000000  0.4714720000000 1.0
C      1  0.5870770000000  0.4664580000000  0.4987540000000 1.0
C      1  0.5393950000000  0.5011440000000  0.4903270000000 1.0
C      1  0.4572820000000  0.4987730000000  0.5021120000000 1.0
C      1  0.5271920000000  0.4793870000000  0.5077070000000 1.0
C      1  0.5686990000000  0.4999500000000  0.4969980000000 1.0
C      1  0.4693760000000  0.5096340000000  0.4799790000000 1.0
END
