TITL C-22196-9773-10 -44.9547876109756 125000 -178.19029410994 0 0 28 (C1) n - 1
REM
REM in /rds/project/t2_vol4/rds-t2-cs072/BORA/CARBON/from-Arr/AIRSS/Generating-Clusters/GAP-ML-2020/Higher-Symm/SD-CG/HFTN-CG
REM
REM
REM
REM
REM
REM ./C.cell (b20cbc046b6831c77cfcea5457e17084)
REM AIRSS Version 0.9.1 bugfix July 2018 build 013d7b7c2542+ Fri, 06 Jul 2018 19:26:36 +0100
REM compiler GCC version 9.3.0
REM options -cpp -mtune=generic -march=x86-64 -g -O0
REM seed -1735364834 -1064017614 1277326121 1840614875 -1263351953 125315890 -1674423733 1610956693 1421398898 -1604693321 -2105227735 1086872764 2110000863 1843490146 2086613930 -551047005 33045804 -314118836 1905532779 -114357330 -1324568339 1482197821 113498772 232997002 1435220736 136131067 -614677994 1586902698 2108991713 1906682663 -451885818 -355899427 -1602558377
REM
CELL 1.54180   50.00000   50.00000   50.00000   90.00000   90.00000   90.00000
LATT -1
SFAC C  
C      1  0.5267760000000  0.4926470000000  0.4594860000000 1.0
C      1  0.5205480000000  0.4864020000000  0.5438590000000 1.0
C      1  0.4630750000000  0.4795290000000  0.4956230000000 1.0
C      1  0.4820700000000  0.5345790000000  0.5095240000000 1.0
C      1  0.5033200000000  0.5379140000000  0.4919980000000 1.0
C      1  0.5252410000000  0.5337120000000  0.5103850000000 1.0
C      1  0.5085100000000  0.5142160000000  0.4549900000000 1.0
C      1  0.5408890000000  0.5032330000000  0.5321040000000 1.0
C      1  0.4610530000000  0.4994350000000  0.5171160000000 1.0
C      1  0.5166630000000  0.5414070000000  0.4638600000000 1.0
C      1  0.5312440000000  0.5319600000000  0.5381900000000 1.0
C      1  0.4543120000000  0.5254270000000  0.5032460000000 1.0
C      1  0.4884640000000  0.4423820000000  0.4956450000000 1.0
C      1  0.5058340000000  0.4466370000000  0.4735950000000 1.0
C      1  0.5001590000000  0.4435620000000  0.5213250000000 1.0
C      1  0.4628420000000  0.4530760000000  0.4937070000000 1.0
C      1  0.5148680000000  0.4708300000000  0.4740270000000 1.0
C      1  0.5087660000000  0.4676510000000  0.5257730000000 1.0
C      1  0.5439570000000  0.5078190000000  0.4771570000000 1.0
C      1  0.4996610000000  0.5065360000000  0.5491340000000 1.0
C      1  0.4670820000000  0.5015840000000  0.4758120000000 1.0
C      1  0.5436790000000  0.5344770000000  0.4676850000000 1.0
C      1  0.5115740000000  0.5306050000000  0.5578000000000 1.0
C      1  0.4468200000000  0.5211410000000  0.4772310000000 1.0
C      1  0.4877070000000  0.5083410000000  0.5231940000000 1.0
C      1  0.4940950000000  0.5102400000000  0.4795690000000 1.0
C      1  0.5331120000000  0.5054640000000  0.5038930000000 1.0
C      1  0.5067740000000  0.4917220000000  0.5010130000000 1.0
END
