TITL C-22002-5723-8 0.00708682221650223 125000 -122.013580392041 0 0 19 (C1) n - 1
REM
REM in /rds/project/t2_vol4/rds-t2-cs072/BORA/CARBON/from-Arr/AIRSS/Generating-Clusters/GAP-ML-2020/Higher-Symm/SD-CG/HFTN-CG
REM
REM
REM
REM
REM
REM ./C.cell (b20cbc046b6831c77cfcea5457e17084)
REM AIRSS Version 0.9.1 bugfix July 2018 build 013d7b7c2542+ Fri, 06 Jul 2018 19:26:36 +0100
REM compiler GCC version 9.3.0
REM options -cpp -mtune=generic -march=x86-64 -g -O0
REM seed 1114055924 1890237298 1494272129 -1378948791 642838077 409566629 -8718364 -1387772160 636732799 1578744067 1238639733 1017756818 1722050647 1881745401 903290902 -1858801058 279051281 -1665254054 457122528 -724100325 -2083042696 -373464618 -1905055907 895889917 -2130566771 -1481282939 -170260796 293295816 523604012 1933836578 1610164991 -30851238 544923142
REM
CELL 1.54180   50.00000   50.00000   50.00000   90.00000   90.00000   90.00000
LATT -1
SFAC C  
C      1  0.5399190000000  0.4977860000000  0.5218190000000 1.0
C      1  0.4728600000000  0.5464220000000  0.4767290000000 1.0
C      1  0.4738600000000  0.4706870000000  0.5043020000000 1.0
C      1  0.5135550000000  0.4915970000000  0.5257160000000 1.0
C      1  0.5428910000000  0.4695670000000  0.4667750000000 1.0
C      1  0.4966200000000  0.5149060000000  0.5316170000000 1.0
C      1  0.4667310000000  0.4562020000000  0.4823240000000 1.0
C      1  0.5166880000000  0.4498510000000  0.4994100000000 1.0
C      1  0.5538810000000  0.4891980000000  0.4789570000000 1.0
C      1  0.5114940000000  0.5396730000000  0.5322330000000 1.0
C      1  0.4929260000000  0.5575790000000  0.4885160000000 1.0
C      1  0.5017160000000  0.4685130000000  0.5130250000000 1.0
C      1  0.4599890000000  0.4965910000000  0.5070660000000 1.0
C      1  0.5550830000000  0.5021100000000  0.5018230000000 1.0
C      1  0.4559580000000  0.5273150000000  0.4736730000000 1.0
C      1  0.4694480000000  0.5139700000000  0.5268650000000 1.0
C      1  0.5242530000000  0.4521550000000  0.4750780000000 1.0
C      1  0.5059050000000  0.5497180000000  0.5093610000000 1.0
C      1  0.4462250000000  0.5061590000000  0.4847090000000 1.0
END
