TITL C-22173-1915-4 -574.839038559116 125000 -638.95689417636 0 0 93 (C1) n - 1
REM
REM in /rds/project/t2_vol4/rds-t2-cs072/BORA/CARBON/from-Arr/AIRSS/Generating-Clusters/GAP-ML-2020/Higher-Symm/SD-CG/HFTN-CG
REM
REM
REM
REM
REM
REM ./C.cell (b20cbc046b6831c77cfcea5457e17084)
REM AIRSS Version 0.9.1 bugfix July 2018 build 013d7b7c2542+ Fri, 06 Jul 2018 19:26:36 +0100
REM compiler GCC version 9.3.0
REM options -cpp -mtune=generic -march=x86-64 -g -O0
REM seed -1656509467 513464717 -614031773 -1119459378 -393046517 -63065370 -710194055 1333582912 1738858545 -1009808463 1603029959 738340173 -1862123057 -1233881312 -842328640 660540743 -1099745808 -519761400 -1397155633 -1574382963 -925777668 -695201457 -1742963367 278120462 1264064578 -1664479877 -652666918 2071749513 458217848 800615464 653406669 1218276459 -484978900
REM
CELL 1.54180   50.00000   50.00000   50.00000   90.00000   90.00000   90.00000
LATT -1
SFAC C  
C      1  0.5786500000000  0.5164660000000  0.5111030000000 1.0
C      1  0.4751550000000  0.4390410000000  0.4309420000000 1.0
C      1  0.5003460000000  0.4309610000000  0.5342540000000 1.0
C      1  0.5093820000000  0.5536490000000  0.4413930000000 1.0
C      1  0.4523150000000  0.4926010000000  0.5628450000000 1.0
C      1  0.4942550000000  0.4966700000000  0.4537940000000 1.0
C      1  0.4813910000000  0.4198380000000  0.4793340000000 1.0
C      1  0.4360010000000  0.5347550000000  0.4547390000000 1.0
C      1  0.5025680000000  0.4930730000000  0.5205620000000 1.0
C      1  0.4584060000000  0.4945110000000  0.4936490000000 1.0
C      1  0.4623050000000  0.4655640000000  0.5592430000000 1.0
C      1  0.5097210000000  0.5707240000000  0.5518500000000 1.0
C      1  0.4244210000000  0.5418410000000  0.4997990000000 1.0
C      1  0.5254700000000  0.5495890000000  0.5631100000000 1.0
C      1  0.5423240000000  0.4355850000000  0.5044090000000 1.0
C      1  0.4641210000000  0.4251660000000  0.5018580000000 1.0
C      1  0.5230290000000  0.5230060000000  0.4859110000000 1.0
C      1  0.4983860000000  0.4540360000000  0.4187450000000 1.0
C      1  0.5327810000000  0.4415010000000  0.4745930000000 1.0
C      1  0.4845390000000  0.4822540000000  0.4999270000000 1.0
C      1  0.5479840000000  0.5386310000000  0.5500460000000 1.0
C      1  0.4581000000000  0.4619010000000  0.4249160000000 1.0
C      1  0.5453060000000  0.4829780000000  0.4992110000000 1.0
C      1  0.5215430000000  0.4615190000000  0.4329530000000 1.0
C      1  0.4787660000000  0.5825740000000  0.5274860000000 1.0
C      1  0.4421500000000  0.4425730000000  0.4945530000000 1.0
C      1  0.4306400000000  0.5527590000000  0.4742730000000 1.0
C      1  0.4803040000000  0.5693330000000  0.5532510000000 1.0
C      1  0.5280890000000  0.5058460000000  0.5089390000000 1.0
C      1  0.4397310000000  0.4876650000000  0.4671660000000 1.0
C      1  0.4400050000000  0.5076790000000  0.5418410000000 1.0
C      1  0.4705830000000  0.5046300000000  0.5807050000000 1.0
C      1  0.4880670000000  0.5367340000000  0.5124270000000 1.0
C      1  0.5743280000000  0.4874960000000  0.5080920000000 1.0
C      1  0.4452560000000  0.5366520000000  0.5425440000000 1.0
C      1  0.5783270000000  0.4737710000000  0.5330140000000 1.0
C      1  0.5633510000000  0.4926540000000  0.4347720000000 1.0
C      1  0.4428020000000  0.5516880000000  0.5184110000000 1.0
C      1  0.5087440000000  0.4234780000000  0.4839640000000 1.0
C      1  0.4669620000000  0.4283080000000  0.4562050000000 1.0
C      1  0.5695660000000  0.5196180000000  0.5407380000000 1.0
C      1  0.5649720000000  0.4276690000000  0.5194870000000 1.0
C      1  0.5442520000000  0.4516370000000  0.5617020000000 1.0
C      1  0.4839050000000  0.5026670000000  0.4067110000000 1.0
C      1  0.5229590000000  0.4878640000000  0.4477090000000 1.0
C      1  0.5159990000000  0.4240850000000  0.5113370000000 1.0
C      1  0.5534490000000  0.4784710000000  0.5675440000000 1.0
C      1  0.5437210000000  0.4465790000000  0.4464850000000 1.0
C      1  0.5494330000000  0.5305200000000  0.4700530000000 1.0
C      1  0.5154010000000  0.5035390000000  0.5785220000000 1.0
C      1  0.4792880000000  0.5312990000000  0.5785820000000 1.0
C      1  0.4364660000000  0.4615990000000  0.5160120000000 1.0
C      1  0.4729310000000  0.5110040000000  0.4319610000000 1.0
C      1  0.5615980000000  0.4497860000000  0.5379140000000 1.0
C      1  0.4952060000000  0.5203630000000  0.4708880000000 1.0
C      1  0.4910420000000  0.5167550000000  0.5327100000000 1.0
C      1  0.5114740000000  0.4500040000000  0.5543280000000 1.0
C      1  0.4798640000000  0.5698350000000  0.4783050000000 1.0
C      1  0.4439800000000  0.4428650000000  0.4656870000000 1.0
C      1  0.4725150000000  0.4314510000000  0.5279740000000 1.0
C      1  0.5627830000000  0.4675180000000  0.4405220000000 1.0
C      1  0.5159720000000  0.5436300000000  0.5029850000000 1.0
C      1  0.5042750000000  0.5846190000000  0.4773230000000 1.0
C      1  0.5398990000000  0.4622880000000  0.5194880000000 1.0
C      1  0.5072520000000  0.5868620000000  0.5270600000000 1.0
C      1  0.4686900000000  0.5641490000000  0.5074160000000 1.0
C      1  0.4893640000000  0.4628260000000  0.5697890000000 1.0
C      1  0.5392860000000  0.5144810000000  0.5369200000000 1.0
C      1  0.5064850000000  0.5174490000000  0.4107060000000 1.0
C      1  0.4353360000000  0.4943780000000  0.5148850000000 1.0
C      1  0.4840570000000  0.5479640000000  0.4570260000000 1.0
C      1  0.4420260000000  0.4660890000000  0.4489060000000 1.0
C      1  0.5450030000000  0.5609100000000  0.4707460000000 1.0
C      1  0.5224500000000  0.5312130000000  0.4274800000000 1.0
C      1  0.4532800000000  0.4509350000000  0.5373200000000 1.0
C      1  0.4245020000000  0.5110130000000  0.4678040000000 1.0
C      1  0.5227810000000  0.5718240000000  0.4576630000000 1.0
C      1  0.4615840000000  0.5351710000000  0.4419740000000 1.0
C      1  0.5715340000000  0.5296970000000  0.4892270000000 1.0
C      1  0.5312850000000  0.4936870000000  0.5564000000000 1.0
C      1  0.4755810000000  0.5185870000000  0.4916700000000 1.0
C      1  0.4965290000000  0.4758280000000  0.4759140000000 1.0
C      1  0.4194450000000  0.5143410000000  0.4964180000000 1.0
C      1  0.5434530000000  0.5128580000000  0.4434200000000 1.0
C      1  0.5278620000000  0.4721370000000  0.4755440000000 1.0
C      1  0.5755050000000  0.4919600000000  0.5542070000000 1.0
C      1  0.5354860000000  0.5661470000000  0.4974280000000 1.0
C      1  0.4801760000000  0.4746740000000  0.4096680000000 1.0
C      1  0.5195370000000  0.5891810000000  0.5021700000000 1.0
C      1  0.5082320000000  0.5312170000000  0.5782970000000 1.0
C      1  0.5182240000000  0.4735170000000  0.5373840000000 1.0
C      1  0.4644020000000  0.5480900000000  0.5615650000000 1.0
C      1  0.4930980000000  0.4874470000000  0.5831980000000 1.0
END
