TITL C-22062-8364-1 -93.193589971232 125000 -1121.14209126904 0 0 160 (C1) n - 1
REM
REM in /rds/project/t2_vol4/rds-t2-cs072/BORA/CARBON/from-Arr/AIRSS/Generating-Clusters/GAP-ML-2020/Higher-Symm/SD-CG/HFTN-CG/C160-200
REM
REM
REM
REM
REM
REM ./C.cell (6b4489405718ea1b717e0baf1da4c2d9)
REM AIRSS Version 0.9.1 bugfix July 2018 build 013d7b7c2542+ Fri, 06 Jul 2018 19:26:36 +0100
REM compiler GCC version 9.3.0
REM options -cpp -mtune=generic -march=x86-64 -g -O0
REM seed -578784381 -88945462 -981850398 193223997 1115282800 -699999452 -1099850354 1047380801 1065518755 -1239980419 -1962082201 -1663786964 1117639634 474313638 1580489383 -108700991 1518941921 -1938768192 -371458897 1006587779 983301563 -1545601447 -1629723426 -790635269 -178064252 1920319267 -1684401144 -1025563750 -1222811972 1705201887 650501311 37885727 -835701371
REM
CELL 1.54180   50.00000   50.00000   50.00000   90.00000   90.00000   90.00000
LATT -1
SFAC C  
C      1  0.4916350000000  0.5909240000000  0.4498260000000 1.0
C      1  0.5736360000000  0.4584620000000  0.4972570000000 1.0
C      1  0.4527270000000  0.4934860000000  0.5867660000000 1.0
C      1  0.5040230000000  0.4202860000000  0.4583880000000 1.0
C      1  0.4917540000000  0.4102580000000  0.5477600000000 1.0
C      1  0.5030450000000  0.5792880000000  0.5397870000000 1.0
C      1  0.4243730000000  0.5431020000000  0.5012350000000 1.0
C      1  0.5744670000000  0.5415270000000  0.5019170000000 1.0
C      1  0.4133380000000  0.4523410000000  0.5056080000000 1.0
C      1  0.5406670000000  0.4995850000000  0.5777080000000 1.0
C      1  0.4671150000000  0.4999610000000  0.4301420000000 1.0
C      1  0.5428840000000  0.4996510000000  0.4196220000000 1.0
C      1  0.5763250000000  0.4988160000000  0.4577510000000 1.0
C      1  0.4574900000000  0.5799430000000  0.4978830000000 1.0
C      1  0.4955340000000  0.4593990000000  0.5760640000000 1.0
C      1  0.4159720000000  0.5038380000000  0.4569500000000 1.0
C      1  0.4279780000000  0.4981690000000  0.5405310000000 1.0
C      1  0.5738620000000  0.5007930000000  0.5405430000000 1.0
C      1  0.5375150000000  0.4217800000000  0.4984210000000 1.0
C      1  0.5390050000000  0.5792720000000  0.5008420000000 1.0
C      1  0.4586170000000  0.4210290000000  0.5005100000000 1.0
C      1  0.5043630000000  0.5451590000000  0.5873150000000 1.0
C      1  0.5075700000000  0.4507350000000  0.4111070000000 1.0
C      1  0.4972470000000  0.5413910000000  0.4213690000000 1.0
C      1  0.4507160000000  0.5370730000000  0.5202890000000 1.0
C      1  0.5342860000000  0.5165670000000  0.4450480000000 1.0
C      1  0.4986610000000  0.4633110000000  0.5220080000000 1.0
C      1  0.5422380000000  0.4713350000000  0.5039420000000 1.0
C      1  0.4622250000000  0.4936070000000  0.5023900000000 1.0
C      1  0.5437830000000  0.5288850000000  0.4944170000000 1.0
C      1  0.4876090000000  0.4983420000000  0.4554490000000 1.0
C      1  0.5301140000000  0.4842490000000  0.5522440000000 1.0
C      1  0.4856580000000  0.5065070000000  0.5425750000000 1.0
C      1  0.4998630000000  0.5516760000000  0.5193710000000 1.0
C      1  0.5045990000000  0.5424510000000  0.4727250000000 1.0
C      1  0.4982200000000  0.4490380000000  0.4763330000000 1.0
C      1  0.5200100000000  0.4501670000000  0.5050410000000 1.0
C      1  0.5073670000000  0.5252150000000  0.4483770000000 1.0
C      1  0.4568360000000  0.5092750000000  0.5279590000000 1.0
C      1  0.4720240000000  0.5513690000000  0.5076870000000 1.0
C      1  0.4709820000000  0.4488110000000  0.4868980000000 1.0
C      1  0.5228250000000  0.5518750000000  0.4935800000000 1.0
C      1  0.5059560000000  0.4766220000000  0.4657090000000 1.0
C      1  0.5047530000000  0.5237850000000  0.5291560000000 1.0
C      1  0.5016900000000  0.4785750000000  0.5477050000000 1.0
C      1  0.5444720000000  0.4908710000000  0.5282580000000 1.0
C      1  0.5463800000000  0.5089050000000  0.4698520000000 1.0
C      1  0.4733730000000  0.5077270000000  0.4807520000000 1.0
C      1  0.4018430000000  0.5246180000000  0.5053360000000 1.0
C      1  0.5231660000000  0.5033630000000  0.3965820000000 1.0
C      1  0.4984520000000  0.3935480000000  0.5249650000000 1.0
C      1  0.5975410000000  0.4758950000000  0.5019410000000 1.0
C      1  0.3967650000000  0.4753800000000  0.4997600000000 1.0
C      1  0.5983980000000  0.5238020000000  0.4980410000000 1.0
C      1  0.4768760000000  0.4933450000000  0.4022920000000 1.0
C      1  0.5224060000000  0.4955810000000  0.6009860000000 1.0
C      1  0.4744410000000  0.5002800000000  0.6050660000000 1.0
C      1  0.4981220000000  0.6039330000000  0.5226900000000 1.0
C      1  0.4986010000000  0.6070150000000  0.4735020000000 1.0
C      1  0.4984510000000  0.3958850000000  0.4756100000000 1.0
C      1  0.5225570000000  0.3961330000000  0.5044730000000 1.0
C      1  0.5009400000000  0.5242720000000  0.3974010000000 1.0
C      1  0.4028070000000  0.5039830000000  0.5261870000000 1.0
C      1  0.4755710000000  0.6038700000000  0.5020050000000 1.0
C      1  0.4755740000000  0.3968630000000  0.4957760000000 1.0
C      1  0.5227680000000  0.6043450000000  0.4948350000000 1.0
C      1  0.5001040000000  0.4743040000000  0.3957270000000 1.0
C      1  0.4976800000000  0.5226140000000  0.6046280000000 1.0
C      1  0.5012160000000  0.4745150000000  0.6010500000000 1.0
C      1  0.5980640000000  0.4968620000000  0.5240720000000 1.0
C      1  0.5995730000000  0.5021030000000  0.4761940000000 1.0
C      1  0.3974160000000  0.4978830000000  0.4782420000000 1.0
C      1  0.5480870000000  0.5702650000000  0.5297790000000 1.0
C      1  0.5664960000000  0.5288300000000  0.5490780000000 1.0
C      1  0.5281870000000  0.5491260000000  0.5715320000000 1.0
C      1  0.4496890000000  0.4285380000000  0.5289010000000 1.0
C      1  0.5484310000000  0.4296210000000  0.4698830000000 1.0
C      1  0.4493790000000  0.5714760000000  0.4697720000000 1.0
C      1  0.4317380000000  0.4701820000000  0.5489270000000 1.0
C      1  0.5680690000000  0.4708400000000  0.4495840000000 1.0
C      1  0.4309240000000  0.5282290000000  0.4532160000000 1.0
C      1  0.4689460000000  0.4483620000000  0.5699640000000 1.0
C      1  0.5311010000000  0.4488490000000  0.4272170000000 1.0
C      1  0.4697870000000  0.5500430000000  0.4307690000000 1.0
C      1  0.5674250000000  0.5496920000000  0.5296310000000 1.0
C      1  0.5292370000000  0.5701740000000  0.5507090000000 1.0
C      1  0.5471870000000  0.5281910000000  0.5696470000000 1.0
C      1  0.4297990000000  0.4494150000000  0.5293160000000 1.0
C      1  0.4313850000000  0.5494080000000  0.4722670000000 1.0
C      1  0.5677410000000  0.4503010000000  0.4695950000000 1.0
C      1  0.4682980000000  0.4271280000000  0.5500840000000 1.0
C      1  0.4683670000000  0.5733310000000  0.4482010000000 1.0
C      1  0.5309590000000  0.4286320000000  0.4482660000000 1.0
C      1  0.4499090000000  0.4690630000000  0.5707270000000 1.0
C      1  0.4532330000000  0.5278470000000  0.4343460000000 1.0
C      1  0.5493460000000  0.4709130000000  0.4285940000000 1.0
C      1  0.4166810000000  0.4338540000000  0.4565230000000 1.0
C      1  0.4410900000000  0.4537400000000  0.4183060000000 1.0
C      1  0.4568680000000  0.4123140000000  0.4366650000000 1.0
C      1  0.5823090000000  0.5641690000000  0.4555270000000 1.0
C      1  0.4130460000000  0.5656830000000  0.5443350000000 1.0
C      1  0.5820040000000  0.4354800000000  0.5432310000000 1.0
C      1  0.5647600000000  0.5448550000000  0.4133980000000 1.0
C      1  0.4346990000000  0.5431110000000  0.5829810000000 1.0
C      1  0.5643460000000  0.4555240000000  0.5849680000000 1.0
C      1  0.5424660000000  0.5839620000000  0.4346350000000 1.0
C      1  0.4547470000000  0.5835780000000  0.5619950000000 1.0
C      1  0.5422380000000  0.4160650000000  0.5644950000000 1.0
C      1  0.4367130000000  0.4126370000000  0.4557340000000 1.0
C      1  0.4578910000000  0.4320180000000  0.4148340000000 1.0
C      1  0.4195060000000  0.4545570000000  0.4379710000000 1.0
C      1  0.5619490000000  0.5847700000000  0.4551360000000 1.0
C      1  0.5615600000000  0.4148920000000  0.5440520000000 1.0
C      1  0.4340470000000  0.5857130000000  0.5434590000000 1.0
C      1  0.5437560000000  0.5632710000000  0.4142510000000 1.0
C      1  0.5432520000000  0.4372540000000  0.5844410000000 1.0
C      1  0.4547290000000  0.5627720000000  0.5825290000000 1.0
C      1  0.5836510000000  0.5446880000000  0.4354810000000 1.0
C      1  0.5832850000000  0.4552940000000  0.5629420000000 1.0
C      1  0.4141010000000  0.5446090000000  0.5624820000000 1.0
C      1  0.4222920000000  0.4832280000000  0.4401800000000 1.0
C      1  0.4870040000000  0.4328200000000  0.4153410000000 1.0
C      1  0.4361230000000  0.4136250000000  0.4847390000000 1.0
C      1  0.5835730000000  0.5159240000000  0.4357120000000 1.0
C      1  0.4162330000000  0.5154010000000  0.5609570000000 1.0
C      1  0.5824540000000  0.4841610000000  0.5621930000000 1.0
C      1  0.5146730000000  0.5633510000000  0.4150100000000 1.0
C      1  0.4838020000000  0.5625340000000  0.5820260000000 1.0
C      1  0.5143800000000  0.4386670000000  0.5818050000000 1.0
C      1  0.5613700000000  0.5837830000000  0.4839420000000 1.0
C      1  0.4346320000000  0.5853820000000  0.5147680000000 1.0
C      1  0.5596260000000  0.4165680000000  0.5153580000000 1.0
C      1  0.4858340000000  0.4147440000000  0.4374140000000 1.0
C      1  0.4458030000000  0.4819510000000  0.4230960000000 1.0
C      1  0.4155690000000  0.4334860000000  0.4856370000000 1.0
C      1  0.5132300000000  0.5856690000000  0.4329460000000 1.0
C      1  0.5130790000000  0.4158920000000  0.5644430000000 1.0
C      1  0.4837050000000  0.5816470000000  0.5606120000000 1.0
C      1  0.5663570000000  0.5156040000000  0.4130090000000 1.0
C      1  0.5646000000000  0.4844310000000  0.5844390000000 1.0
C      1  0.4345650000000  0.5139690000000  0.5832920000000 1.0
C      1  0.5811420000000  0.5631720000000  0.4844330000000 1.0
C      1  0.5800030000000  0.4366320000000  0.5144810000000 1.0
C      1  0.4139210000000  0.5659750000000  0.5152860000000 1.0
C      1  0.5183280000000  0.3779030000000  0.4835770000000 1.0
C      1  0.4828570000000  0.4792320000000  0.6218360000000 1.0
C      1  0.3831800000000  0.4843510000000  0.5223750000000 1.0
C      1  0.4778140000000  0.5154380000000  0.3852760000000 1.0
C      1  0.6155060000000  0.5179440000000  0.5191720000000 1.0
C      1  0.3821580000000  0.5198010000000  0.4863400000000 1.0
C      1  0.6165560000000  0.4808460000000  0.4820910000000 1.0
C      1  0.5182540000000  0.4839670000000  0.3764740000000 1.0
C      1  0.4788750000000  0.6245990000000  0.4830160000000 1.0
C      1  0.4780050000000  0.3770310000000  0.5155360000000 1.0
C      1  0.5179990000000  0.6223570000000  0.5156760000000 1.0
C      1  0.5185360000000  0.5142390000000  0.6216080000000 1.0
C      1  0.5299570000000  0.4859510000000  0.4794940000000 1.0
C      1  0.4811120000000  0.5338130000000  0.4856230000000 1.0
C      1  0.4746160000000  0.4688030000000  0.5064020000000 1.0
C      1  0.5295890000000  0.5142550000000  0.5176580000000 1.0
END
