TITL C-22203-3679-1 34.13561027741 125000 -121.477679468713 0 0 18 (D2h) n - 1
REM
REM in /rds/project/t2_vol4/rds-t2-cs072/BORA/CARBON/from-Arr/AIRSS/Generating-Clusters/GAP-ML-2020/Higher-Symm/SD-CG/HFTN-CG
REM
REM
REM
REM
REM
REM ./C.cell (b20cbc046b6831c77cfcea5457e17084)
REM AIRSS Version 0.9.1 bugfix July 2018 build 013d7b7c2542+ Fri, 06 Jul 2018 19:26:36 +0100
REM compiler GCC version 9.3.0
REM options -cpp -mtune=generic -march=x86-64 -g -O0
REM seed 2015036011 -1426378928 1358933350 -1463851481 -977072034 -580276984 611989445 -2124511555 -203797222 466758326 -617841749 1620204623 -1968121794 730645004 -536278867 673696826 -629622873 1395640455 1519865744 -339753279 81222562 -954601762 526237854 1115459445 635204707 613973233 -830216923 1832664756 1535916996 -83064785 -1670749460 -1831836395 -181485679
REM
CELL 1.54180   50.00000   50.00000   50.00000   90.00000   90.00000   90.00000
LATT -1
SFAC C  
C      1  0.5393910000000  0.4972410000000  0.5410460000000 1.0
C      1  0.5608990000000  0.4967820000000  0.4673200000000 1.0
C      1  0.5169000000000  0.4963360000000  0.4124210000000 1.0
C      1  0.4606090000000  0.4965520000000  0.4589540000000 1.0
C      1  0.4391020000000  0.4970100000000  0.5326800000000 1.0
C      1  0.4831000000000  0.4974570000000  0.5875790000000 1.0
C      1  0.5576280000000  0.4966030000000  0.4416520000000 1.0
C      1  0.5485060000000  0.4970950000000  0.5170210000000 1.0
C      1  0.5085290000000  0.4974600000000  0.5815630000000 1.0
C      1  0.4423720000000  0.4971890000000  0.5583480000000 1.0
C      1  0.4514940000000  0.4966970000000  0.4829790000000 1.0
C      1  0.4914710000000  0.4963320000000  0.4184370000000 1.0
C      1  0.5564030000000  0.4969440000000  0.4925690000000 1.0
C      1  0.4584650000000  0.4973560000000  0.5789340000000 1.0
C      1  0.5271220000000  0.4973710000000  0.5635670000000 1.0
C      1  0.4728780000000  0.4964210000000  0.4364330000000 1.0
C      1  0.5415350000000  0.4964370000000  0.4210660000000 1.0
C      1  0.4435970000000  0.4968480000000  0.5074310000000 1.0
END
