TITL C-22450-4520-4 -0.0734034031489419 125000 -260.060069204353 0 0 37 (C1) n - 1
REM
REM in /rds/project/t2_vol4/rds-t2-cs072/BORA/CARBON/from-Arr/AIRSS/Generating-Clusters/GAP-ML-2020/Higher-Symm/SD-CG/HFTN-CG
REM
REM
REM
REM
REM
REM ./C.cell (b20cbc046b6831c77cfcea5457e17084)
REM AIRSS Version 0.9.1 bugfix July 2018 build 013d7b7c2542+ Fri, 06 Jul 2018 19:26:36 +0100
REM compiler GCC version 9.3.0
REM options -cpp -mtune=generic -march=x86-64 -g -O0
REM seed -101478105 -45705276 1617192765 -162099132 1736875286 1578213305 1940457319 1060689301 -1859163090 839815495 1698955325 -761292429 -1916466049 910735659 859346598 1427607750 1026519239 707198847 1380940597 347122857 1176692014 -157396337 -1631014537 -238124355 -1372869089 1125269127 659348690 -1151052230 -1008303047 -1955546734 -1933197931 -1265679350 -799394408
REM
CELL 1.54180   50.00000   50.00000   50.00000   90.00000   90.00000   90.00000
LATT -1
SFAC C  
C      1  0.5179300000000  0.4467590000000  0.5005420000000 1.0
C      1  0.5131120000000  0.5245460000000  0.5420150000000 1.0
C      1  0.5122920000000  0.5235830000000  0.4578340000000 1.0
C      1  0.4882850000000  0.4408300000000  0.5015580000000 1.0
C      1  0.4824760000000  0.5235680000000  0.4600410000000 1.0
C      1  0.4836230000000  0.5256490000000  0.5421870000000 1.0
C      1  0.5242050000000  0.4989230000000  0.5460050000000 1.0
C      1  0.5262420000000  0.5404130000000  0.4763710000000 1.0
C      1  0.5273250000000  0.4578020000000  0.4758160000000 1.0
C      1  0.4702330000000  0.4977080000000  0.4593730000000 1.0
C      1  0.4713540000000  0.5447650000000  0.5249000000000 1.0
C      1  0.4770420000000  0.4316430000000  0.5253030000000 1.0
C      1  0.4857610000000  0.5667980000000  0.5154150000000 1.0
C      1  0.4814000000000  0.4787230000000  0.4413390000000 1.0
C      1  0.4851620000000  0.4494250000000  0.5435750000000 1.0
C      1  0.5132650000000  0.5643430000000  0.4848260000000 1.0
C      1  0.5081250000000  0.4799710000000  0.5594240000000 1.0
C      1  0.5117220000000  0.4529530000000  0.4520930000000 1.0
C      1  0.4705710000000  0.5416220000000  0.4785110000000 1.0
C      1  0.4735440000000  0.4566950000000  0.4820840000000 1.0
C      1  0.4704870000000  0.4998680000000  0.5361090000000 1.0
C      1  0.5268800000000  0.5410000000000  0.5229050000000 1.0
C      1  0.5285410000000  0.4576160000000  0.5245750000000 1.0
C      1  0.5244070000000  0.4981990000000  0.4529610000000 1.0
C      1  0.5096000000000  0.4788860000000  0.4379670000000 1.0
C      1  0.5133060000000  0.4537090000000  0.5485030000000 1.0
C      1  0.5141100000000  0.5650280000000  0.5144650000000 1.0
C      1  0.4802360000000  0.4780170000000  0.5515990000000 1.0
C      1  0.4831890000000  0.4529880000000  0.4554700000000 1.0
C      1  0.4849420000000  0.5653210000000  0.4854840000000 1.0
C      1  0.4606320000000  0.5020490000000  0.5081870000000 1.0
C      1  0.4591830000000  0.5304380000000  0.5026780000000 1.0
C      1  0.4644300000000  0.4847200000000  0.4849780000000 1.0
C      1  0.5370770000000  0.4848640000000  0.4751840000000 1.0
C      1  0.5378930000000  0.5274750000000  0.4995610000000 1.0
C      1  0.5379790000000  0.4852670000000  0.5244160000000 1.0
C      1  0.5417450000000  0.4991680000000  0.4996650000000 1.0
END
