TITL C-22172-2605-6 -51.368235270834 125000 -316.375403111185 0 0 48 (Td) n - 1
REM
REM in /rds/project/t2_vol4/rds-t2-cs072/BORA/CARBON/from-Arr/AIRSS/Generating-Clusters/GAP-ML-2020/Higher-Symm/SD-CG/HFTN-CG
REM
REM
REM
REM
REM
REM ./C.cell (b20cbc046b6831c77cfcea5457e17084)
REM AIRSS Version 0.9.1 bugfix July 2018 build 013d7b7c2542+ Fri, 06 Jul 2018 19:26:36 +0100
REM compiler GCC version 9.3.0
REM options -cpp -mtune=generic -march=x86-64 -g -O0
REM seed -990367482 -2146351572 2073058639 875768639 1023340638 1856859160 529095001 -1927118946 -1982294954 353313484 -1922258270 -387811479 680069052 1873405568 -168588864 1140780347 -1951541134 -554222731 1072486058 1058296970 784818236 750956010 -547948754 1762048364 -59705714 1913163441 -2085155158 -1158239286 8492823 -971845885 790964335 -1406267817 -1134010788
REM
CELL 1.54180   50.00000   50.00000   50.00000   90.00000   90.00000   90.00000
LATT -1
SFAC C  
C      1  0.4788010000000  0.5416290000000  0.4999480000000 1.0
C      1  0.5416290000000  0.4999480000000  0.4788010000000 1.0
C      1  0.4999480000000  0.4788010000000  0.5416290000000 1.0
C      1  0.5211990000000  0.4583710000000  0.4999480000000 1.0
C      1  0.4788010000000  0.4583710000000  0.5000520000000 1.0
C      1  0.5211990000000  0.5416290000000  0.5000520000000 1.0
C      1  0.4583710000000  0.5000520000000  0.4788010000000 1.0
C      1  0.5416290000000  0.5000520000000  0.5211990000000 1.0
C      1  0.4583710000000  0.4999480000000  0.5211990000000 1.0
C      1  0.5000520000000  0.5211990000000  0.5416290000000 1.0
C      1  0.4999480000000  0.5211990000000  0.4583710000000 1.0
C      1  0.5000520000000  0.4788010000000  0.4583710000000 1.0
C      1  0.5416290000000  0.4788010000000  0.4999480000000 1.0
C      1  0.4999480000000  0.5416290000000  0.4788010000000 1.0
C      1  0.4788010000000  0.4999480000000  0.5416290000000 1.0
C      1  0.4583710000000  0.5211990000000  0.4999480000000 1.0
C      1  0.4583710000000  0.4788010000000  0.5000520000000 1.0
C      1  0.5416290000000  0.5211990000000  0.5000520000000 1.0
C      1  0.5000520000000  0.4583710000000  0.4788010000000 1.0
C      1  0.5000520000000  0.5416290000000  0.5211990000000 1.0
C      1  0.4999480000000  0.4583710000000  0.5211990000000 1.0
C      1  0.5211990000000  0.5000520000000  0.5416290000000 1.0
C      1  0.5211990000000  0.4999480000000  0.4583710000000 1.0
C      1  0.4788010000000  0.5000520000000  0.4583710000000 1.0
C      1  0.5588960000000  0.4617400000000  0.5176860000000 1.0
C      1  0.4617400000000  0.5176860000000  0.5588960000000 1.0
C      1  0.5176860000000  0.5588960000000  0.4617390000000 1.0
C      1  0.4411040000000  0.5382600000000  0.5176860000000 1.0
C      1  0.5588960000000  0.5382610000000  0.4823140000000 1.0
C      1  0.4411040000000  0.4617400000000  0.4823140000000 1.0
C      1  0.5382600000000  0.4823140000000  0.5588960000000 1.0
C      1  0.4617400000000  0.4823140000000  0.4411040000000 1.0
C      1  0.5382610000000  0.5176860000000  0.4411040000000 1.0
C      1  0.4823140000000  0.4411040000000  0.4617400000000 1.0
C      1  0.5176860000000  0.4411040000000  0.5382600000000 1.0
C      1  0.4823140000000  0.5588960000000  0.5382600000000 1.0
C      1  0.4617400000000  0.5588960000000  0.5176860000000 1.0
C      1  0.5176860000000  0.4617390000000  0.5588960000000 1.0
C      1  0.5588960000000  0.5176860000000  0.4617400000000 1.0
C      1  0.5382600000000  0.4411040000000  0.5176860000000 1.0
C      1  0.5382600000000  0.5588960000000  0.4823140000000 1.0
C      1  0.4617400000000  0.4411040000000  0.4823140000000 1.0
C      1  0.4823140000000  0.5382600000000  0.5588960000000 1.0
C      1  0.4823140000000  0.4617400000000  0.4411040000000 1.0
C      1  0.5176860000000  0.5382600000000  0.4411040000000 1.0
C      1  0.4411040000000  0.4823140000000  0.4617400000000 1.0
C      1  0.4411040000000  0.5176860000000  0.5382610000000 1.0
C      1  0.5588960000000  0.4823140000000  0.5382600000000 1.0
END
