TITL C-22170-1971-10 0.0203552886618429 125000 -386.92808453773 0 0 57 (C1) n - 1
REM
REM in /rds/project/t2_vol4/rds-t2-cs072/BORA/CARBON/from-Arr/AIRSS/Generating-Clusters/GAP-ML-2020/Higher-Symm/SD-CG/HFTN-CG
REM
REM
REM
REM
REM
REM ./C.cell (b20cbc046b6831c77cfcea5457e17084)
REM AIRSS Version 0.9.1 bugfix July 2018 build 013d7b7c2542+ Fri, 06 Jul 2018 19:26:36 +0100
REM compiler GCC version 9.3.0
REM options -cpp -mtune=generic -march=x86-64 -g -O0
REM seed 596800767 867418672 -235915155 865027407 200122093 -2077199070 -1790984112 772550753 1980697502 1968647100 -1460848886 -1055602960 -169895749 -2060444272 1936147934 -1059690669 568431737 660245659 1916122814 -230966570 1336841350 -1162115631 -561604576 479101564 -1672569128 1022952499 422690437 -1190622015 -1268287765 783443670 1870933607 1008806920 -1307457863
REM
CELL 1.54180   50.00000   50.00000   50.00000   90.00000   90.00000   90.00000
LATT -1
SFAC C  
C      1  0.4765540000000  0.4633000000000  0.5531180000000 1.0
C      1  0.4862940000000  0.5721660000000  0.4923710000000 1.0
C      1  0.5378100000000  0.5244660000000  0.5417030000000 1.0
C      1  0.5609960000000  0.5155570000000  0.4589310000000 1.0
C      1  0.4703270000000  0.5055060000000  0.4599110000000 1.0
C      1  0.5112890000000  0.4550120000000  0.4453360000000 1.0
C      1  0.4478300000000  0.4851250000000  0.4606330000000 1.0
C      1  0.5303700000000  0.4397030000000  0.5129120000000 1.0
C      1  0.5011420000000  0.5576780000000  0.5107100000000 1.0
C      1  0.4597060000000  0.4629750000000  0.4497720000000 1.0
C      1  0.4993630000000  0.4780650000000  0.5627570000000 1.0
C      1  0.4979460000000  0.5419560000000  0.4527620000000 1.0
C      1  0.5558320000000  0.4810710000000  0.5229790000000 1.0
C      1  0.4909420000000  0.5293060000000  0.5489480000000 1.0
C      1  0.5506500000000  0.4587150000000  0.5067510000000 1.0
C      1  0.4809930000000  0.5209880000000  0.5026950000000 1.0
C      1  0.5062340000000  0.5523090000000  0.5388270000000 1.0
C      1  0.4866970000000  0.4441640000000  0.5331710000000 1.0
C      1  0.5492340000000  0.5367270000000  0.4710660000000 1.0
C      1  0.5184600000000  0.5009040000000  0.4644090000000 1.0
C      1  0.5341230000000  0.5060420000000  0.5606930000000 1.0
C      1  0.5076170000000  0.4876870000000  0.5182170000000 1.0
C      1  0.4858260000000  0.4579570000000  0.4612370000000 1.0
C      1  0.4855750000000  0.4905450000000  0.5015800000000 1.0
C      1  0.5164560000000  0.4348490000000  0.4881010000000 1.0
C      1  0.4365270000000  0.5360800000000  0.4876030000000 1.0
C      1  0.5178760000000  0.5301110000000  0.4713110000000 1.0
C      1  0.5436970000000  0.4808140000000  0.5491300000000 1.0
C      1  0.4399760000000  0.4854220000000  0.4889210000000 1.0
C      1  0.4697450000000  0.5247650000000  0.5302360000000 1.0
C      1  0.5467750000000  0.4932360000000  0.4745990000000 1.0
C      1  0.4593470000000  0.4723060000000  0.5071800000000 1.0
C      1  0.5577220000000  0.5351530000000  0.4991940000000 1.0
C      1  0.4851310000000  0.5639160000000  0.4641000000000 1.0
C      1  0.5242560000000  0.5123560000000  0.5156030000000 1.0
C      1  0.4739620000000  0.4460290000000  0.5079550000000 1.0
C      1  0.4920880000000  0.4876240000000  0.4732080000000 1.0
C      1  0.5082610000000  0.5315780000000  0.4994980000000 1.0
C      1  0.5520550000000  0.5527960000000  0.5186070000000 1.0
C      1  0.4346050000000  0.5107270000000  0.5018400000000 1.0
C      1  0.4892350000000  0.4400950000000  0.4853340000000 1.0
C      1  0.4482910000000  0.4813210000000  0.5342380000000 1.0
C      1  0.5127820000000  0.4747960000000  0.4258980000000 1.0
C      1  0.4864390000000  0.5181830000000  0.4390130000000 1.0
C      1  0.4629470000000  0.5254630000000  0.4808760000000 1.0
C      1  0.5353070000000  0.5517440000000  0.5408920000000 1.0
C      1  0.5149110000000  0.4426190000000  0.5361410000000 1.0
C      1  0.5054080000000  0.5064230000000  0.5634420000000 1.0
C      1  0.5095370000000  0.4998360000000  0.4348230000000 1.0
C      1  0.4454400000000  0.5094690000000  0.5286020000000 1.0
C      1  0.5229490000000  0.4627920000000  0.5546450000000 1.0
C      1  0.4494120000000  0.4672220000000  0.5575080000000 1.0
C      1  0.4364070000000  0.5624660000000  0.4828580000000 1.0
C      1  0.5502920000000  0.5046280000000  0.5038200000000 1.0
C      1  0.5491000000000  0.4643590000000  0.4786090000000 1.0
C      1  0.5296210000000  0.4479740000000  0.4660240000000 1.0
C      1  0.4616330000000  0.5749260000000  0.4787000000000 1.0
END
