TITL C-237553-9987-6 -43.6668996574419 125000 -933.457241983762 0 0 136 (C1) n - 1
REM
REM in /rds/project/t2_vol4/rds-t2-cs072/BORA/CARBON/from-Arr/AIRSS/Generating-Clusters/GAP-ML-2020/Higher-Symm/SD-CG/HFTN-CG
REM
REM
REM
REM
REM
REM ./C.cell (b20cbc046b6831c77cfcea5457e17084)
REM AIRSS Version 0.9.1 bugfix July 2018 build 013d7b7c2542+ Fri, 06 Jul 2018 19:26:36 +0100
REM compiler GCC version 9.3.0
REM options -cpp -mtune=generic -march=x86-64 -g -O0
REM seed -1480769644 1469804448 -833315862 -574203111 1753763904 2063525590 -1284296528 -1039498127 -748409786 959273512 2024419133 -1478279789 -920122161 1572497953 401530122 272883781 328858970 -778831115 -194717425 -193199700 1272525226 -1468724341 510609925 -999468917 1820935082 1771435576 -1932051207 115267347 2032106374 -1963827036 1499904705 -1356001297 -44542231
REM
CELL 1.54180   50.00000   50.00000   50.00000   90.00000   90.00000   90.00000
LATT -1
SFAC C  
C      1  0.4085940000000  0.4727950000000  0.5019610000000 1.0
C      1  0.4071310000000  0.5165410000000  0.4933010000000 1.0
C      1  0.4498520000000  0.5772970000000  0.4973370000000 1.0
C      1  0.5228270000000  0.5922440000000  0.5000360000000 1.0
C      1  0.5614710000000  0.5718570000000  0.4917030000000 1.0
C      1  0.5963480000000  0.5061920000000  0.4953010000000 1.0
C      1  0.5787280000000  0.4392450000000  0.4922800000000 1.0
C      1  0.5202460000000  0.4050300000000  0.4924200000000 1.0
C      1  0.4499250000000  0.4112030000000  0.4914740000000 1.0
C      1  0.4234070000000  0.5391680000000  0.4875060000000 1.0
C      1  0.4735150000000  0.5854510000000  0.4858990000000 1.0
C      1  0.5392670000000  0.5833050000000  0.4771560000000 1.0
C      1  0.5731370000000  0.5467530000000  0.4854740000000 1.0
C      1  0.5908350000000  0.4821160000000  0.4844970000000 1.0
C      1  0.5558530000000  0.4282180000000  0.4834050000000 1.0
C      1  0.4967460000000  0.4061010000000  0.4796380000000 1.0
C      1  0.4377620000000  0.4348500000000  0.4850380000000 1.0
C      1  0.4070940000000  0.4911030000000  0.4788890000000 1.0
C      1  0.4967200000000  0.4633540000000  0.4853120000000 1.0
C      1  0.4721960000000  0.4712110000000  0.4720590000000 1.0
C      1  0.4566120000000  0.4948050000000  0.4834100000000 1.0
C      1  0.4680500000000  0.5196380000000  0.4715560000000 1.0
C      1  0.4885860000000  0.5393400000000  0.4807250000000 1.0
C      1  0.5191830000000  0.5375430000000  0.4801600000000 1.0
C      1  0.5355250000000  0.5142110000000  0.4727660000000 1.0
C      1  0.5422060000000  0.4865220000000  0.4844840000000 1.0
C      1  0.5231790000000  0.4661310000000  0.4728210000000 1.0
C      1  0.4724270000000  0.4385040000000  0.4162150000000 1.0
C      1  0.4327570000000  0.4668470000000  0.4154730000000 1.0
C      1  0.4268310000000  0.5171960000000  0.4161290000000 1.0
C      1  0.4584230000000  0.5543500000000  0.4200020000000 1.0
C      1  0.5037480000000  0.5746850000000  0.4158920000000 1.0
C      1  0.5517900000000  0.5571040000000  0.4155730000000 1.0
C      1  0.5741140000000  0.5118500000000  0.4185810000000 1.0
C      1  0.5636930000000  0.4614240000000  0.4166730000000 1.0
C      1  0.5209210000000  0.4361340000000  0.4156420000000 1.0
C      1  0.4558990000000  0.4906240000000  0.6004840000000 1.0
C      1  0.4587290000000  0.5195790000000  0.5920550000000 1.0
C      1  0.4747370000000  0.5438600000000  0.5935040000000 1.0
C      1  0.5047480000000  0.5450060000000  0.5882790000000 1.0
C      1  0.5313090000000  0.5386770000000  0.5984460000000 1.0
C      1  0.5398250000000  0.5122090000000  0.6056000000000 1.0
C      1  0.5277490000000  0.4857030000000  0.6032290000000 1.0
C      1  0.5031900000000  0.4775130000000  0.6127870000000 1.0
C      1  0.4796520000000  0.4742590000000  0.5999300000000 1.0
C      1  0.5114200000000  0.4731360000000  0.5577430000000 1.0
C      1  0.4838680000000  0.4645130000000  0.5712750000000 1.0
C      1  0.4656620000000  0.4811890000000  0.5554700000000 1.0
C      1  0.4662370000000  0.5097770000000  0.5612670000000 1.0
C      1  0.4875270000000  0.5195690000000  0.5464660000000 1.0
C      1  0.5085460000000  0.5364730000000  0.5588880000000 1.0
C      1  0.5300300000000  0.5154440000000  0.5526780000000 1.0
C      1  0.5539490000000  0.4973960000000  0.5663410000000 1.0
C      1  0.5375010000000  0.4741220000000  0.5768930000000 1.0
C      1  0.5332670000000  0.5046320000000  0.4445150000000 1.0
C      1  0.5267790000000  0.4769890000000  0.4434720000000 1.0
C      1  0.5115540000000  0.4644490000000  0.4239690000000 1.0
C      1  0.4848420000000  0.4662000000000  0.4237270000000 1.0
C      1  0.4704810000000  0.4816610000000  0.4420000000000 1.0
C      1  0.4671790000000  0.5107600000000  0.4422520000000 1.0
C      1  0.4772840000000  0.5297250000000  0.4246390000000 1.0
C      1  0.5018050000000  0.5389750000000  0.4304350000000 1.0
C      1  0.5259860000000  0.5271630000000  0.4306950000000 1.0
C      1  0.5619060000000  0.5322910000000  0.4624670000000 1.0
C      1  0.5685140000000  0.4825040000000  0.4642000000000 1.0
C      1  0.5408880000000  0.4398360000000  0.4609140000000 1.0
C      1  0.4955160000000  0.4177310000000  0.4536820000000 1.0
C      1  0.4527310000000  0.4467760000000  0.4616610000000 1.0
C      1  0.4302260000000  0.4912390000000  0.4618290000000 1.0
C      1  0.4398480000000  0.5383350000000  0.4633130000000 1.0
C      1  0.4787290000000  0.5673580000000  0.4627880000000 1.0
C      1  0.5274050000000  0.5627370000000  0.4605550000000 1.0
C      1  0.5386520000000  0.4194930000000  0.5050830000000 1.0
C      1  0.4758400000000  0.4096150000000  0.4988270000000 1.0
C      1  0.4268790000000  0.4515590000000  0.5073870000000 1.0
C      1  0.4073220000000  0.4980150000000  0.5163570000000 1.0
C      1  0.4363110000000  0.5560370000000  0.5076710000000 1.0
C      1  0.4952920000000  0.5888830000000  0.5054090000000 1.0
C      1  0.5454840000000  0.5813550000000  0.5147540000000 1.0
C      1  0.5835060000000  0.5279330000000  0.5055580000000 1.0
C      1  0.5853100000000  0.4621510000000  0.5046620000000 1.0
C      1  0.5300480000000  0.5720640000000  0.4056870000000 1.0
C      1  0.5695710000000  0.5367380000000  0.4071690000000 1.0
C      1  0.5736660000000  0.4858550000000  0.4095010000000 1.0
C      1  0.5471260000000  0.4423090000000  0.4052710000000 1.0
C      1  0.4961990000000  0.4267920000000  0.4025860000000 1.0
C      1  0.4468280000000  0.4451990000000  0.4052350000000 1.0
C      1  0.4240560000000  0.4913950000000  0.4066200000000 1.0
C      1  0.4354910000000  0.5417730000000  0.4073100000000 1.0
C      1  0.4773840000000  0.5737880000000  0.4071840000000 1.0
C      1  0.5576360000000  0.4462870000000  0.5443360000000 1.0
C      1  0.5079550000000  0.4187850000000  0.5405020000000 1.0
C      1  0.4624390000000  0.4332180000000  0.5411380000000 1.0
C      1  0.4358530000000  0.4761830000000  0.5534210000000 1.0
C      1  0.4375560000000  0.5215930000000  0.5503610000000 1.0
C      1  0.4658140000000  0.5648910000000  0.5452990000000 1.0
C      1  0.5117520000000  0.5653420000000  0.5474460000000 1.0
C      1  0.5570020000000  0.5443960000000  0.5495060000000 1.0
C      1  0.5723500000000  0.4955700000000  0.5441580000000 1.0
C      1  0.4543150000000  0.5595890000000  0.4495570000000 1.0
C      1  0.5027880000000  0.5665730000000  0.4450590000000 1.0
C      1  0.5455640000000  0.5481840000000  0.4430890000000 1.0
C      1  0.5666150000000  0.5074620000000  0.4475320000000 1.0
C      1  0.5561450000000  0.4618580000000  0.4461400000000 1.0
C      1  0.5211450000000  0.4258220000000  0.4437310000000 1.0
C      1  0.4711270000000  0.4293510000000  0.4449460000000 1.0
C      1  0.4402560000000  0.4691000000000  0.4448070000000 1.0
C      1  0.4349200000000  0.5149880000000  0.4451050000000 1.0
C      1  0.5339720000000  0.4337180000000  0.5302780000000 1.0
C      1  0.4845470000000  0.4270040000000  0.5218940000000 1.0
C      1  0.4438940000000  0.4537640000000  0.5319670000000 1.0
C      1  0.4303090000000  0.4991920000000  0.5337040000000 1.0
C      1  0.4482340000000  0.5448850000000  0.5331450000000 1.0
C      1  0.4899260000000  0.5693760000000  0.5277220000000 1.0
C      1  0.5376700000000  0.5614360000000  0.5337240000000 1.0
C      1  0.5684160000000  0.5223070000000  0.5311420000000 1.0
C      1  0.5674790000000  0.4709740000000  0.5274970000000 1.0
C      1  0.5372390000000  0.5137780000000  0.5240050000000 1.0
C      1  0.5404700000000  0.4837420000000  0.5142400000000 1.0
C      1  0.5187430000000  0.4637360000000  0.5287400000000 1.0
C      1  0.4929580000000  0.4582790000000  0.5141370000000 1.0
C      1  0.4688660000000  0.4740480000000  0.5262140000000 1.0
C      1  0.4575650000000  0.4982330000000  0.5134200000000 1.0
C      1  0.4717740000000  0.5245390000000  0.5225830000000 1.0
C      1  0.4917560000000  0.5418000000000  0.5106760000000 1.0
C      1  0.5224770000000  0.5373900000000  0.5111510000000 1.0
C      1  0.4317460000000  0.5164160000000  0.5780200000000 1.0
C      1  0.4722860000000  0.5653360000000  0.5727460000000 1.0
C      1  0.5006890000000  0.5713070000000  0.5740870000000 1.0
C      1  0.5554000000000  0.5424020000000  0.5782240000000 1.0
C      1  0.5620350000000  0.5156350000000  0.5870460000000 1.0
C      1  0.5542270000000  0.4511810000000  0.5701990000000 1.0
C      1  0.4954510000000  0.4138350000000  0.5646330000000 1.0
C      1  0.4766170000000  0.4350980000000  0.5656840000000 1.0
C      1  0.4325370000000  0.4873120000000  0.5818420000000 1.0
C      1  0.5073620000000  0.4986070000000  0.5462250000000 1.0
END
