TITL C-237568-9932-3 0.0090498447195843 125000 -145.709441487507 0 0 23 (Cs) n - 1
REM
REM in /rds/project/t2_vol4/rds-t2-cs072/BORA/CARBON/from-Arr/AIRSS/Generating-Clusters/GAP-ML-2020/Higher-Symm/SD-CG/HFTN-CG
REM
REM
REM
REM
REM
REM ./C.cell (b20cbc046b6831c77cfcea5457e17084)
REM AIRSS Version 0.9.1 bugfix July 2018 build 013d7b7c2542+ Fri, 06 Jul 2018 19:26:36 +0100
REM compiler GCC version 9.3.0
REM options -cpp -mtune=generic -march=x86-64 -g -O0
REM seed 983654479 -1722578881 53276041 -2090647398 -1767929275 185805181 136497402 -1397594361 -474423445 62828265 -1326335119 -633449875 -1421319404 846757519 -869328441 922203530 -1122363381 238821180 -269878170 980417283 -1183274911 -2143005331 -19054735 -545590839 543460744 -1359904436 -429687981 988338785 -721111765 811551173 161467677 1704275467 1603553326
REM
CELL 1.54180   50.00000   50.00000   50.00000   90.00000   90.00000   90.00000
LATT -1
SFAC C  
C      1  0.5085240000000  0.4685020000000  0.5455380000000 1.0
C      1  0.5038600000000  0.5178950000000  0.5566670000000 1.0
C      1  0.5041970000000  0.5556220000000  0.5224630000000 1.0
C      1  0.5092460000000  0.5493250000000  0.4722620000000 1.0
C      1  0.5100780000000  0.5082400000000  0.4426850000000 1.0
C      1  0.5079010000000  0.4587610000000  0.4535720000000 1.0
C      1  0.5094960000000  0.4430730000000  0.5017670000000 1.0
C      1  0.4957990000000  0.4931070000000  0.5482930000000 1.0
C      1  0.4925290000000  0.5368280000000  0.5395290000000 1.0
C      1  0.4963050000000  0.5497880000000  0.4969040000000 1.0
C      1  0.4999260000000  0.5267170000000  0.4600150000000 1.0
C      1  0.4977230000000  0.4839560000000  0.4484940000000 1.0
C      1  0.4974320000000  0.4513470000000  0.4780580000000 1.0
C      1  0.4993180000000  0.4586140000000  0.5217590000000 1.0
C      1  0.4771340000000  0.4759210000000  0.5104610000000 1.0
C      1  0.4727850000000  0.4962490000000  0.5301600000000 1.0
C      1  0.4702590000000  0.5242940000000  0.5254850000000 1.0
C      1  0.4731010000000  0.5316620000000  0.4980540000000 1.0
C      1  0.4774740000000  0.5140010000000  0.4759370000000 1.0
C      1  0.4730730000000  0.4877620000000  0.4638340000000 1.0
C      1  0.4728830000000  0.4664820000000  0.4831270000000 1.0
C      1  0.4928540000000  0.4984410000000  0.4971910000000 1.0
C      1  0.5188310000000  0.5011210000000  0.5004030000000 1.0
END
