TITL C-234786-4995-1 -0.0742724808210481 125000 -694.278036265738 0 0 100 (T23) n - 1
REM
REM in /rds/project/t2_vol4/rds-t2-cs072/BORA/CARBON/from-Arr/AIRSS/Generating-Clusters/GAP-ML-2020/Higher-Symm/SD-CG/HFTN-CG
REM
REM
REM
REM
REM
REM ./C.cell (b20cbc046b6831c77cfcea5457e17084)
REM AIRSS Version 0.9.1 bugfix July 2018 build 013d7b7c2542+ Fri, 06 Jul 2018 19:26:36 +0100
REM compiler GCC version 9.3.0
REM options -cpp -mtune=generic -march=x86-64 -g -O0
REM seed 1693318641 -970284575 -723144967 283333284 1057685440 -880061654 -1759698973 -1157969117 1322896635 -1433984834 -535398491 648449492 1544169080 -1174848155 -922704549 -1608633784 -2097357947 -730571515 -492972358 -527711587 -1680934312 -907849286 -327386326 1447672210 -61514929 1481491408 1462664361 666292847 2073164260 1986437498 213897336 -1641824944 875248355
REM
CELL 1.54180   50.00000   50.00000   50.00000   90.00000   90.00000   90.00000
LATT -1
SFAC C  
C      1  0.4614870000000  0.5609430000000  0.5185680000000 1.0
C      1  0.5163360000000  0.4610790000000  0.5612370000000 1.0
C      1  0.5615650000000  0.5184680000000  0.4639600000000 1.0
C      1  0.5388600000000  0.5606130000000  0.4833310000000 1.0
C      1  0.4614260000000  0.4397690000000  0.4801480000000 1.0
C      1  0.5368220000000  0.4387420000000  0.5194240000000 1.0
C      1  0.4823020000000  0.4625460000000  0.4387670000000 1.0
C      1  0.5202180000000  0.5386230000000  0.4404840000000 1.0
C      1  0.4797390000000  0.5378180000000  0.5609840000000 1.0
C      1  0.4380540000000  0.5188330000000  0.5371320000000 1.0
C      1  0.5592180000000  0.4804860000000  0.5399870000000 1.0
C      1  0.4397580000000  0.4822790000000  0.4603910000000 1.0
C      1  0.4227390000000  0.5334010000000  0.5150040000000 1.0
C      1  0.5144660000000  0.4227810000000  0.5329100000000 1.0
C      1  0.5346710000000  0.5167980000000  0.4246330000000 1.0
C      1  0.5771260000000  0.5323420000000  0.4863610000000 1.0
C      1  0.4230390000000  0.4679960000000  0.4816730000000 1.0
C      1  0.5756920000000  0.4663260000000  0.5184340000000 1.0
C      1  0.4835060000000  0.4236850000000  0.4663550000000 1.0
C      1  0.5175340000000  0.5769620000000  0.4686900000000 1.0
C      1  0.4830890000000  0.5766380000000  0.5335160000000 1.0
C      1  0.4649090000000  0.5159470000000  0.5764160000000 1.0
C      1  0.5303170000000  0.4826510000000  0.5778390000000 1.0
C      1  0.4686980000000  0.4846700000000  0.4225830000000 1.0
C      1  0.5112140000000  0.4774130000000  0.4401280000000 1.0
C      1  0.4400600000000  0.5109360000000  0.4758010000000 1.0
C      1  0.4757880000000  0.4398200000000  0.5093460000000 1.0
C      1  0.4876850000000  0.4764660000000  0.5601660000000 1.0
C      1  0.5084140000000  0.5224400000000  0.5611450000000 1.0
C      1  0.4912810000000  0.5237470000000  0.4400320000000 1.0
C      1  0.5594130000000  0.5094340000000  0.5251290000000 1.0
C      1  0.4386610000000  0.4901680000000  0.5217460000000 1.0
C      1  0.5604610000000  0.4895280000000  0.4787940000000 1.0
C      1  0.5224680000000  0.4396000000000  0.4902350000000 1.0
C      1  0.4773690000000  0.5606230000000  0.4901700000000 1.0
C      1  0.5229700000000  0.5600230000000  0.5117210000000 1.0
C      1  0.4952240000000  0.4177070000000  0.5127970000000 1.0
C      1  0.5151050000000  0.4973040000000  0.4184980000000 1.0
C      1  0.4176630000000  0.5140880000000  0.4949610000000 1.0
C      1  0.5026540000000  0.4178960000000  0.4863640000000 1.0
C      1  0.4973490000000  0.5823850000000  0.4877610000000 1.0
C      1  0.5033670000000  0.5820770000000  0.5145490000000 1.0
C      1  0.4841350000000  0.4960040000000  0.5821730000000 1.0
C      1  0.5108030000000  0.5024930000000  0.5829410000000 1.0
C      1  0.4885520000000  0.5042660000000  0.4178590000000 1.0
C      1  0.5818640000000  0.5125640000000  0.5060300000000 1.0
C      1  0.4172550000000  0.4874060000000  0.5014290000000 1.0
C      1  0.5818120000000  0.4860080000000  0.4990510000000 1.0
C      1  0.4884860000000  0.4896730000000  0.5312440000000 1.0
C      1  0.5310740000000  0.4895840000000  0.4909570000000 1.0
C      1  0.4900510000000  0.5314570000000  0.4901520000000 1.0
C      1  0.5106370000000  0.4900750000000  0.4692970000000 1.0
C      1  0.4903180000000  0.5105420000000  0.4689490000000 1.0
C      1  0.5091540000000  0.5097760000000  0.5319810000000 1.0
C      1  0.4680460000000  0.4899490000000  0.5095830000000 1.0
C      1  0.5307130000000  0.5098940000000  0.5114310000000 1.0
C      1  0.4687610000000  0.5106390000000  0.4895010000000 1.0
C      1  0.5097860000000  0.5310850000000  0.5111820000000 1.0
C      1  0.4889680000000  0.4687560000000  0.5100470000000 1.0
C      1  0.5097900000000  0.4687680000000  0.4900900000000 1.0
C      1  0.4771240000000  0.5644440000000  0.4431210000000 1.0
C      1  0.4405410000000  0.4753310000000  0.5622740000000 1.0
C      1  0.5634610000000  0.4424560000000  0.4769120000000 1.0
C      1  0.5232720000000  0.5629370000000  0.5588350000000 1.0
C      1  0.4729910000000  0.4360260000000  0.5563150000000 1.0
C      1  0.5252070000000  0.4366590000000  0.4432010000000 1.0
C      1  0.5583320000000  0.4755050000000  0.4379910000000 1.0
C      1  0.4443420000000  0.5257190000000  0.4354370000000 1.0
C      1  0.5553800000000  0.5235120000000  0.5657700000000 1.0
C      1  0.4348480000000  0.4431280000000  0.5227280000000 1.0
C      1  0.5631450000000  0.5564460000000  0.5271900000000 1.0
C      1  0.4371400000000  0.5580370000000  0.4746420000000 1.0
C      1  0.4345800000000  0.4449280000000  0.4928770000000 1.0
C      1  0.4953210000000  0.4358370000000  0.4439130000000 1.0
C      1  0.4456240000000  0.4958690000000  0.4341190000000 1.0
C      1  0.5637560000000  0.4436790000000  0.5067910000000 1.0
C      1  0.4352640000000  0.5562560000000  0.5044360000000 1.0
C      1  0.5649960000000  0.5552030000000  0.4973670000000 1.0
C      1  0.5028580000000  0.4347020000000  0.5555820000000 1.0
C      1  0.4934850000000  0.5642890000000  0.5565450000000 1.0
C      1  0.5069300000000  0.5652370000000  0.4454310000000 1.0
C      1  0.5535830000000  0.4936690000000  0.5665170000000 1.0
C      1  0.4422810000000  0.5051540000000  0.5636720000000 1.0
C      1  0.5571070000000  0.5053740000000  0.4371640000000 1.0
C      1  0.5384300000000  0.5673540000000  0.5353540000000 1.0
C      1  0.5314860000000  0.5381740000000  0.5695980000000 1.0
C      1  0.5668750000000  0.5323600000000  0.5415610000000 1.0
C      1  0.4620420000000  0.5686710000000  0.4666840000000 1.0
C      1  0.5390220000000  0.4319840000000  0.4674470000000 1.0
C      1  0.4591010000000  0.4320560000000  0.5319860000000 1.0
C      1  0.4684870000000  0.5400370000000  0.4318870000000 1.0
C      1  0.5344160000000  0.4612670000000  0.4328990000000 1.0
C      1  0.4642060000000  0.4605880000000  0.5670880000000 1.0
C      1  0.4329970000000  0.5342980000000  0.4598130000000 1.0
C      1  0.5683730000000  0.4664650000000  0.4627690000000 1.0
C      1  0.4303490000000  0.4669430000000  0.5373290000000 1.0
C      1  0.5398470000000  0.5388790000000  0.4629340000000 1.0
C      1  0.4601210000000  0.5388430000000  0.5385460000000 1.0
C      1  0.5371160000000  0.4604640000000  0.5398550000000 1.0
C      1  0.4615100000000  0.4618800000000  0.4601370000000 1.0
END
