TITL C-237559-9973-7 -51.3127413398988 125000 -666.251088873418 0 0 95 (C5) n - 1
REM
REM in /rds/project/t2_vol4/rds-t2-cs072/BORA/CARBON/from-Arr/AIRSS/Generating-Clusters/GAP-ML-2020/Higher-Symm/SD-CG/HFTN-CG
REM
REM
REM
REM
REM
REM ./C.cell (b20cbc046b6831c77cfcea5457e17084)
REM AIRSS Version 0.9.1 bugfix July 2018 build 013d7b7c2542+ Fri, 06 Jul 2018 19:26:36 +0100
REM compiler GCC version 9.3.0
REM options -cpp -mtune=generic -march=x86-64 -g -O0
REM seed -1500531053 -1790268483 2016026092 1658798994 -2062241752 829780777 900245795 342928789 1941150388 1899691266 -1882177282 -1792823719 -1323993393 1213847755 937909698 -1626895387 -1614283118 1359713346 96315942 105396738 -1273238456 -1999452994 1415110504 1035990787 -668896563 -1283649081 -2076906519 844093269 1024949075 -1524753512 -2089328892 -1694656332 -1058940349
REM
CELL 1.54180   50.00000   50.00000   50.00000   90.00000   90.00000   90.00000
LATT -1
SFAC C  
C      1  0.5151070000000  0.5610650000000  0.5408430000000 1.0
C      1  0.5435190000000  0.5610580000000  0.4981980000000 1.0
C      1  0.5117410000000  0.5610190000000  0.4579980000000 1.0
C      1  0.4636890000000  0.5610010000000  0.4757980000000 1.0
C      1  0.4657690000000  0.5610290000000  0.5269990000000 1.0
C      1  0.5154470000000  0.5508340000000  0.5693890000000 1.0
C      1  0.5707720000000  0.5508320000000  0.5067050000000 1.0
C      1  0.5282520000000  0.5507690000000  0.4347180000000 1.0
C      1  0.4466490000000  0.5507320000000  0.4529110000000 1.0
C      1  0.4387350000000  0.5507720000000  0.5361420000000 1.0
C      1  0.5818260000000  0.4940830000000  0.5182830000000 1.0
C      1  0.5426730000000  0.4940120000000  0.4278340000000 1.0
C      1  0.4445520000000  0.4939600000000  0.4371210000000 1.0
C      1  0.4230630000000  0.4939990000000  0.5333090000000 1.0
C      1  0.5079030000000  0.4940750000000  0.5834700000000 1.0
C      1  0.4798980000000  0.5841540000000  0.5147600000000 1.0
C      1  0.5078350000000  0.5841740000000  0.5236020000000 1.0
C      1  0.5248770000000  0.5841710000000  0.4997640000000 1.0
C      1  0.5074730000000  0.5841490000000  0.4761900000000 1.0
C      1  0.4796740000000  0.5841380000000  0.4854580000000 1.0
C      1  0.4651700000000  0.4526880000000  0.5478860000000 1.0
C      1  0.5347740000000  0.4527280000000  0.5479660000000 1.0
C      1  0.5563590000000  0.4527050000000  0.4817940000000 1.0
C      1  0.5000950000000  0.4526500000000  0.4408170000000 1.0
C      1  0.4437380000000  0.4526400000000  0.4816640000000 1.0
C      1  0.4747820000000  0.4784840000000  0.5294990000000 1.0
C      1  0.5202600000000  0.4785120000000  0.5331190000000 1.0
C      1  0.5377570000000  0.4784990000000  0.4909850000000 1.0
C      1  0.5030920000000  0.4784630000000  0.4613260000000 1.0
C      1  0.4641710000000  0.4784540000000  0.4851280000000 1.0
C      1  0.5753400000000  0.4958860000000  0.4630170000000 1.0
C      1  0.4881080000000  0.4958110000000  0.4169230000000 1.0
C      1  0.4173140000000  0.4958070000000  0.4856420000000 1.0
C      1  0.4607930000000  0.4958800000000  0.5742060000000 1.0
C      1  0.5584580000000  0.4959280000000  0.5602230000000 1.0
C      1  0.4756250000000  0.4214710000000  0.5025420000000 1.0
C      1  0.4948760000000  0.4214940000000  0.5240390000000 1.0
C      1  0.5212700000000  0.4215030000000  0.5123730000000 1.0
C      1  0.5183320000000  0.4214860000000  0.4836660000000 1.0
C      1  0.4901220000000  0.4214660000000  0.4775900000000 1.0
C      1  0.5247840000000  0.4922630000000  0.4711450000000 1.0
C      1  0.4802150000000  0.4922350000000  0.4675200000000 1.0
C      1  0.4629950000000  0.4922470000000  0.5087860000000 1.0
C      1  0.4969200000000  0.4922830000000  0.5379160000000 1.0
C      1  0.5351080000000  0.4922920000000  0.5146520000000 1.0
C      1  0.5726070000000  0.5119380000000  0.5398830000000 1.0
C      1  0.5603690000000  0.5118790000000  0.4432600000000 1.0
C      1  0.4646930000000  0.5118150000000  0.4250410000000 1.0
C      1  0.4178010000000  0.5118330000000  0.5104040000000 1.0
C      1  0.4844950000000  0.5119100000000  0.5813800000000 1.0
C      1  0.5185370000000  0.5193400000000  0.4817060000000 1.0
C      1  0.4883320000000  0.5193200000000  0.4766990000000 1.0
C      1  0.4742360000000  0.5193270000000  0.5038790000000 1.0
C      1  0.4957290000000  0.5193510000000  0.5256840000000 1.0
C      1  0.5231090000000  0.5193590000000  0.5119800000000 1.0
C      1  0.5481570000000  0.4676200000000  0.4377310000000 1.0
C      1  0.4556570000000  0.4675650000000  0.4349870000000 1.0
C      1  0.4244620000000  0.4675940000000  0.5221130000000 1.0
C      1  0.4976840000000  0.4676660000000  0.5787030000000 1.0
C      1  0.5741320000000  0.4676820000000  0.5265530000000 1.0
C      1  0.5353200000000  0.5051380000000  0.5761380000000 1.0
C      1  0.5833270000000  0.5051190000000  0.4899320000000 1.0
C      1  0.5161750000000  0.5050420000000  0.4176360000000 1.0
C      1  0.4266660000000  0.5050130000000  0.4591600000000 1.0
C      1  0.4384980000000  0.5050720000000  0.5571200000000 1.0
C      1  0.5643690000000  0.5382320000000  0.5319520000000 1.0
C      1  0.5502830000000  0.5381790000000  0.4486200000000 1.0
C      1  0.4666770000000  0.5381250000000  0.4362650000000 1.0
C      1  0.4290920000000  0.5381430000000  0.5119620000000 1.0
C      1  0.4894690000000  0.5382100000000  0.5710990000000 1.0
C      1  0.5343200000000  0.5447130000000  0.4732990000000 1.0
C      1  0.4852160000000  0.5446770000000  0.4590680000000 1.0
C      1  0.4565080000000  0.5446830000000  0.5013700000000 1.0
C      1  0.4878690000000  0.5447230000000  0.5417460000000 1.0
C      1  0.5359590000000  0.5447410000000  0.5243970000000 1.0
C      1  0.4286820000000  0.5317600000000  0.4589280000000 1.0
C      1  0.4389040000000  0.5318180000000  0.5551060000000 1.0
C      1  0.5335330000000  0.5318830000000  0.5751060000000 1.0
C      1  0.5817960000000  0.5318660000000  0.4912880000000 1.0
C      1  0.5169940000000  0.5317900000000  0.4194860000000 1.0
C      1  0.5672980000000  0.4690820000000  0.4590050000000 1.0
C      1  0.4818040000000  0.4690130000000  0.4233560000000 1.0
C      1  0.4214810000000  0.4690160000000  0.4936490000000 1.0
C      1  0.4696930000000  0.4690860000000  0.5727420000000 1.0
C      1  0.5598120000000  0.4691270000000  0.5513300000000 1.0
C      1  0.5422530000000  0.4347550000000  0.5253370000000 1.0
C      1  0.5371460000000  0.4347210000000  0.4677050000000 1.0
C      1  0.4807570000000  0.4346820000000  0.4547520000000 1.0
C      1  0.4510130000000  0.4346910000000  0.5043790000000 1.0
C      1  0.4890190000000  0.4347360000000  0.5480020000000 1.0
C      1  0.5099870000000  0.4468540000000  0.5636530000000 1.0
C      1  0.5636170000000  0.4468560000000  0.5102210000000 1.0
C      1  0.5293730000000  0.4468000000000  0.4427030000000 1.0
C      1  0.4545790000000  0.4467630000000  0.4544070000000 1.0
C      1  0.4425970000000  0.4467960000000  0.5291580000000 1.0
END
