TITL C-235490-3941-7 0.14117864205528 125000 -612.669651587626 0 0 86 (C1) n - 1
REM
REM in /rds/project/t2_vol4/rds-t2-cs072/BORA/CARBON/from-Arr/AIRSS/Generating-Clusters/GAP-ML-2020/Higher-Symm/SD-CG/HFTN-CG
REM
REM
REM
REM
REM
REM ./C.cell (b20cbc046b6831c77cfcea5457e17084)
REM AIRSS Version 0.9.1 bugfix July 2018 build 013d7b7c2542+ Fri, 06 Jul 2018 19:26:36 +0100
REM compiler GCC version 9.3.0
REM options -cpp -mtune=generic -march=x86-64 -g -O0
REM seed 1841560274 -408722751 -1240726575 -787145485 -822984518 1543266823 -1628498383 1495286738 434530327 -1977549779 20435668 -483285825 -285316725 -1498647833 2100531243 1392947808 -1555272890 1632937818 15542490 -657700429 2144156677 305892586 -1067972518 1468905069 2112921685 2092240526 1862687921 1317965345 -287402779 -1370351511 745751495 -366445094 -1220683169
REM
CELL 1.54180   50.00000   50.00000   50.00000   90.00000   90.00000   90.00000
LATT -1
SFAC C  
C      1  0.5552490000000  0.4770350000000  0.4602810000000 1.0
C      1  0.4284370000000  0.4826510000000  0.5404320000000 1.0
C      1  0.4410080000000  0.4820120000000  0.4618870000000 1.0
C      1  0.5668210000000  0.4747910000000  0.5430280000000 1.0
C      1  0.5719380000000  0.4978660000000  0.4738190000000 1.0
C      1  0.4229820000000  0.5073700000000  0.5256810000000 1.0
C      1  0.4289720000000  0.5072580000000  0.4751240000000 1.0
C      1  0.5754510000000  0.4972420000000  0.5270320000000 1.0
C      1  0.5144100000000  0.4527690000000  0.4566440000000 1.0
C      1  0.4813640000000  0.4450580000000  0.5386500000000 1.0
C      1  0.4873170000000  0.4481050000000  0.4660780000000 1.0
C      1  0.5092010000000  0.4426730000000  0.5420500000000 1.0
C      1  0.5355940000000  0.5493290000000  0.4413010000000 1.0
C      1  0.4657500000000  0.5522940000000  0.5641210000000 1.0
C      1  0.4701610000000  0.5540620000000  0.4427240000000 1.0
C      1  0.5349980000000  0.5489810000000  0.5667500000000 1.0
C      1  0.5548650000000  0.5401900000000  0.5120720000000 1.0
C      1  0.4550360000000  0.5516740000000  0.4866100000000 1.0
C      1  0.4563820000000  0.5472220000000  0.5162790000000 1.0
C      1  0.5541830000000  0.5444340000000  0.4837300000000 1.0
C      1  0.5330190000000  0.4374360000000  0.4744090000000 1.0
C      1  0.4699390000000  0.4386180000000  0.5120410000000 1.0
C      1  0.4889640000000  0.4341910000000  0.4908360000000 1.0
C      1  0.5260120000000  0.4287840000000  0.5231590000000 1.0
C      1  0.4710960000000  0.5641550000000  0.5392770000000 1.0
C      1  0.5322480000000  0.5584810000000  0.4686060000000 1.0
C      1  0.5226450000000  0.5608330000000  0.5449390000000 1.0
C      1  0.4775320000000  0.5613070000000  0.4698840000000 1.0
C      1  0.5668580000000  0.4511630000000  0.5262500000000 1.0
C      1  0.4303830000000  0.4599560000000  0.4803790000000 1.0
C      1  0.4245480000000  0.4607540000000  0.5221720000000 1.0
C      1  0.5579090000000  0.4516410000000  0.4759990000000 1.0
C      1  0.4854840000000  0.5408160000000  0.5825490000000 1.0
C      1  0.5159560000000  0.5431220000000  0.4211630000000 1.0
C      1  0.5145550000000  0.5389350000000  0.5837430000000 1.0
C      1  0.4872000000000  0.5454600000000  0.4213680000000 1.0
C      1  0.4760670000000  0.5210310000000  0.4104510000000 1.0
C      1  0.5221050000000  0.5118100000000  0.5888360000000 1.0
C      1  0.5220200000000  0.5170840000000  0.4105760000000 1.0
C      1  0.4757530000000  0.5142990000000  0.5875130000000 1.0
C      1  0.4453460000000  0.5325330000000  0.5596820000000 1.0
C      1  0.5552220000000  0.5280670000000  0.4400890000000 1.0
C      1  0.5551900000000  0.5275190000000  0.5601890000000 1.0
C      1  0.4472630000000  0.5364580000000  0.4427480000000 1.0
C      1  0.4847670000000  0.4997050000000  0.4662050000000 1.0
C      1  0.5177430000000  0.5156930000000  0.5353710000000 1.0
C      1  0.5106900000000  0.5034060000000  0.4734780000000 1.0
C      1  0.4891800000000  0.5187860000000  0.5382880000000 1.0
C      1  0.5472460000000  0.4781410000000  0.5629280000000 1.0
C      1  0.4474490000000  0.4873140000000  0.4319800000000 1.0
C      1  0.4478810000000  0.4831450000000  0.5610540000000 1.0
C      1  0.5447330000000  0.4802100000000  0.4327480000000 1.0
C      1  0.4774060000000  0.4921270000000  0.5347010000000 1.0
C      1  0.5259990000000  0.4793310000000  0.4709650000000 1.0
C      1  0.5194140000000  0.4880170000000  0.5253370000000 1.0
C      1  0.4722680000000  0.4722230000000  0.4599490000000 1.0
C      1  0.4366220000000  0.5314060000000  0.5328100000000 1.0
C      1  0.5665980000000  0.5247430000000  0.4659250000000 1.0
C      1  0.5667830000000  0.5237000000000  0.5334330000000 1.0
C      1  0.4385410000000  0.5338020000000  0.4694270000000 1.0
C      1  0.4713150000000  0.4715710000000  0.4298170000000 1.0
C      1  0.5200790000000  0.4668440000000  0.5559940000000 1.0
C      1  0.5193760000000  0.4653710000000  0.4303860000000 1.0
C      1  0.4737040000000  0.4692030000000  0.5552120000000 1.0
C      1  0.4518090000000  0.5084710000000  0.5739620000000 1.0
C      1  0.5458880000000  0.5067190000000  0.4227180000000 1.0
C      1  0.5461890000000  0.5040120000000  0.5750460000000 1.0
C      1  0.4514910000000  0.5141700000000  0.4244160000000 1.0
C      1  0.4960150000000  0.4757280000000  0.4166810000000 1.0
C      1  0.4972930000000  0.4740840000000  0.5722820000000 1.0
C      1  0.5528930000000  0.4283690000000  0.5293640000000 1.0
C      1  0.4442510000000  0.4472440000000  0.5046820000000 1.0
C      1  0.4980350000000  0.4964220000000  0.5890370000000 1.0
C      1  0.4977000000000  0.5025280000000  0.4057710000000 1.0
C      1  0.4153840000000  0.4997010000000  0.4990370000000 1.0
C      1  0.5774950000000  0.4871190000000  0.4996520000000 1.0
C      1  0.5278850000000  0.5425140000000  0.5213220000000 1.0
C      1  0.4828860000000  0.5314930000000  0.5114050000000 1.0
C      1  0.4111610000000  0.4714680000000  0.4985250000000 1.0
C      1  0.5719960000000  0.4592780000000  0.4992950000000 1.0
C      1  0.5052580000000  0.5638410000000  0.4802920000000 1.0
C      1  0.4982010000000  0.5689840000000  0.5339620000000 1.0
C      1  0.5165000000000  0.4280490000000  0.4959080000000 1.0
C      1  0.5036850000000  0.5545000000000  0.5078250000000 1.0
C      1  0.4936730000000  0.4850980000000  0.5120020000000 1.0
C      1  0.4882190000000  0.5063470000000  0.4934530000000 1.0
END
