TITL C-235503-3692-1 0.0972245064978825 125000 -854.968267735331 0 0 126 (C1) n - 1
REM
REM in /rds/project/t2_vol4/rds-t2-cs072/BORA/CARBON/from-Arr/AIRSS/Generating-Clusters/GAP-ML-2020/Higher-Symm/SD-CG/HFTN-CG
REM
REM
REM
REM
REM
REM ./C.cell (b20cbc046b6831c77cfcea5457e17084)
REM AIRSS Version 0.9.1 bugfix July 2018 build 013d7b7c2542+ Fri, 06 Jul 2018 19:26:36 +0100
REM compiler GCC version 9.3.0
REM options -cpp -mtune=generic -march=x86-64 -g -O0
REM seed 84296050 2092644954 796360648 1898077707 -742606169 1030468549 -1428057292 634011339 -2083551833 -2038966094 792944243 -1204791064 1860285626 785491978 -1233394847 -709634095 623157800 -21526333 222384434 2055444305 -2006661554 -1580068437 167624200 -705559632 -898673929 2054582033 254507550 1697934887 -319263432 1815439607 888579289 -243123990 -1868104681
REM
CELL 1.54180   50.00000   50.00000   50.00000   90.00000   90.00000   90.00000
LATT -1
SFAC C  
C      1  0.4631380000000  0.5490800000000  0.4093220000000 1.0
C      1  0.4903730000000  0.5595360000000  0.4093990000000 1.0
C      1  0.5368040000000  0.5468260000000  0.4128490000000 1.0
C      1  0.5528750000000  0.5212070000000  0.4099550000000 1.0
C      1  0.5486050000000  0.4727090000000  0.4163200000000 1.0
C      1  0.5291970000000  0.4501690000000  0.4161790000000 1.0
C      1  0.4809380000000  0.4398560000000  0.4114890000000 1.0
C      1  0.4578880000000  0.4562190000000  0.4069180000000 1.0
C      1  0.4452820000000  0.5030180000000  0.4082190000000 1.0
C      1  0.5398220000000  0.5871750000000  0.4906070000000 1.0
C      1  0.5918740000000  0.5368290000000  0.4922730000000 1.0
C      1  0.5932430000000  0.4756280000000  0.4884410000000 1.0
C      1  0.5557360000000  0.4119700000000  0.4933780000000 1.0
C      1  0.4859090000000  0.4033710000000  0.4896610000000 1.0
C      1  0.4238020000000  0.4394810000000  0.4941620000000 1.0
C      1  0.4004320000000  0.4984080000000  0.4722370000000 1.0
C      1  0.4182620000000  0.5676320000000  0.4716890000000 1.0
C      1  0.4815620000000  0.5985320000000  0.4937070000000 1.0
C      1  0.4312750000000  0.4757240000000  0.5082310000000 1.0
C      1  0.4274950000000  0.5219300000000  0.5071940000000 1.0
C      1  0.4557080000000  0.5612830000000  0.5055630000000 1.0
C      1  0.5032310000000  0.5681440000000  0.5089990000000 1.0
C      1  0.5481860000000  0.5462150000000  0.5118040000000 1.0
C      1  0.5664720000000  0.5041650000000  0.5085000000000 1.0
C      1  0.5561110000000  0.4561010000000  0.5108500000000 1.0
C      1  0.5181980000000  0.4255360000000  0.5051210000000 1.0
C      1  0.4661370000000  0.4397230000000  0.5141490000000 1.0
C      1  0.5073480000000  0.4046080000000  0.4691270000000 1.0
C      1  0.4428940000000  0.4293990000000  0.4749490000000 1.0
C      1  0.4107640000000  0.4756910000000  0.4621140000000 1.0
C      1  0.4163110000000  0.5415440000000  0.4627330000000 1.0
C      1  0.4650530000000  0.5876230000000  0.4726160000000 1.0
C      1  0.5210080000000  0.5933660000000  0.4694610000000 1.0
C      1  0.5740380000000  0.5507540000000  0.4739970000000 1.0
C      1  0.5949890000000  0.4975090000000  0.4688300000000 1.0
C      1  0.5673670000000  0.4312400000000  0.4751890000000 1.0
C      1  0.4591900000000  0.5169040000000  0.4612770000000 1.0
C      1  0.4799750000000  0.5381160000000  0.4633730000000 1.0
C      1  0.5106380000000  0.5407560000000  0.4671970000000 1.0
C      1  0.5311890000000  0.5236360000000  0.4567870000000 1.0
C      1  0.5405890000000  0.4976820000000  0.4673320000000 1.0
C      1  0.5316720000000  0.4679280000000  0.4668760000000 1.0
C      1  0.5035710000000  0.4550940000000  0.4663020000000 1.0
C      1  0.4784990000000  0.4647630000000  0.4547200000000 1.0
C      1  0.4605960000000  0.4864820000000  0.4633290000000 1.0
C      1  0.5386700000000  0.5005380000000  0.4987190000000 1.0
C      1  0.5317510000000  0.4713620000000  0.4992670000000 1.0
C      1  0.5058470000000  0.4569030000000  0.4977200000000 1.0
C      1  0.4796350000000  0.4657570000000  0.5072510000000 1.0
C      1  0.4593900000000  0.4842600000000  0.4947250000000 1.0
C      1  0.4556000000000  0.5139370000000  0.4952340000000 1.0
C      1  0.4739680000000  0.5369220000000  0.4950710000000 1.0
C      1  0.5037930000000  0.5403870000000  0.4983940000000 1.0
C      1  0.5259340000000  0.5250600000000  0.5087870000000 1.0
C      1  0.5514090000000  0.4564480000000  0.5555720000000 1.0
C      1  0.5093470000000  0.4389440000000  0.5487390000000 1.0
C      1  0.4657840000000  0.4382760000000  0.5590690000000 1.0
C      1  0.4359710000000  0.4741670000000  0.5633930000000 1.0
C      1  0.4395990000000  0.5191970000000  0.5592190000000 1.0
C      1  0.4669010000000  0.5549710000000  0.5584750000000 1.0
C      1  0.5116620000000  0.5628600000000  0.5537270000000 1.0
C      1  0.5536130000000  0.5438370000000  0.5559130000000 1.0
C      1  0.5663870000000  0.4986570000000  0.5531020000000 1.0
C      1  0.5578510000000  0.4976320000000  0.4239080000000 1.0
C      1  0.5534310000000  0.4485530000000  0.4299650000000 1.0
C      1  0.5057410000000  0.4368530000000  0.4238200000000 1.0
C      1  0.4562850000000  0.4338230000000  0.4246340000000 1.0
C      1  0.4445700000000  0.4784370000000  0.4187300000000 1.0
C      1  0.4454450000000  0.5283840000000  0.4178940000000 1.0
C      1  0.4697590000000  0.5702070000000  0.4259100000000 1.0
C      1  0.5146920000000  0.5596750000000  0.4233560000000 1.0
C      1  0.5612780000000  0.5437210000000  0.4254510000000 1.0
C      1  0.4371320000000  0.5284830000000  0.4462870000000 1.0
C      1  0.4782960000000  0.5691080000000  0.4535990000000 1.0
C      1  0.5097120000000  0.5684890000000  0.4528130000000 1.0
C      1  0.5615950000000  0.5343440000000  0.4528570000000 1.0
C      1  0.5686230000000  0.5036100000000  0.4526190000000 1.0
C      1  0.5515510000000  0.4463640000000  0.4575320000000 1.0
C      1  0.5059840000000  0.4284750000000  0.4519630000000 1.0
C      1  0.4515410000000  0.4450920000000  0.4510670000000 1.0
C      1  0.4369380000000  0.4725570000000  0.4474460000000 1.0
C      1  0.5728390000000  0.5255400000000  0.5441960000000 1.0
C      1  0.5696560000000  0.4729160000000  0.5376400000000 1.0
C      1  0.5376340000000  0.4337790000000  0.5444900000000 1.0
C      1  0.4841450000000  0.4268580000000  0.5377380000000 1.0
C      1  0.4403480000000  0.4493260000000  0.5498190000000 1.0
C      1  0.4246720000000  0.4970260000000  0.5502970000000 1.0
C      1  0.4422320000000  0.5449140000000  0.5480530000000 1.0
C      1  0.4851990000000  0.5715540000000  0.5445570000000 1.0
C      1  0.5373950000000  0.5639230000000  0.5384900000000 1.0
C      1  0.4415310000000  0.5761010000000  0.4829930000000 1.0
C      1  0.5030610000000  0.6097440000000  0.4815440000000 1.0
C      1  0.5553980000000  0.5646560000000  0.4896930000000 1.0
C      1  0.6081360000000  0.5194110000000  0.4794170000000 1.0
C      1  0.5775640000000  0.4533070000000  0.4893940000000 1.0
C      1  0.5301750000000  0.4041770000000  0.4851660000000 1.0
C      1  0.4640100000000  0.4198070000000  0.4907680000000 1.0
C      1  0.4125630000000  0.4640310000000  0.4878430000000 1.0
C      1  0.4088820000000  0.5217250000000  0.4825790000000 1.0
C      1  0.5102670000000  0.5392710000000  0.6047650000000 1.0
C      1  0.5350220000000  0.5256170000000  0.6047280000000 1.0
C      1  0.5439220000000  0.4985470000000  0.6031260000000 1.0
C      1  0.5310410000000  0.4733560000000  0.6030640000000 1.0
C      1  0.5109020000000  0.4613590000000  0.6170130000000 1.0
C      1  0.4858420000000  0.4633580000000  0.6062470000000 1.0
C      1  0.4679290000000  0.4857290000000  0.6082300000000 1.0
C      1  0.4715920000000  0.5100800000000  0.6201960000000 1.0
C      1  0.4833750000000  0.5304660000000  0.6064110000000 1.0
C      1  0.5094120000000  0.5417890000000  0.5732710000000 1.0
C      1  0.5359590000000  0.5284070000000  0.5726650000000 1.0
C      1  0.5444670000000  0.4996300000000  0.5715990000000 1.0
C      1  0.5315340000000  0.4724980000000  0.5721510000000 1.0
C      1  0.5056010000000  0.4621410000000  0.5632560000000 1.0
C      1  0.4799640000000  0.4594290000000  0.5765130000000 1.0
C      1  0.4604180000000  0.4833070000000  0.5785950000000 1.0
C      1  0.4645030000000  0.5101620000000  0.5679820000000 1.0
C      1  0.4802760000000  0.5332240000000  0.5749750000000 1.0
C      1  0.5738490000000  0.5305040000000  0.5158490000000 1.0
C      1  0.5860480000000  0.4842660000000  0.5151870000000 1.0
C      1  0.5456570000000  0.4288600000000  0.5176220000000 1.0
C      1  0.4971250000000  0.4089270000000  0.5165350000000 1.0
C      1  0.4377700000000  0.4484040000000  0.5208400000000 1.0
C      1  0.4206370000000  0.4981440000000  0.5232870000000 1.0
C      1  0.4357040000000  0.5469810000000  0.5216280000000 1.0
C      1  0.4777270000000  0.5790660000000  0.5171010000000 1.0
C      1  0.5280860000000  0.5818300000000  0.5168320000000 1.0
END
