TITL C-234772-2974-9 15.4238321529097 125000 -259.308279516324 0 0 40 (S4) n - 1
REM
REM in /rds/project/t2_vol4/rds-t2-cs072/BORA/CARBON/from-Arr/AIRSS/Generating-Clusters/GAP-ML-2020/Higher-Symm/SD-CG/HFTN-CG
REM
REM
REM
REM
REM
REM ./C.cell (b20cbc046b6831c77cfcea5457e17084)
REM AIRSS Version 0.9.1 bugfix July 2018 build 013d7b7c2542+ Fri, 06 Jul 2018 19:26:36 +0100
REM compiler GCC version 9.3.0
REM options -cpp -mtune=generic -march=x86-64 -g -O0
REM seed -1008611841 2064086028 205775135 -1790048093 872580318 2145341977 936120444 640635901 -677732934 1187612946 -344949946 2145762982 -1990940924 -1580272321 -1806381515 2128749219 -2066421328 977341332 -2033502007 -1761208729 -1336236874 660774388 443021017 -841364065 -1296845066 -1396654262 -139196670 492524163 1560397044 2013282134 -515782740 1194759770 -1179496413
REM
CELL 1.54180   50.00000   50.00000   50.00000   90.00000   90.00000   90.00000
LATT -1
SFAC C  
C      1  0.5501510000000  0.5363770000000  0.5327560000000 1.0
C      1  0.4672830000000  0.4636520000000  0.5501980000000 1.0
C      1  0.4497630000000  0.5362510000000  0.4672360000000 1.0
C      1  0.5328030000000  0.4637200000000  0.4498100000000 1.0
C      1  0.5488410000000  0.5121190000000  0.5219260000000 1.0
C      1  0.4780870000000  0.4879200000000  0.5488560000000 1.0
C      1  0.4511310000000  0.5119990000000  0.4780710000000 1.0
C      1  0.5219420000000  0.4879620000000  0.4511460000000 1.0
C      1  0.5355890000000  0.5555400000000  0.5429540000000 1.0
C      1  0.4571060000000  0.4444600000000  0.5356610000000 1.0
C      1  0.4642790000000  0.5554460000000  0.4570340000000 1.0
C      1  0.5430260000000  0.4445550000000  0.4643510000000 1.0
C      1  0.5140740000000  0.5437000000000  0.4707230000000 1.0
C      1  0.5293240000000  0.4563500000000  0.5141310000000 1.0
C      1  0.4858220000000  0.5436720000000  0.5292670000000 1.0
C      1  0.4707800000000  0.4562770000000  0.4858790000000 1.0
C      1  0.5093160000000  0.5198360000000  0.4885240000000 1.0
C      1  0.5114980000000  0.4801890000000  0.5093410000000 1.0
C      1  0.4906370000000  0.5198160000000  0.5114720000000 1.0
C      1  0.4885490000000  0.4801600000000  0.4906630000000 1.0
C      1  0.4769400000000  0.5140400000000  0.5612930000000 1.0
C      1  0.4387220000000  0.4858630000000  0.4769580000000 1.0
C      1  0.5230270000000  0.5140820000000  0.4387040000000 1.0
C      1  0.5613120000000  0.4860140000000  0.5230450000000 1.0
C      1  0.5103480000000  0.5441730000000  0.5455870000000 1.0
C      1  0.4544610000000  0.4557910000000  0.5104050000000 1.0
C      1  0.4895470000000  0.5441390000000  0.4544040000000 1.0
C      1  0.5456440000000  0.4558970000000  0.4896040000000 1.0
C      1  0.5069960000000  0.5176540000000  0.5565530000000 1.0
C      1  0.4434660000000  0.4822930000000  0.5070190000000 1.0
C      1  0.4929620000000  0.5176260000000  0.4434430000000 1.0
C      1  0.5565760000000  0.4824270000000  0.4929850000000 1.0
C      1  0.4674630000000  0.5360650000000  0.5487670000000 1.0
C      1  0.4512720000000  0.4638400000000  0.4675100000000 1.0
C      1  0.5324510000000  0.5361320000000  0.4512250000000 1.0
C      1  0.5488140000000  0.4639630000000  0.5324980000000 1.0
C      1  0.4686030000000  0.5013510000000  0.5012040000000 1.0
C      1  0.4987980000000  0.4986070000000  0.4686040000000 1.0
C      1  0.5313940000000  0.5014250000000  0.4987960000000 1.0
C      1  0.5012050000000  0.4986170000000  0.5313960000000 1.0
END
