TITL C-233938-2099-3 -0.623414946879885 27000 -712.392576468792 0 0 104 (Ci) n - 1
REM
REM in /rds/project/t2_vol4/rds-t2-cs072/BORA/CARBON/from-Arr/AIRSS/Generating-Clusters/GAP-ML-2020/Higher-Symm/SD-CG/HFTN-CG/Box-30A
REM
REM
REM
REM
REM
REM ./C.cell (13fc22856271072ba132eecf8fb47ea5)
REM AIRSS Version 0.9.1 bugfix July 2018 build 013d7b7c2542+ Fri, 06 Jul 2018 19:26:36 +0100
REM compiler GCC version 9.3.0
REM options -cpp -mtune=generic -march=x86-64 -g -O0
REM seed 413326004 -1616394482 1186883703 368878104 -802507595 -1389895649 611049823 939023161 1253379697 542250395 -951939513 -1539886485 851115955 -1372544720 -869799255 2005660488 133599112 587297012 -1320142124 -48839092 919732035 -721320097 286339097 -1708198056 -841905642 -650756157 1444570184 612779378 1478073900 -234315127 1358563178 14045669 -1669878184
REM
CELL 1.54180   30.00000   30.00000   30.00000   90.00000   90.00000   90.00000
LATT -1
SFAC C  
C      1  0.3791980000000  0.4985140000000  0.5584260000000 1.0
C      1  0.6208020000000  0.5014860000000  0.4415740000000 1.0
C      1  0.5938490000000  0.5277050000000  0.5164290000000 1.0
C      1  0.4061510000000  0.4722950000000  0.4835710000000 1.0
C      1  0.4097310000000  0.5120020000000  0.5133950000000 1.0
C      1  0.5902690000000  0.4879980000000  0.4866050000000 1.0
C      1  0.5437170000000  0.6000140000000  0.6015750000000 1.0
C      1  0.4562830000000  0.3999860000000  0.3984250000000 1.0
C      1  0.4814730000000  0.4998180000000  0.6195830000000 1.0
C      1  0.5185270000000  0.5001820000000  0.3804170000000 1.0
C      1  0.6230210000000  0.4522240000000  0.5012710000000 1.0
C      1  0.3769790000000  0.5477760000000  0.4987290000000 1.0
C      1  0.4048430000000  0.5271080000000  0.5888840000000 1.0
C      1  0.5951570000000  0.4728920000000  0.4111160000000 1.0
C      1  0.3684320000000  0.4327720000000  0.4969550000000 1.0
C      1  0.6315680000000  0.5672280000000  0.5030450000000 1.0
C      1  0.4883420000000  0.4945120000000  0.5708660000000 1.0
C      1  0.5116580000000  0.5054880000000  0.4291340000000 1.0
C      1  0.5662770000000  0.3655560000000  0.5205570000000 1.0
C      1  0.4337230000000  0.6344440000000  0.4794430000000 1.0
C      1  0.4480490000000  0.5439310000000  0.3840810000000 1.0
C      1  0.5519510000000  0.4560690000000  0.6159190000000 1.0
C      1  0.5347930000000  0.6204290000000  0.4291830000000 1.0
C      1  0.4652070000000  0.3795710000000  0.5708170000000 1.0
C      1  0.4267430000000  0.4510190000000  0.5995730000000 1.0
C      1  0.5732570000000  0.5489810000000  0.4004270000000 1.0
C      1  0.3857930000000  0.4436810000000  0.4208190000000 1.0
C      1  0.6142070000000  0.5563190000000  0.5791810000000 1.0
C      1  0.5447750000000  0.5332290000000  0.5127780000000 1.0
C      1  0.4552250000000  0.4667710000000  0.4872220000000 1.0
C      1  0.3787320000000  0.4098650000000  0.4540460000000 1.0
C      1  0.6212680000000  0.5901350000000  0.5459540000000 1.0
C      1  0.4846340000000  0.4414310000000  0.4635190000000 1.0
C      1  0.5153660000000  0.5585690000000  0.5364820000000 1.0
C      1  0.5909080000000  0.6252890000000  0.5430820000000 1.0
C      1  0.4090920000000  0.3747110000000  0.4569180000000 1.0
C      1  0.3842860000000  0.5360530000000  0.4461730000000 1.0
C      1  0.6157140000000  0.4639470000000  0.5538270000000 1.0
C      1  0.5215500000000  0.6402210000000  0.5321840000000 1.0
C      1  0.4784500000000  0.3597790000000  0.4678160000000 1.0
C      1  0.4170000000000  0.5708250000000  0.5716350000000 1.0
C      1  0.5830000000000  0.4291750000000  0.4283650000000 1.0
C      1  0.5673500000000  0.4902930000000  0.6412140000000 1.0
C      1  0.4326500000000  0.5097070000000  0.3587860000000 1.0
C      1  0.4580440000000  0.5171610000000  0.4998010000000 1.0
C      1  0.5419560000000  0.4828390000000  0.5001990000000 1.0
C      1  0.5028790000000  0.4510350000000  0.6253760000000 1.0
C      1  0.4971210000000  0.5489650000000  0.3746240000000 1.0
C      1  0.5773250000000  0.5655470000000  0.6091750000000 1.0
C      1  0.4226750000000  0.4344530000000  0.3908250000000 1.0
C      1  0.5399420000000  0.4001800000000  0.4238780000000 1.0
C      1  0.4600580000000  0.5998200000000  0.5761220000000 1.0
C      1  0.4838700000000  0.5257700000000  0.5380080000000 1.0
C      1  0.5161300000000  0.4742300000000  0.4619920000000 1.0
C      1  0.4894300000000  0.5983850000000  0.5291520000000 1.0
C      1  0.5105700000000  0.4016150000000  0.4708480000000 1.0
C      1  0.6527930000000  0.4896260000000  0.4801220000000 1.0
C      1  0.3472070000000  0.5103740000000  0.5198780000000 1.0
C      1  0.5269320000000  0.3383920000000  0.5241310000000 1.0
C      1  0.4730680000000  0.6616080000000  0.4758690000000 1.0
C      1  0.6268340000000  0.5130460000000  0.5535590000000 1.0
C      1  0.3731660000000  0.4869540000000  0.4464410000000 1.0
C      1  0.5745100000000  0.4490740000000  0.5726100000000 1.0
C      1  0.4254900000000  0.5509260000000  0.4273900000000 1.0
C      1  0.4593980000000  0.4382000000000  0.5239990000000 1.0
C      1  0.5406020000000  0.5618000000000  0.4760010000000 1.0
C      1  0.6562200000000  0.5249260000000  0.5124240000000 1.0
C      1  0.3437800000000  0.4750740000000  0.4875770000000 1.0
C      1  0.3905980000000  0.4512690000000  0.5700270000000 1.0
C      1  0.6094020000000  0.5487310000000  0.4299730000000 1.0
C      1  0.5539600000000  0.3567880000000  0.4468220000000 1.0
C      1  0.4460400000000  0.6432120000000  0.5531780000000 1.0
C      1  0.5658790000000  0.5042330000000  0.3892030000000 1.0
C      1  0.4341210000000  0.4957670000000  0.6107970000000 1.0
C      1  0.5288910000000  0.5752820000000  0.4027180000000 1.0
C      1  0.4711090000000  0.4247180000000  0.5972820000000 1.0
C      1  0.5021280000000  0.4149270000000  0.3907600000000 1.0
C      1  0.4978720000000  0.5850730000000  0.6092400000000 1.0
C      1  0.4610900000000  0.5547140000000  0.4634830000000 1.0
C      1  0.5389100000000  0.4452860000000  0.5365170000000 1.0
C      1  0.6130920000000  0.5834830000000  0.4611990000000 1.0
C      1  0.3869080000000  0.4165170000000  0.5388010000000 1.0
C      1  0.5048330000000  0.5421770000000  0.6304050000000 1.0
C      1  0.4951670000000  0.4578230000000  0.3695950000000 1.0
C      1  0.5523940000000  0.5327980000000  0.6336090000000 1.0
C      1  0.4476060000000  0.4672020000000  0.3663910000000 1.0
C      1  0.4918210000000  0.4492810000000  0.5560790000000 1.0
C      1  0.5081790000000  0.5507190000000  0.4439210000000 1.0
C      1  0.5053650000000  0.6513930000000  0.4435620000000 1.0
C      1  0.4946350000000  0.3486070000000  0.5564380000000 1.0
C      1  0.5521130000000  0.6328920000000  0.5701130000000 1.0
C      1  0.4478870000000  0.3671080000000  0.4298870000000 1.0
C      1  0.4125900000000  0.6288850000000  0.5218180000000 1.0
C      1  0.5874100000000  0.3711150000000  0.4781820000000 1.0
C      1  0.3935540000000  0.5845900000000  0.5319920000000 1.0
C      1  0.6064460000000  0.4154100000000  0.4680080000000 1.0
C      1  0.4323960000000  0.3949000000000  0.5330010000000 1.0
C      1  0.5676040000000  0.6051000000000  0.4669990000000 1.0
C      1  0.5646990000000  0.6347710000000  0.5047300000000 1.0
C      1  0.4353010000000  0.3652290000000  0.4952700000000 1.0
C      1  0.4819600000000  0.6666300000000  0.5250560000000 1.0
C      1  0.5180400000000  0.3333700000000  0.4749440000000 1.0
C      1  0.4604600000000  0.5949370000000  0.4893910000000 1.0
C      1  0.5395400000000  0.4050630000000  0.5106090000000 1.0
END
