TITL C-234682-220-7 -0.0223928352474338 125000 -135.627157268472 0 0 20 (Ih) n - 1
REM
REM in /rds/project/t2_vol4/rds-t2-cs072/BORA/CARBON/from-Arr/AIRSS/Generating-Clusters/GAP-ML-2020/Higher-Symm/SD-CG/HFTN-CG
REM
REM
REM
REM
REM
REM ./C.cell (b20cbc046b6831c77cfcea5457e17084)
REM AIRSS Version 0.9.1 bugfix July 2018 build 013d7b7c2542+ Fri, 06 Jul 2018 19:26:36 +0100
REM compiler GCC version 9.3.0
REM options -cpp -mtune=generic -march=x86-64 -g -O0
REM seed -47175486 882363489 1670592719 -1106346677 1561697823 -934604448 -866134551 -464117808 -510183835 -1206061038 1723278198 -698904074 -1098630420 721059149 1336446829 51837261 -1536134776 -725690979 -645021641 -1523940726 -2083464451 1841211003 1113302405 -2073163068 555794540 -1827099700 1609047091 -108110879 -21740692 -1648588101 -731211505 -1293765363 1786591128
REM
CELL 1.54180   50.00000   50.00000   50.00000   90.00000   90.00000   90.00000
LATT -1
SFAC C  
C      1  0.4861220000000  0.5390190000000  0.5000600000000 1.0
C      1  0.5153960000000  0.4623790000000  0.5000600000000 1.0
C      1  0.5007590000000  0.5153360000000  0.4617400000000 1.0
C      1  0.5007590000000  0.4860620000000  0.5383800000000 1.0
C      1  0.5390790000000  0.5006990000000  0.4854230000000 1.0
C      1  0.4861220000000  0.4623790000000  0.5000600000000 1.0
C      1  0.5153960000000  0.5390190000000  0.5000600000000 1.0
C      1  0.5390790000000  0.5006990000000  0.5146970000000 1.0
C      1  0.4624390000000  0.5006990000000  0.5146970000000 1.0
C      1  0.4624390000000  0.5006990000000  0.4854230000000 1.0
C      1  0.5007590000000  0.4860620000000  0.4617400000000 1.0
C      1  0.5007590000000  0.5153360000000  0.5383800000000 1.0
C      1  0.5244420000000  0.5243820000000  0.5237430000000 1.0
C      1  0.5244420000000  0.4770160000000  0.4763770000000 1.0
C      1  0.4770760000000  0.5243820000000  0.4763770000000 1.0
C      1  0.4770760000000  0.4770160000000  0.5237430000000 1.0
C      1  0.4770760000000  0.5243820000000  0.5237430000000 1.0
C      1  0.5244420000000  0.5243820000000  0.4763770000000 1.0
C      1  0.5244420000000  0.4770160000000  0.5237430000000 1.0
C      1  0.4770760000000  0.4770160000000  0.4763770000000 1.0
END
