TITL C-239805-2271-1 426.495003617253 125000 -441.387202861636 0 0 64 (C1) n - 1
REM
REM in /rds/project/t2_vol4/rds-t2-cs072/BORA/CARBON/from-Arr/AIRSS/Generating-Clusters/GAP-ML-2020/Higher-Symm/SD-CG/HFTN-CG
REM
REM
REM
REM
REM
REM ./C.cell (b20cbc046b6831c77cfcea5457e17084)
REM AIRSS Version 0.9.1 bugfix July 2018 build 013d7b7c2542+ Fri, 06 Jul 2018 19:26:36 +0100
REM compiler GCC version 9.3.0
REM options -cpp -mtune=generic -march=x86-64 -g -O0
REM seed -1686627097 -2053624478 -1597961287 -1983846965 -2028859221 355721648 445087184 -641903900 -113927019 1631910560 1772973386 -1682791009 -1357518607 -1470533404 167132078 93897156 1695360251 1781688364 65145996 213165560 -570325821 -827979526 589331063 1500713018 -730549078 -1074498088 -591198279 -1789475754 -814858575 -844846936 -1410409706 -440586148 -1888057852
REM
CELL 1.54180   50.00000   50.00000   50.00000   90.00000   90.00000   90.00000
LATT -1
SFAC C  
C      1  0.5159080000000  0.5008120000000  0.4295740000000 1.0
C      1  0.4481040000000  0.5132400000000  0.4453190000000 1.0
C      1  0.4236910000000  0.5129880000000  0.4988120000000 1.0
C      1  0.4520440000000  0.4990710000000  0.5565820000000 1.0
C      1  0.5183370000000  0.5040230000000  0.5683710000000 1.0
C      1  0.5736730000000  0.4990000000000  0.5331540000000 1.0
C      1  0.5732140000000  0.4967280000000  0.4691460000000 1.0
C      1  0.4514590000000  0.5534850000000  0.4891730000000 1.0
C      1  0.4476080000000  0.5441280000000  0.5413150000000 1.0
C      1  0.4986610000000  0.5459830000000  0.5471280000000 1.0
C      1  0.5484000000000  0.5424370000000  0.5324580000000 1.0
C      1  0.5656340000000  0.5349580000000  0.4765580000000 1.0
C      1  0.5239570000000  0.5473970000000  0.4617820000000 1.0
C      1  0.4774550000000  0.5462830000000  0.4467520000000 1.0
C      1  0.4342050000000  0.5186830000000  0.5444050000000 1.0
C      1  0.4964350000000  0.5226110000000  0.5651810000000 1.0
C      1  0.5592400000000  0.5199990000000  0.5472640000000 1.0
C      1  0.5822640000000  0.5153740000000  0.4906890000000 1.0
C      1  0.5303760000000  0.5205780000000  0.4484900000000 1.0
C      1  0.4711780000000  0.5239640000000  0.4307650000000 1.0
C      1  0.4294890000000  0.5354930000000  0.4804130000000 1.0
C      1  0.5142260000000  0.5022350000000  0.5111320000000 1.0
C      1  0.5306980000000  0.4992850000000  0.4898340000000 1.0
C      1  0.5131620000000  0.5013390000000  0.4664710000000 1.0
C      1  0.4599330000000  0.4941150000000  0.4660570000000 1.0
C      1  0.4430960000000  0.4904990000000  0.4935650000000 1.0
C      1  0.4649320000000  0.4949460000000  0.5161010000000 1.0
C      1  0.4884350000000  0.5047380000000  0.5041390000000 1.0
C      1  0.5164380000000  0.4760420000000  0.4475900000000 1.0
C      1  0.4659450000000  0.4658170000000  0.4580280000000 1.0
C      1  0.4407680000000  0.4610620000000  0.4983030000000 1.0
C      1  0.4635780000000  0.4758950000000  0.5409880000000 1.0
C      1  0.5151060000000  0.4764950000000  0.5603130000000 1.0
C      1  0.5608530000000  0.4730720000000  0.5310720000000 1.0
C      1  0.5568660000000  0.4762150000000  0.4794090000000 1.0
C      1  0.4530600000000  0.4528690000000  0.5236100000000 1.0
C      1  0.4902360000000  0.4644640000000  0.5515460000000 1.0
C      1  0.5370530000000  0.4632820000000  0.5456970000000 1.0
C      1  0.5602190000000  0.4606560000000  0.5045620000000 1.0
C      1  0.5386120000000  0.4616770000000  0.4615570000000 1.0
C      1  0.4931190000000  0.4579540000000  0.4523560000000 1.0
C      1  0.4548140000000  0.4472380000000  0.4773470000000 1.0
C      1  0.4998320000000  0.4384510000000  0.4718990000000 1.0
C      1  0.4769570000000  0.4322800000000  0.4886760000000 1.0
C      1  0.4750760000000  0.4358550000000  0.5174000000000 1.0
C      1  0.4970550000000  0.4424920000000  0.5344680000000 1.0
C      1  0.5252900000000  0.4428070000000  0.5292370000000 1.0
C      1  0.5393030000000  0.4411430000000  0.5041440000000 1.0
C      1  0.5273890000000  0.4410710000000  0.4776850000000 1.0
C      1  0.4735520000000  0.5534500000000  0.5373440000000 1.0
C      1  0.5221820000000  0.5527060000000  0.5335620000000 1.0
C      1  0.5377990000000  0.5565690000000  0.5105170000000 1.0
C      1  0.5429640000000  0.5511540000000  0.4825350000000 1.0
C      1  0.4984160000000  0.5582210000000  0.4609630000000 1.0
C      1  0.4721260000000  0.5586300000000  0.4709170000000 1.0
C      1  0.4552360000000  0.5562890000000  0.5166580000000 1.0
C      1  0.5925120000000  0.5077760000000  0.5139470000000 1.0
C      1  0.5580440000000  0.5167570000000  0.4557870000000 1.0
C      1  0.4917370000000  0.5095890000000  0.4204950000000 1.0
C      1  0.4277150000000  0.5290210000000  0.4534570000000 1.0
C      1  0.4150610000000  0.5159110000000  0.5249170000000 1.0
C      1  0.4715230000000  0.5128480000000  0.5699730000000 1.0
C      1  0.5437280000000  0.5135930000000  0.5687430000000 1.0
C      1  0.4856610000000  0.5063210000000  0.4758910000000 1.0
END
