TITL C-234766-2865-3 33.737577025085 125000 -986.294865141507 0 0 143 (C1) n - 1
REM
REM in /rds/project/t2_vol4/rds-t2-cs072/BORA/CARBON/from-Arr/AIRSS/Generating-Clusters/GAP-ML-2020/Higher-Symm/SD-CG/HFTN-CG
REM
REM
REM
REM
REM
REM ./C.cell (b20cbc046b6831c77cfcea5457e17084)
REM AIRSS Version 0.9.1 bugfix July 2018 build 013d7b7c2542+ Fri, 06 Jul 2018 19:26:36 +0100
REM compiler GCC version 9.3.0
REM options -cpp -mtune=generic -march=x86-64 -g -O0
REM seed -970799659 1948655436 -913096155 -1492572383 -562356317 -1888455597 1101882016 2004640947 511720363 1093341847 -884295290 1268424731 -104568106 1898594605 -1139763329 -1306005372 26740406 -1466303174 -372394494 1591134137 2088764048 2078990073 1865863896 -1123624870 -1389531981 1747691894 -296356736 1683875640 969243014 1418832998 -1041386762 2046725732 -1796431276
REM
CELL 1.54180   50.00000   50.00000   50.00000   90.00000   90.00000   90.00000
LATT -1
SFAC C  
C      1  0.4025740000000  0.5363770000000  0.5169020000000 1.0
C      1  0.4024660000000  0.4639560000000  0.4884420000000 1.0
C      1  0.5956430000000  0.5377590000000  0.4814450000000 1.0
C      1  0.5917420000000  0.4716840000000  0.5118010000000 1.0
C      1  0.4021790000000  0.5151030000000  0.5379800000000 1.0
C      1  0.4022970000000  0.4832980000000  0.4666550000000 1.0
C      1  0.5996960000000  0.4780700000000  0.5413730000000 1.0
C      1  0.5967770000000  0.5167180000000  0.4609250000000 1.0
C      1  0.3997840000000  0.4647700000000  0.5168060000000 1.0
C      1  0.4042060000000  0.5347230000000  0.4887360000000 1.0
C      1  0.5964000000000  0.4666790000000  0.4825260000000 1.0
C      1  0.5896850000000  0.5304670000000  0.5082940000000 1.0
C      1  0.4128170000000  0.5099920000000  0.4722010000000 1.0
C      1  0.3999250000000  0.4860320000000  0.5378860000000 1.0
C      1  0.6000640000000  0.4885800000000  0.4622100000000 1.0
C      1  0.5876980000000  0.5029430000000  0.5425400000000 1.0
C      1  0.4925560000000  0.5174860000000  0.5943090000000 1.0
C      1  0.4931020000000  0.4803120000000  0.4078000000000 1.0
C      1  0.5029240000000  0.5169360000000  0.4063860000000 1.0
C      1  0.5003450000000  0.4811490000000  0.5969750000000 1.0
C      1  0.4950820000000  0.5907890000000  0.5187880000000 1.0
C      1  0.4950810000000  0.4074640000000  0.4858790000000 1.0
C      1  0.5009920000000  0.4034510000000  0.5250850000000 1.0
C      1  0.5049250000000  0.5912240000000  0.4806820000000 1.0
C      1  0.5066560000000  0.4464110000000  0.4703850000000 1.0
C      1  0.4936980000000  0.5492040000000  0.5326350000000 1.0
C      1  0.5017760000000  0.4487950000000  0.5317290000000 1.0
C      1  0.5092790000000  0.5514140000000  0.4650870000000 1.0
C      1  0.5023700000000  0.4652620000000  0.4477560000000 1.0
C      1  0.4989310000000  0.5277270000000  0.5522840000000 1.0
C      1  0.5025680000000  0.5285630000000  0.4476780000000 1.0
C      1  0.5006840000000  0.4700700000000  0.5519180000000 1.0
C      1  0.4882070000000  0.5781150000000  0.5439990000000 1.0
C      1  0.4934750000000  0.4216260000000  0.4607150000000 1.0
C      1  0.5106050000000  0.5808020000000  0.4535990000000 1.0
C      1  0.5078790000000  0.4193560000000  0.5475180000000 1.0
C      1  0.4891360000000  0.5408320000000  0.5788290000000 1.0
C      1  0.4880160000000  0.4546450000000  0.4222420000000 1.0
C      1  0.5072650000000  0.4585030000000  0.5811740000000 1.0
C      1  0.5086030000000  0.5418480000000  0.4192500000000 1.0
C      1  0.4478320000000  0.4994620000000  0.4201230000000 1.0
C      1  0.4463120000000  0.4996290000000  0.5833200000000 1.0
C      1  0.5417710000000  0.5026440000000  0.5782520000000 1.0
C      1  0.5503680000000  0.5019610000000  0.4123220000000 1.0
C      1  0.4475110000000  0.4160660000000  0.5031050000000 1.0
C      1  0.4499310000000  0.5793440000000  0.5008210000000 1.0
C      1  0.5502770000000  0.5799990000000  0.5004440000000 1.0
C      1  0.5391800000000  0.4255170000000  0.5045790000000 1.0
C      1  0.4415600000000  0.5715600000000  0.5286220000000 1.0
C      1  0.4441240000000  0.4266720000000  0.4758030000000 1.0
C      1  0.5541860000000  0.5673030000000  0.4730460000000 1.0
C      1  0.5503840000000  0.4361700000000  0.5286970000000 1.0
C      1  0.4411490000000  0.5271700000000  0.5731900000000 1.0
C      1  0.4418630000000  0.4727350000000  0.4315320000000 1.0
C      1  0.5528310000000  0.4748720000000  0.5724490000000 1.0
C      1  0.5556080000000  0.5289440000000  0.4230860000000 1.0
C      1  0.4794370000000  0.5836870000000  0.4955400000000 1.0
C      1  0.4766140000000  0.4129380000000  0.5080190000000 1.0
C      1  0.5206270000000  0.5839090000000  0.5042070000000 1.0
C      1  0.5181330000000  0.4067430000000  0.5035730000000 1.0
C      1  0.4749850000000  0.4950700000000  0.5877590000000 1.0
C      1  0.4770580000000  0.5033300000000  0.4148550000000 1.0
C      1  0.5176620000000  0.5033020000000  0.5956760000000 1.0
C      1  0.5206000000000  0.4942880000000  0.4115910000000 1.0
C      1  0.4663950000000  0.4659960000000  0.5079980000000 1.0
C      1  0.4789830000000  0.5290830000000  0.4891580000000 1.0
C      1  0.5379560000000  0.4752950000000  0.4908140000000 1.0
C      1  0.5272850000000  0.5305410000000  0.5061830000000 1.0
C      1  0.4667380000000  0.5076730000000  0.4702520000000 1.0
C      1  0.4636150000000  0.4881200000000  0.5294090000000 1.0
C      1  0.5362280000000  0.4929180000000  0.4651960000000 1.0
C      1  0.5337300000000  0.5084400000000  0.5265560000000 1.0
C      1  0.4822900000000  0.5566290000000  0.4783680000000 1.0
C      1  0.4747250000000  0.4408420000000  0.5225990000000 1.0
C      1  0.5191770000000  0.5556390000000  0.5198860000000 1.0
C      1  0.5372680000000  0.4445110000000  0.4816580000000 1.0
C      1  0.4728910000000  0.4791900000000  0.5581550000000 1.0
C      1  0.4740060000000  0.5203250000000  0.4423830000000 1.0
C      1  0.5279290000000  0.5194990000000  0.5543430000000 1.0
C      1  0.5269410000000  0.4776640000000  0.4379420000000 1.0
C      1  0.4357960000000  0.4268270000000  0.5287700000000 1.0
C      1  0.4399960000000  0.5706640000000  0.4750000000000 1.0
C      1  0.5563340000000  0.4383300000000  0.4596290000000 1.0
C      1  0.5603040000000  0.5688600000000  0.5255920000000 1.0
C      1  0.4367350000000  0.5259940000000  0.4283290000000 1.0
C      1  0.4354900000000  0.4733080000000  0.5748710000000 1.0
C      1  0.5654100000000  0.4779270000000  0.4214060000000 1.0
C      1  0.5594280000000  0.5274530000000  0.5744840000000 1.0
C      1  0.5347020000000  0.4529570000000  0.5719480000000 1.0
C      1  0.5364320000000  0.5504270000000  0.4255270000000 1.0
C      1  0.4611730000000  0.4506580000000  0.4342950000000 1.0
C      1  0.4611070000000  0.5480440000000  0.5704650000000 1.0
C      1  0.5368660000000  0.5707830000000  0.4468040000000 1.0
C      1  0.5344400000000  0.4323890000000  0.5519850000000 1.0
C      1  0.4640370000000  0.4304490000000  0.4551650000000 1.0
C      1  0.4608100000000  0.5692360000000  0.5506790000000 1.0
C      1  0.4841990000000  0.5588960000000  0.4202080000000 1.0
C      1  0.4831210000000  0.4412940000000  0.5810600000000 1.0
C      1  0.5133740000000  0.5584480000000  0.5787610000000 1.0
C      1  0.5012650000000  0.4301890000000  0.4154810000000 1.0
C      1  0.4829950000000  0.4210040000000  0.5628030000000 1.0
C      1  0.4852090000000  0.5787930000000  0.4392630000000 1.0
C      1  0.5127560000000  0.5781560000000  0.5594700000000 1.0
C      1  0.5150410000000  0.4207840000000  0.4365680000000 1.0
C      1  0.5366100000000  0.5404960000000  0.4792350000000 1.0
C      1  0.5120030000000  0.4703810000000  0.5085990000000 1.0
C      1  0.4718940000000  0.5279600000000  0.5163670000000 1.0
C      1  0.4908160000000  0.4670580000000  0.4898590000000 1.0
C      1  0.5099770000000  0.4902300000000  0.5297770000000 1.0
C      1  0.5102820000000  0.5057500000000  0.4666350000000 1.0
C      1  0.4865720000000  0.5075410000000  0.5333530000000 1.0
C      1  0.4886310000000  0.4859200000000  0.4675040000000 1.0
C      1  0.4269600000000  0.4510370000000  0.4749540000000 1.0
C      1  0.4198880000000  0.5533640000000  0.5341220000000 1.0
C      1  0.5648820000000  0.4621160000000  0.5266990000000 1.0
C      1  0.5785050000000  0.5540000000000  0.4651320000000 1.0
C      1  0.4218430000000  0.4684010000000  0.4507940000000 1.0
C      1  0.4197480000000  0.5323940000000  0.5545650000000 1.0
C      1  0.5732130000000  0.5296610000000  0.4472860000000 1.0
C      1  0.5736920000000  0.4723920000000  0.5526840000000 1.0
C      1  0.4187600000000  0.5516380000000  0.4699310000000 1.0
C      1  0.4165440000000  0.4471890000000  0.5336170000000 1.0
C      1  0.5785430000000  0.5461600000000  0.5297960000000 1.0
C      1  0.5811900000000  0.4521050000000  0.4612210000000 1.0
C      1  0.4161180000000  0.4681940000000  0.5548170000000 1.0
C      1  0.4197880000000  0.5296310000000  0.4502700000000 1.0
C      1  0.5795280000000  0.5279160000000  0.5536570000000 1.0
C      1  0.5852760000000  0.4732370000000  0.4414010000000 1.0
C      1  0.5449610000000  0.4580040000000  0.4263480000000 1.0
C      1  0.5380680000000  0.5464760000000  0.5671610000000 1.0
C      1  0.4588290000000  0.4546550000000  0.5687180000000 1.0
C      1  0.4605630000000  0.5449490000000  0.4332570000000 1.0
C      1  0.5418420000000  0.4320800000000  0.4365240000000 1.0
C      1  0.5364190000000  0.5658710000000  0.5440100000000 1.0
C      1  0.4631980000000  0.5654470000000  0.4560810000000 1.0
C      1  0.4592610000000  0.4326110000000  0.5473860000000 1.0
C      1  0.5506950000000  0.5185640000000  0.4659850000000 1.0
C      1  0.4488090000000  0.5093610000000  0.5148910000000 1.0
C      1  0.5538260000000  0.4889310000000  0.5138730000000 1.0
C      1  0.4428990000000  0.4709480000000  0.4912140000000 1.0
C      1  0.4422120000000  0.4995510000000  0.4858950000000 1.0
C      1  0.5815980000000  0.5018800000000  0.5138740000000 1.0
C      1  0.5056550000000  0.5186040000000  0.4915260000000 1.0
END
