TITL C-234711-288-4 -14.8445700520876 125000 -725.537055784846 0 0 103 (C1) n - 1
REM
REM in /rds/project/t2_vol4/rds-t2-cs072/BORA/CARBON/from-Arr/AIRSS/Generating-Clusters/GAP-ML-2020/Higher-Symm/SD-CG/HFTN-CG
REM
REM
REM
REM
REM
REM ./C.cell (b20cbc046b6831c77cfcea5457e17084)
REM AIRSS Version 0.9.1 bugfix July 2018 build 013d7b7c2542+ Fri, 06 Jul 2018 19:26:36 +0100
REM compiler GCC version 9.3.0
REM options -cpp -mtune=generic -march=x86-64 -g -O0
REM seed 2121336099 -704915975 -151111623 -564293861 -233313829 -893448523 -2071855932 -689234727 -192828897 1124068216 -400983405 -604604603 617620198 -1139057890 1506357232 -1781421244 672255956 -438839577 -1965013390 -560507487 -1626024005 -195299086 -188346947 373948240 -1735443967 -1905451508 -1387051223 1213885529 1823093576 -433147619 529483640 400165632 -558708352
REM
CELL 1.54180   50.00000   50.00000   50.00000   90.00000   90.00000   90.00000
LATT -1
SFAC C  
C      1  0.4756220000000  0.5672890000000  0.4761870000000 1.0
C      1  0.5153720000000  0.4971670000000  0.4235530000000 1.0
C      1  0.5541530000000  0.4327350000000  0.4937030000000 1.0
C      1  0.4965920000000  0.5189520000000  0.4656380000000 1.0
C      1  0.5217420000000  0.5715780000000  0.4591230000000 1.0
C      1  0.4799760000000  0.5759000000000  0.5205520000000 1.0
C      1  0.4985530000000  0.4333150000000  0.5534950000000 1.0
C      1  0.5204470000000  0.4346020000000  0.5706790000000 1.0
C      1  0.4689460000000  0.4912670000000  0.4256860000000 1.0
C      1  0.4906500000000  0.5544140000000  0.5635080000000 1.0
C      1  0.4526120000000  0.4379680000000  0.4775760000000 1.0
C      1  0.5304760000000  0.4994150000000  0.5231670000000 1.0
C      1  0.5687640000000  0.5354450000000  0.4489890000000 1.0
C      1  0.5474000000000  0.4432030000000  0.4419550000000 1.0
C      1  0.4983620000000  0.4895220000000  0.5864240000000 1.0
C      1  0.4083610000000  0.5287720000000  0.5127890000000 1.0
C      1  0.5048850000000  0.4923460000000  0.4548550000000 1.0
C      1  0.5019180000000  0.5770800000000  0.4789190000000 1.0
C      1  0.4898460000000  0.5091810000000  0.4161630000000 1.0
C      1  0.5762400000000  0.4815330000000  0.4512640000000 1.0
C      1  0.4270470000000  0.5489130000000  0.5220840000000 1.0
C      1  0.4412370000000  0.4988080000000  0.4292300000000 1.0
C      1  0.4610950000000  0.4277480000000  0.5040800000000 1.0
C      1  0.5722600000000  0.4632450000000  0.5248960000000 1.0
C      1  0.5342340000000  0.5747940000000  0.5206420000000 1.0
C      1  0.5182990000000  0.4379460000000  0.4365250000000 1.0
C      1  0.4509400000000  0.5377160000000  0.5392960000000 1.0
C      1  0.4349230000000  0.4756880000000  0.5537830000000 1.0
C      1  0.5691830000000  0.5556130000000  0.4680250000000 1.0
C      1  0.4753370000000  0.4758240000000  0.5759820000000 1.0
C      1  0.5454000000000  0.4285640000000  0.4670000000000 1.0
C      1  0.4080880000000  0.5121660000000  0.5342430000000 1.0
C      1  0.4895730000000  0.5373220000000  0.4233900000000 1.0
C      1  0.5471410000000  0.4394430000000  0.5637260000000 1.0
C      1  0.4727830000000  0.5601270000000  0.5428550000000 1.0
C      1  0.4775410000000  0.5329300000000  0.5781210000000 1.0
C      1  0.5830590000000  0.4730020000000  0.4782970000000 1.0
C      1  0.5409190000000  0.5060370000000  0.5730500000000 1.0
C      1  0.5105330000000  0.5398400000000  0.5080020000000 1.0
C      1  0.5358480000000  0.5050280000000  0.4938040000000 1.0
C      1  0.5396670000000  0.5125920000000  0.4173360000000 1.0
C      1  0.5203420000000  0.5515540000000  0.5639910000000 1.0
C      1  0.5069110000000  0.5723810000000  0.5085760000000 1.0
C      1  0.4389180000000  0.5264380000000  0.4389840000000 1.0
C      1  0.5285050000000  0.5311710000000  0.4879140000000 1.0
C      1  0.5577910000000  0.4684390000000  0.4334000000000 1.0
C      1  0.4045200000000  0.4885830000000  0.4872860000000 1.0
C      1  0.5264550000000  0.4828480000000  0.5831570000000 1.0
C      1  0.5195180000000  0.5342110000000  0.4616070000000 1.0
C      1  0.4828710000000  0.4708340000000  0.4438580000000 1.0
C      1  0.5738550000000  0.4544780000000  0.4978610000000 1.0
C      1  0.5771780000000  0.5363900000000  0.5166300000000 1.0
C      1  0.4199070000000  0.4488170000000  0.5071300000000 1.0
C      1  0.4155160000000  0.4716570000000  0.4657490000000 1.0
C      1  0.5186410000000  0.5499680000000  0.4375530000000 1.0
C      1  0.4716990000000  0.4790090000000  0.4936940000000 1.0
C      1  0.5473180000000  0.5746560000000  0.4710050000000 1.0
C      1  0.5745940000000  0.5565070000000  0.4969290000000 1.0
C      1  0.4606430000000  0.5755430000000  0.4997110000000 1.0
C      1  0.4244250000000  0.4813710000000  0.4423600000000 1.0
C      1  0.5420870000000  0.4856660000000  0.4170210000000 1.0
C      1  0.4507730000000  0.5234500000000  0.4785330000000 1.0
C      1  0.5167360000000  0.4728960000000  0.5202790000000 1.0
C      1  0.4415420000000  0.4373910000000  0.5230490000000 1.0
C      1  0.4261160000000  0.5278550000000  0.4665540000000 1.0
C      1  0.4645460000000  0.5407640000000  0.4376500000000 1.0
C      1  0.5341840000000  0.4561070000000  0.5826780000000 1.0
C      1  0.5885740000000  0.5007970000000  0.4851050000000 1.0
C      1  0.4131490000000  0.4858790000000  0.5371880000000 1.0
C      1  0.5766700000000  0.4910970000000  0.5321740000000 1.0
C      1  0.4745160000000  0.4571780000000  0.4710980000000 1.0
C      1  0.5597350000000  0.5367030000000  0.5391630000000 1.0
C      1  0.5241160000000  0.5280420000000  0.5795490000000 1.0
C      1  0.4520450000000  0.4924080000000  0.5694340000000 1.0
C      1  0.4609220000000  0.5153130000000  0.5210180000000 1.0
C      1  0.5401060000000  0.5575990000000  0.5438610000000 1.0
C      1  0.4256030000000  0.4472630000000  0.4792950000000 1.0
C      1  0.5527920000000  0.5756540000000  0.4999110000000 1.0
C      1  0.4541220000000  0.5218040000000  0.5667990000000 1.0
C      1  0.5084430000000  0.5197650000000  0.5278050000000 1.0
C      1  0.4065510000000  0.5173710000000  0.4861030000000 1.0
C      1  0.5182200000000  0.4636470000000  0.4931540000000 1.0
C      1  0.5801690000000  0.5100310000000  0.4582470000000 1.0
C      1  0.4069130000000  0.4734290000000  0.5121440000000 1.0
C      1  0.4893790000000  0.4260640000000  0.5056140000000 1.0
C      1  0.5241990000000  0.4851850000000  0.4761000000000 1.0
C      1  0.5167230000000  0.4261510000000  0.4629530000000 1.0
C      1  0.4348770000000  0.5690060000000  0.5058840000000 1.0
C      1  0.4984290000000  0.5176130000000  0.5880470000000 1.0
C      1  0.5865990000000  0.5092650000000  0.5122260000000 1.0
C      1  0.4893230000000  0.4795920000000  0.5159680000000 1.0
C      1  0.4543600000000  0.5017840000000  0.4968520000000 1.0
C      1  0.4854960000000  0.5048000000000  0.5288120000000 1.0
C      1  0.4998740000000  0.4415370000000  0.4823180000000 1.0
C      1  0.5453420000000  0.5364320000000  0.4305950000000 1.0
C      1  0.4723870000000  0.5387780000000  0.4662580000000 1.0
C      1  0.5545310000000  0.5073520000000  0.5460920000000 1.0
C      1  0.4747940000000  0.4505310000000  0.5605300000000 1.0
C      1  0.4488660000000  0.4509960000000  0.5472830000000 1.0
C      1  0.4977490000000  0.4515100000000  0.4277640000000 1.0
C      1  0.5083720000000  0.4248540000000  0.5267490000000 1.0
C      1  0.5556810000000  0.4422960000000  0.5375220000000 1.0
C      1  0.5387570000000  0.4282630000000  0.5186340000000 1.0
END
