TITL C-237573-9929-2 -72.2840114321398 125000 -679.620375899215 0 0 99 (C1) n - 1
REM
REM in /rds/project/t2_vol4/rds-t2-cs072/BORA/CARBON/from-Arr/AIRSS/Generating-Clusters/GAP-ML-2020/Higher-Symm/SD-CG/HFTN-CG
REM
REM
REM
REM
REM
REM ./C.cell (b20cbc046b6831c77cfcea5457e17084)
REM AIRSS Version 0.9.1 bugfix July 2018 build 013d7b7c2542+ Fri, 06 Jul 2018 19:26:36 +0100
REM compiler GCC version 9.3.0
REM options -cpp -mtune=generic -march=x86-64 -g -O0
REM seed -254786007 -1879938861 1622306 796416554 -1176393491 365097094 1476773175 654022691 1272239264 -1906174733 1589002555 -42959516 -1072911225 2113730498 -132399813 -257210967 -377099592 929155591 -1273548717 -1874979492 -1356315113 432992614 2140513926 1544951752 -223292579 1944257163 1138196878 1906124176 -1661100142 1077815260 623136425 1947040746 -498914044
REM
CELL 1.54180   50.00000   50.00000   50.00000   90.00000   90.00000   90.00000
LATT -1
SFAC C  
C      1  0.4344530000000  0.5049400000000  0.5457170000000 1.0
C      1  0.5251120000000  0.5087270000000  0.5760810000000 1.0
C      1  0.5844890000000  0.5152760000000  0.4944570000000 1.0
C      1  0.5243480000000  0.5115260000000  0.4205640000000 1.0
C      1  0.4341000000000  0.5146460000000  0.4522230000000 1.0
C      1  0.4327660000000  0.4868720000000  0.4540680000000 1.0
C      1  0.5231660000000  0.4827800000000  0.4233950000000 1.0
C      1  0.5915170000000  0.4889400000000  0.4929660000000 1.0
C      1  0.5207640000000  0.4815880000000  0.5833950000000 1.0
C      1  0.4297660000000  0.4779720000000  0.5501850000000 1.0
C      1  0.5177140000000  0.4916340000000  0.5171170000000 1.0
C      1  0.5184430000000  0.4783270000000  0.4895770000000 1.0
C      1  0.4967490000000  0.4931200000000  0.4740780000000 1.0
C      1  0.4736970000000  0.4786280000000  0.5109410000000 1.0
C      1  0.4963420000000  0.4778860000000  0.5307610000000 1.0
C      1  0.5196850000000  0.5310890000000  0.4870070000000 1.0
C      1  0.5120270000000  0.5215720000000  0.5131010000000 1.0
C      1  0.4839100000000  0.5262780000000  0.5046380000000 1.0
C      1  0.4741880000000  0.5008230000000  0.4933380000000 1.0
C      1  0.5111300000000  0.5154520000000  0.4657780000000 1.0
C      1  0.5400900000000  0.4613870000000  0.5722160000000 1.0
C      1  0.5771360000000  0.4695290000000  0.4760610000000 1.0
C      1  0.5007050000000  0.4634850000000  0.4263750000000 1.0
C      1  0.4263530000000  0.4679020000000  0.4750940000000 1.0
C      1  0.4488670000000  0.4583230000000  0.5615030000000 1.0
C      1  0.5421400000000  0.5321560000000  0.4323130000000 1.0
C      1  0.5734450000000  0.5303450000000  0.5168210000000 1.0
C      1  0.5035950000000  0.5269100000000  0.5719710000000 1.0
C      1  0.4272820000000  0.5251010000000  0.5258400000000 1.0
C      1  0.4532870000000  0.5325680000000  0.4396340000000 1.0
C      1  0.5218580000000  0.4475510000000  0.4896350000000 1.0
C      1  0.4686970000000  0.4416530000000  0.4724200000000 1.0
C      1  0.4727060000000  0.4497120000000  0.5002370000000 1.0
C      1  0.5025910000000  0.4495390000000  0.5335010000000 1.0
C      1  0.5476470000000  0.4376570000000  0.5012420000000 1.0
C      1  0.5213780000000  0.5493220000000  0.5264830000000 1.0
C      1  0.4760580000000  0.5534770000000  0.5060990000000 1.0
C      1  0.4604040000000  0.5780050000000  0.4651710000000 1.0
C      1  0.4897320000000  0.5764480000000  0.4656550000000 1.0
C      1  0.5230190000000  0.5599010000000  0.4979180000000 1.0
C      1  0.4743640000000  0.5246520000000  0.4211840000000 1.0
C      1  0.4189320000000  0.5251360000000  0.4981860000000 1.0
C      1  0.4762860000000  0.5178260000000  0.5746610000000 1.0
C      1  0.5643020000000  0.5169920000000  0.5407330000000 1.0
C      1  0.5661760000000  0.5259430000000  0.4480400000000 1.0
C      1  0.4704060000000  0.4663540000000  0.5795780000000 1.0
C      1  0.4177110000000  0.4723970000000  0.5023590000000 1.0
C      1  0.4731990000000  0.4727540000000  0.4243390000000 1.0
C      1  0.5647860000000  0.4740260000000  0.4506490000000 1.0
C      1  0.5605620000000  0.4698170000000  0.5579150000000 1.0
C      1  0.5675700000000  0.5512890000000  0.4969560000000 1.0
C      1  0.5193800000000  0.5520160000000  0.4320850000000 1.0
C      1  0.4467980000000  0.5533290000000  0.4593090000000 1.0
C      1  0.4447950000000  0.5445240000000  0.5399770000000 1.0
C      1  0.5212050000000  0.5464420000000  0.5572330000000 1.0
C      1  0.5698630000000  0.4546520000000  0.4996280000000 1.0
C      1  0.5171420000000  0.4409410000000  0.5731810000000 1.0
C      1  0.4417140000000  0.4400690000000  0.5384260000000 1.0
C      1  0.4432290000000  0.4469850000000  0.4603710000000 1.0
C      1  0.5180220000000  0.4442780000000  0.4418080000000 1.0
C      1  0.5096990000000  0.4281910000000  0.5496050000000 1.0
C      1  0.5473360000000  0.4133700000000  0.5121910000000 1.0
C      1  0.5146860000000  0.4292070000000  0.4659160000000 1.0
C      1  0.4527510000000  0.4176150000000  0.4630920000000 1.0
C      1  0.4567990000000  0.4290960000000  0.5177010000000 1.0
C      1  0.5120180000000  0.5756410000000  0.4474570000000 1.0
C      1  0.5488380000000  0.5725920000000  0.4942120000000 1.0
C      1  0.5143260000000  0.5713110000000  0.5437270000000 1.0
C      1  0.4597140000000  0.5638410000000  0.5267410000000 1.0
C      1  0.4545280000000  0.5934200000000  0.4868970000000 1.0
C      1  0.5022540000000  0.5314460000000  0.4209150000000 1.0
C      1  0.4288140000000  0.5344330000000  0.4728430000000 1.0
C      1  0.4529890000000  0.5230530000000  0.5587150000000 1.0
C      1  0.5439040000000  0.5248050000000  0.5598870000000 1.0
C      1  0.5760250000000  0.5338780000000  0.4746150000000 1.0
C      1  0.4988860000000  0.4619770000000  0.5829020000000 1.0
C      1  0.4232000000000  0.4608620000000  0.5280080000000 1.0
C      1  0.4494480000000  0.4681850000000  0.4400010000000 1.0
C      1  0.5401800000000  0.4647180000000  0.4384980000000 1.0
C      1  0.5812400000000  0.4756460000000  0.5171470000000 1.0
C      1  0.5159510000000  0.4055080000000  0.5324410000000 1.0
C      1  0.5417700000000  0.3940670000000  0.5286020000000 1.0
C      1  0.5008340000000  0.4066660000000  0.4783800000000 1.0
C      1  0.4708950000000  0.4047720000000  0.4789240000000 1.0
C      1  0.4693260000000  0.4051360000000  0.5085100000000 1.0
C      1  0.5306910000000  0.5916460000000  0.4606540000000 1.0
C      1  0.5499210000000  0.5954050000000  0.4770770000000 1.0
C      1  0.4964740000000  0.5908120000000  0.5370800000000 1.0
C      1  0.4672130000000  0.5908570000000  0.5339600000000 1.0
C      1  0.4664780000000  0.6045860000000  0.5073060000000 1.0
C      1  0.5708290000000  0.4880790000000  0.5404130000000 1.0
C      1  0.4146870000000  0.4988960000000  0.5002380000000 1.0
C      1  0.5673810000000  0.4996650000000  0.4437000000000 1.0
C      1  0.4720090000000  0.4928310000000  0.5837380000000 1.0
C      1  0.4731340000000  0.4983710000000  0.4163520000000 1.0
C      1  0.4986480000000  0.4100570000000  0.5087560000000 1.0
C      1  0.4942820000000  0.5970370000000  0.5087990000000 1.0
C      1  0.4995850000000  0.4393650000000  0.5071580000000 1.0
C      1  0.4971130000000  0.5727040000000  0.4934740000000 1.0
END
