TITL C-234700-290-3 0.0454818832896096 125000 -710.01610503423 0 0 102 (Ci) n - 1
REM
REM in /rds/project/t2_vol4/rds-t2-cs072/BORA/CARBON/from-Arr/AIRSS/Generating-Clusters/GAP-ML-2020/Higher-Symm/SD-CG/HFTN-CG
REM
REM
REM
REM
REM
REM ./C.cell (b20cbc046b6831c77cfcea5457e17084)
REM AIRSS Version 0.9.1 bugfix July 2018 build 013d7b7c2542+ Fri, 06 Jul 2018 19:26:36 +0100
REM compiler GCC version 9.3.0
REM options -cpp -mtune=generic -march=x86-64 -g -O0
REM seed -2101168681 -225365878 1451193797 -1194654640 -812168718 -755685255 -865897304 -630969563 1870220760 526029037 -1814160712 -1912134180 -1315258268 168559363 771230322 -612308532 1800561151 549092061 -791418019 -2142541112 1586389126 -754229497 455438969 -869006544 1190271899 1797019315 -436779805 928359389 -1023845482 726098049 -724860766 381201806 -1733941161
REM
CELL 1.54180   50.00000   50.00000   50.00000   90.00000   90.00000   90.00000
LATT -1
SFAC C  
C      1  0.4659760000000  0.4986100000000  0.5665790000000 1.0
C      1  0.5340240000000  0.5013900000000  0.4334210000000 1.0
C      1  0.4798450000000  0.5777620000000  0.4960150000000 1.0
C      1  0.5201550000000  0.4222380000000  0.5039850000000 1.0
C      1  0.5098690000000  0.4592040000000  0.4263500000000 1.0
C      1  0.4901310000000  0.5407960000000  0.5736500000000 1.0
C      1  0.4356780000000  0.4690420000000  0.5322540000000 1.0
C      1  0.5643220000000  0.5309580000000  0.4677460000000 1.0
C      1  0.4902750000000  0.4280620000000  0.5041220000000 1.0
C      1  0.5097250000000  0.5719380000000  0.4958780000000 1.0
C      1  0.4715040000000  0.4359090000000  0.5261600000000 1.0
C      1  0.5284960000000  0.5640910000000  0.4738400000000 1.0
C      1  0.4414970000000  0.5676420000000  0.5294020000000 1.0
C      1  0.5585030000000  0.4323580000000  0.4705980000000 1.0
C      1  0.5150650000000  0.5050730000000  0.5580750000000 1.0
C      1  0.4849350000000  0.4949270000000  0.4419250000000 1.0
C      1  0.5326920000000  0.4201140000000  0.4776660000000 1.0
C      1  0.4673080000000  0.5798860000000  0.5223340000000 1.0
C      1  0.5792270000000  0.5121820000000  0.4846560000000 1.0
C      1  0.4207730000000  0.4878180000000  0.5153440000000 1.0
C      1  0.4115920000000  0.5377330000000  0.5075050000000 1.0
C      1  0.5884080000000  0.4622670000000  0.4924950000000 1.0
C      1  0.5107630000000  0.4872700000000  0.4271660000000 1.0
C      1  0.4892370000000  0.5127300000000  0.5728340000000 1.0
C      1  0.5376880000000  0.4806200000000  0.5608880000000 1.0
C      1  0.4623120000000  0.5193800000000  0.4391120000000 1.0
C      1  0.5244680000000  0.4971450000000  0.4802250000000 1.0
C      1  0.4755320000000  0.5028550000000  0.5197750000000 1.0
C      1  0.5192090000000  0.5432770000000  0.4551650000000 1.0
C      1  0.4807910000000  0.4567230000000  0.5448350000000 1.0
C      1  0.5757870000000  0.4836550000000  0.4760530000000 1.0
C      1  0.4242130000000  0.5163450000000  0.5239470000000 1.0
C      1  0.5449040000000  0.4762850000000  0.4861400000000 1.0
C      1  0.4550960000000  0.5237150000000  0.5138600000000 1.0
C      1  0.4774280000000  0.4509780000000  0.5747380000000 1.0
C      1  0.5225720000000  0.5490220000000  0.4252620000000 1.0
C      1  0.4738120000000  0.4962580000000  0.4899970000000 1.0
C      1  0.5261880000000  0.5037420000000  0.5100030000000 1.0
C      1  0.5333950000000  0.4615010000000  0.5343990000000 1.0
C      1  0.4666050000000  0.5384990000000  0.4656010000000 1.0
C      1  0.4881930000000  0.4282290000000  0.4553420000000 1.0
C      1  0.5118070000000  0.5717710000000  0.5446580000000 1.0
C      1  0.4378280000000  0.5009780000000  0.5687560000000 1.0
C      1  0.5621720000000  0.4990220000000  0.4312440000000 1.0
C      1  0.4717750000000  0.4684100000000  0.4930600000000 1.0
C      1  0.5282250000000  0.5315900000000  0.5069400000000 1.0
C      1  0.4951870000000  0.4569830000000  0.5041640000000 1.0
C      1  0.5048130000000  0.5430170000000  0.4958360000000 1.0
C      1  0.5048430000000  0.4670550000000  0.5300990000000 1.0
C      1  0.4951570000000  0.5329450000000  0.4699010000000 1.0
C      1  0.4187110000000  0.4841460000000  0.4870260000000 1.0
C      1  0.5812890000000  0.5158540000000  0.5129740000000 1.0
C      1  0.4085490000000  0.5325750000000  0.4792890000000 1.0
C      1  0.5914510000000  0.4674250000000  0.5207110000000 1.0
C      1  0.4749280000000  0.5320260000000  0.4161370000000 1.0
C      1  0.5250720000000  0.4679740000000  0.5838630000000 1.0
C      1  0.5013290000000  0.4590890000000  0.5874550000000 1.0
C      1  0.4986710000000  0.5409110000000  0.4125450000000 1.0
C      1  0.4509290000000  0.4469940000000  0.4870550000000 1.0
C      1  0.5490710000000  0.5530060000000  0.5129450000000 1.0
C      1  0.4956030000000  0.5022940000000  0.4711550000000 1.0
C      1  0.5043970000000  0.4977060000000  0.5288450000000 1.0
C      1  0.5529850000000  0.5545260000000  0.4836670000000 1.0
C      1  0.4470150000000  0.4454740000000  0.5163330000000 1.0
C      1  0.4196760000000  0.5537840000000  0.4657900000000 1.0
C      1  0.5803240000000  0.4462160000000  0.5342100000000 1.0
C      1  0.4337450000000  0.5707300000000  0.4818240000000 1.0
C      1  0.5662550000000  0.4292700000000  0.5181760000000 1.0
C      1  0.5763180000000  0.4906670000000  0.5282820000000 1.0
C      1  0.4236820000000  0.5093330000000  0.4717180000000 1.0
C      1  0.5759980000000  0.4366750000000  0.4914360000000 1.0
C      1  0.4240020000000  0.5633250000000  0.5085640000000 1.0
C      1  0.5156120000000  0.5509900000000  0.5644680000000 1.0
C      1  0.4843880000000  0.4490100000000  0.4355320000000 1.0
C      1  0.5676950000000  0.5289900000000  0.4377480000000 1.0
C      1  0.4323050000000  0.4710100000000  0.5622520000000 1.0
C      1  0.4675730000000  0.4710020000000  0.4378980000000 1.0
C      1  0.5324270000000  0.5289980000000  0.5621020000000 1.0
C      1  0.4535580000000  0.5190930000000  0.4846030000000 1.0
C      1  0.5464420000000  0.4809070000000  0.5153970000000 1.0
C      1  0.4695580000000  0.5570010000000  0.5625500000000 1.0
C      1  0.5304420000000  0.4429990000000  0.4374500000000 1.0
C      1  0.4618700000000  0.5671050000000  0.4764860000000 1.0
C      1  0.5381300000000  0.4328950000000  0.5235140000000 1.0
C      1  0.4500360000000  0.4549460000000  0.5762110000000 1.0
C      1  0.5499640000000  0.5450540000000  0.4237890000000 1.0
C      1  0.5358610000000  0.5180680000000  0.4596750000000 1.0
C      1  0.4641390000000  0.4819320000000  0.5403250000000 1.0
C      1  0.5266440000000  0.5728980000000  0.5207600000000 1.0
C      1  0.4733560000000  0.4271020000000  0.4792400000000 1.0
C      1  0.4302110000000  0.5232180000000  0.5524920000000 1.0
C      1  0.5697890000000  0.4767820000000  0.4475080000000 1.0
C      1  0.5689790000000  0.5368270000000  0.5283860000000 1.0
C      1  0.4310210000000  0.4631730000000  0.4716140000000 1.0
C      1  0.5588360000000  0.5247090000000  0.5529730000000 1.0
C      1  0.4411640000000  0.4752910000000  0.4470270000000 1.0
C      1  0.5166750000000  0.4244470000000  0.4551770000000 1.0
C      1  0.4833250000000  0.5755530000000  0.5448230000000 1.0
C      1  0.4437960000000  0.5495720000000  0.5521710000000 1.0
C      1  0.5562040000000  0.4504280000000  0.4478290000000 1.0
C      1  0.5626890000000  0.4964840000000  0.5544570000000 1.0
C      1  0.4373110000000  0.5035160000000  0.4455430000000 1.0
END
