TITL C-237572-13-1 24.3278995073435 125000 -869.608790999022 0 0 125 (C1) n - 1
REM
REM in /rds/project/t2_vol4/rds-t2-cs072/BORA/CARBON/from-Arr/AIRSS/Generating-Clusters/GAP-ML-2020/Higher-Symm/SD-CG/HFTN-CG
REM
REM
REM
REM
REM
REM ./C.cell (b20cbc046b6831c77cfcea5457e17084)
REM AIRSS Version 0.9.1 bugfix July 2018 build 013d7b7c2542+ Fri, 06 Jul 2018 19:26:36 +0100
REM compiler GCC version 9.3.0
REM options -cpp -mtune=generic -march=x86-64 -g -O0
REM seed -1160957421 -1361853758 1655871012 -1610035754 -1918810583 738422676 1069663713 -1827081891 -1728616962 -1639463601 1927581297 -1822180787 -1264245752 -1039215457 1628795879 11761077 -1294154396 224680661 -1279625775 2075361043 315080801 755054379 917739955 -1285971020 1337920381 794243118 -32647343 546806901 400161402 1948187364 -1021325986 -545406832 594509741
REM
CELL 1.54180   50.00000   50.00000   50.00000   90.00000   90.00000   90.00000
LATT -1
SFAC C  
C      1  0.4204980000000  0.5449410000000  0.4686780000000 1.0
C      1  0.4711520000000  0.5414770000000  0.5721390000000 1.0
C      1  0.5768550000000  0.5611550000000  0.5231040000000 1.0
C      1  0.5275960000000  0.5575670000000  0.4239930000000 1.0
C      1  0.5742880000000  0.5381800000000  0.4675980000000 1.0
C      1  0.5348470000000  0.5405310000000  0.5712670000000 1.0
C      1  0.4194600000000  0.5448480000000  0.5343280000000 1.0
C      1  0.4676930000000  0.5422320000000  0.4267870000000 1.0
C      1  0.4533640000000  0.5268490000000  0.5144940000000 1.0
C      1  0.5206110000000  0.5036350000000  0.5406500000000 1.0
C      1  0.5396080000000  0.5045520000000  0.4876240000000 1.0
C      1  0.4945620000000  0.5114870000000  0.4581970000000 1.0
C      1  0.5394140000000  0.5148810000000  0.5190290000000 1.0
C      1  0.4891990000000  0.5072670000000  0.5423430000000 1.0
C      1  0.4574560000000  0.5152340000000  0.4872530000000 1.0
C      1  0.5246100000000  0.5174150000000  0.4622490000000 1.0
C      1  0.3966280000000  0.5344080000000  0.5160900000000 1.0
C      1  0.5167030000000  0.5338420000000  0.5938280000000 1.0
C      1  0.5971050000000  0.5330480000000  0.4853260000000 1.0
C      1  0.4865880000000  0.5359920000000  0.4043690000000 1.0
C      1  0.5938010000000  0.5412980000000  0.5119540000000 1.0
C      1  0.4885900000000  0.5355800000000  0.5960330000000 1.0
C      1  0.3970940000000  0.5343890000000  0.4867280000000 1.0
C      1  0.5142880000000  0.5385150000000  0.4079730000000 1.0
C      1  0.5182260000000  0.4747210000000  0.4114530000000 1.0
C      1  0.4086990000000  0.4752350000000  0.4851370000000 1.0
C      1  0.4868870000000  0.4730550000000  0.5924120000000 1.0
C      1  0.5866620000000  0.4555450000000  0.5117850000000 1.0
C      1  0.4893720000000  0.4751430000000  0.4094460000000 1.0
C      1  0.5911450000000  0.4710950000000  0.4908910000000 1.0
C      1  0.5160380000000  0.4726970000000  0.5927070000000 1.0
C      1  0.4087860000000  0.4753490000000  0.5140750000000 1.0
C      1  0.4772560000000  0.4688900000000  0.5085820000000 1.0
C      1  0.5151220000000  0.4755250000000  0.5344890000000 1.0
C      1  0.5326730000000  0.4765950000000  0.4899180000000 1.0
C      1  0.4903650000000  0.4857930000000  0.4694630000000 1.0
C      1  0.5241710000000  0.4608710000000  0.5126330000000 1.0
C      1  0.4873230000000  0.4795580000000  0.5324770000000 1.0
C      1  0.4706910000000  0.4882550000000  0.4893960000000 1.0
C      1  0.5096570000000  0.4667800000000  0.4748160000000 1.0
C      1  0.5584170000000  0.4332080000000  0.5425400000000 1.0
C      1  0.5403380000000  0.4381830000000  0.4431260000000 1.0
C      1  0.4430210000000  0.4436200000000  0.4623200000000 1.0
C      1  0.4614920000000  0.4412390000000  0.5592860000000 1.0
C      1  0.4412970000000  0.4423250000000  0.5378860000000 1.0
C      1  0.4643470000000  0.4426750000000  0.4418780000000 1.0
C      1  0.5609150000000  0.4381830000000  0.4648230000000 1.0
C      1  0.5379410000000  0.4358730000000  0.5629170000000 1.0
C      1  0.5676890000000  0.5051800000000  0.5322520000000 1.0
C      1  0.5372240000000  0.5067540000000  0.4349840000000 1.0
C      1  0.4308540000000  0.5137790000000  0.4700820000000 1.0
C      1  0.4725420000000  0.5097430000000  0.5685790000000 1.0
C      1  0.4296990000000  0.5140750000000  0.5314570000000 1.0
C      1  0.4730990000000  0.5118800000000  0.4322000000000 1.0
C      1  0.5687080000000  0.5069980000000  0.4735110000000 1.0
C      1  0.5345020000000  0.5073190000000  0.5675280000000 1.0
C      1  0.4054240000000  0.5053030000000  0.5159620000000 1.0
C      1  0.5175590000000  0.5030860000000  0.5925710000000 1.0
C      1  0.5919500000000  0.5019850000000  0.4923200000000 1.0
C      1  0.4889300000000  0.5053610000000  0.4076570000000 1.0
C      1  0.5906970000000  0.5136850000000  0.5188920000000 1.0
C      1  0.4872070000000  0.5037230000000  0.5939150000000 1.0
C      1  0.4055400000000  0.5055200000000  0.4844910000000 1.0
C      1  0.5199630000000  0.5067710000000  0.4114840000000 1.0
C      1  0.5140000000000  0.4209060000000  0.5571940000000 1.0
C      1  0.5565280000000  0.4208820000000  0.4875540000000 1.0
C      1  0.4860640000000  0.4238750000000  0.4449030000000 1.0
C      1  0.4440750000000  0.4248150000000  0.5151930000000 1.0
C      1  0.4834340000000  0.4228590000000  0.5559630000000 1.0
C      1  0.4446600000000  0.4254600000000  0.4845500000000 1.0
C      1  0.5167890000000  0.4215830000000  0.4450200000000 1.0
C      1  0.5558190000000  0.4172510000000  0.5186900000000 1.0
C      1  0.4514840000000  0.4887010000000  0.5692590000000 1.0
C      1  0.5695940000000  0.4811810000000  0.5472350000000 1.0
C      1  0.5544210000000  0.4840450000000  0.4342060000000 1.0
C      1  0.4328220000000  0.4909800000000  0.4502860000000 1.0
C      1  0.5533290000000  0.4828630000000  0.5693130000000 1.0
C      1  0.4327480000000  0.4898590000000  0.5490100000000 1.0
C      1  0.4533640000000  0.4899850000000  0.4319910000000 1.0
C      1  0.5737530000000  0.4850010000000  0.4533910000000 1.0
C      1  0.5503750000000  0.5630240000000  0.5070220000000 1.0
C      1  0.5112760000000  0.5624060000000  0.4498280000000 1.0
C      1  0.4345320000000  0.5631270000000  0.4867160000000 1.0
C      1  0.4866470000000  0.5505260000000  0.5465350000000 1.0
C      1  0.4406960000000  0.5553060000000  0.5147800000000 1.0
C      1  0.4808960000000  0.5545330000000  0.4522200000000 1.0
C      1  0.5519070000000  0.5546870000000  0.4788890000000 1.0
C      1  0.5187990000000  0.5532020000000  0.5455030000000 1.0
C      1  0.4568310000000  0.5820150000000  0.4863270000000 1.0
C      1  0.4841620000000  0.5769040000000  0.5322390000000 1.0
C      1  0.5298760000000  0.5854450000000  0.5093100000000 1.0
C      1  0.5044070000000  0.5877770000000  0.4654390000000 1.0
C      1  0.5200000000000  0.5949940000000  0.4862130000000 1.0
C      1  0.5124000000000  0.5799730000000  0.5320620000000 1.0
C      1  0.4618810000000  0.5780830000000  0.5149250000000 1.0
C      1  0.4762130000000  0.5810440000000  0.4655230000000 1.0
C      1  0.5333550000000  0.3995280000000  0.5158370000000 1.0
C      1  0.5147610000000  0.4023240000000  0.4663800000000 1.0
C      1  0.4649650000000  0.4048920000000  0.4849860000000 1.0
C      1  0.4838060000000  0.4037030000000  0.5342780000000 1.0
C      1  0.4643330000000  0.4042970000000  0.5144680000000 1.0
C      1  0.4852120000000  0.4041440000000  0.4659000000000 1.0
C      1  0.5341830000000  0.4021420000000  0.4865800000000 1.0
C      1  0.5132370000000  0.4021120000000  0.5352440000000 1.0
C      1  0.4396490000000  0.5524470000000  0.4240800000000 1.0
C      1  0.4219040000000  0.5571170000000  0.5611940000000 1.0
C      1  0.5601720000000  0.5559850000000  0.5720450000000 1.0
C      1  0.5756180000000  0.5518790000000  0.4408690000000 1.0
C      1  0.5553090000000  0.5581750000000  0.4270700000000 1.0
C      1  0.5738610000000  0.5615320000000  0.5510540000000 1.0
C      1  0.4443500000000  0.5546650000000  0.5737720000000 1.0
C      1  0.4200940000000  0.5555980000000  0.4402570000000 1.0
C      1  0.4672310000000  0.4658030000000  0.4252140000000 1.0
C      1  0.4259250000000  0.4662630000000  0.5348670000000 1.0
C      1  0.5377190000000  0.4606260000000  0.5784750000000 1.0
C      1  0.5789880000000  0.4609590000000  0.4667460000000 1.0
C      1  0.5388540000000  0.4616950000000  0.4268250000000 1.0
C      1  0.5752180000000  0.4554790000000  0.5362570000000 1.0
C      1  0.4645990000000  0.4643030000000  0.5763810000000 1.0
C      1  0.4260600000000  0.4668460000000  0.4642180000000 1.0
C      1  0.5274000000000  0.5462130000000  0.4676950000000 1.0
C      1  0.4795780000000  0.5291010000000  0.5275030000000 1.0
C      1  0.4784780000000  0.5311630000000  0.4716490000000 1.0
C      1  0.5335840000000  0.5428440000000  0.5218650000000 1.0
C      1  0.4995020000000  0.4519980000000  0.4985370000000 1.0
END
