TITL C-234762-2865-8 123.728684913429 125000 -489.347915171744 0 0 70 (C1) n - 1
REM
REM in /rds/project/t2_vol4/rds-t2-cs072/BORA/CARBON/from-Arr/AIRSS/Generating-Clusters/GAP-ML-2020/Higher-Symm/SD-CG/HFTN-CG
REM
REM
REM
REM
REM
REM ./C.cell (b20cbc046b6831c77cfcea5457e17084)
REM AIRSS Version 0.9.1 bugfix July 2018 build 013d7b7c2542+ Fri, 06 Jul 2018 19:26:36 +0100
REM compiler GCC version 9.3.0
REM options -cpp -mtune=generic -march=x86-64 -g -O0
REM seed -176214102 1828968490 -891253484 -120828500 -472718409 1601884798 169580536 -2111338063 -855621984 1854272933 1741229882 2065962450 -1551449683 -1229512477 -1863788528 -1948957106 -2072083209 954508364 454840950 -1183320416 102674985 2014093451 1276736676 -888670414 1811495295 -2147174681 -1140445959 30249510 40060418 570143026 358928449 -1567922618 1858367918
REM
CELL 1.54180   50.00000   50.00000   50.00000   90.00000   90.00000   90.00000
LATT -1
SFAC C  
C      1  0.5164020000000  0.5075240000000  0.5111650000000 1.0
C      1  0.5044390000000  0.4799640000000  0.5059370000000 1.0
C      1  0.4869120000000  0.4937610000000  0.4861150000000 1.0
C      1  0.4841470000000  0.5673850000000  0.4796450000000 1.0
C      1  0.4841210000000  0.4825750000000  0.5605810000000 1.0
C      1  0.4864700000000  0.4513760000000  0.4538810000000 1.0
C      1  0.5632480000000  0.5460250000000  0.4896530000000 1.0
C      1  0.5625840000000  0.4858780000000  0.5471230000000 1.0
C      1  0.5613030000000  0.4685930000000  0.4658240000000 1.0
C      1  0.5301700000000  0.4509230000000  0.4319030000000 1.0
C      1  0.5275820000000  0.5740960000000  0.4863620000000 1.0
C      1  0.5275950000000  0.4672390000000  0.5756930000000 1.0
C      1  0.4647620000000  0.4437010000000  0.5356370000000 1.0
C      1  0.4641090000000  0.4949240000000  0.4331720000000 1.0
C      1  0.4640780000000  0.5696240000000  0.5363440000000 1.0
C      1  0.4443210000000  0.4573700000000  0.5237830000000 1.0
C      1  0.4433270000000  0.4928850000000  0.4502420000000 1.0
C      1  0.4441880000000  0.5542390000000  0.5261100000000 1.0
C      1  0.5549730000000  0.4561960000000  0.5129870000000 1.0
C      1  0.5542840000000  0.5129080000000  0.4551340000000 1.0
C      1  0.5551250000000  0.5331250000000  0.5337420000000 1.0
C      1  0.4570050000000  0.4322310000000  0.4849160000000 1.0
C      1  0.4556320000000  0.5391470000000  0.4567680000000 1.0
C      1  0.4554150000000  0.5202570000000  0.5591160000000 1.0
C      1  0.5483640000000  0.4691960000000  0.4404930000000 1.0
C      1  0.5482640000000  0.5660330000000  0.5030070000000 1.0
C      1  0.5487270000000  0.4632310000000  0.5589280000000 1.0
C      1  0.4397910000000  0.5498140000000  0.4984010000000 1.0
C      1  0.4411780000000  0.4841500000000  0.5328940000000 1.0
C      1  0.4380170000000  0.4664430000000  0.4596260000000 1.0
C      1  0.5038240000000  0.4767540000000  0.5350550000000 1.0
C      1  0.5004020000000  0.4782750000000  0.4642600000000 1.0
C      1  0.4971320000000  0.5174110000000  0.4946940000000 1.0
C      1  0.4357300000000  0.4458900000000  0.4990370000000 1.0
C      1  0.4387780000000  0.5171960000000  0.4652180000000 1.0
C      1  0.4386820000000  0.5298260000000  0.5388320000000 1.0
C      1  0.4199640000000  0.4601870000000  0.4804520000000 1.0
C      1  0.4316190000000  0.5224520000000  0.4933870000000 1.0
C      1  0.4319330000000  0.5090460000000  0.5199500000000 1.0
C      1  0.4813840000000  0.5319740000000  0.5612380000000 1.0
C      1  0.4822560000000  0.4277230000000  0.4973590000000 1.0
C      1  0.4810880000000  0.5367120000000  0.4429900000000 1.0
C      1  0.5398660000000  0.4471970000000  0.5362980000000 1.0
C      1  0.5380840000000  0.4960830000000  0.4377460000000 1.0
C      1  0.5388090000000  0.5572000000000  0.5283380000000 1.0
C      1  0.5503400000000  0.5396160000000  0.4643670000000 1.0
C      1  0.5470990000000  0.5096730000000  0.5477050000000 1.0
C      1  0.5462990000000  0.4560980000000  0.4860200000000 1.0
C      1  0.4588830000000  0.4454990000000  0.4586660000000 1.0
C      1  0.4572730000000  0.5585950000000  0.4781240000000 1.0
C      1  0.4568070000000  0.4912280000000  0.5562580000000 1.0
C      1  0.4871480000000  0.5565440000000  0.5455660000000 1.0
C      1  0.4875170000000  0.4326210000000  0.5260380000000 1.0
C      1  0.4865930000000  0.5104860000000  0.4313680000000 1.0
C      1  0.5088070000000  0.4917640000000  0.4358530000000 1.0
C      1  0.5095170000000  0.5649880000000  0.5289820000000 1.0
C      1  0.5100280000000  0.4459490000000  0.5398710000000 1.0
C      1  0.5169250000000  0.4605030000000  0.4843250000000 1.0
C      1  0.5269180000000  0.5581190000000  0.4623460000000 1.0
C      1  0.5184530000000  0.5034020000000  0.5426540000000 1.0
C      1  0.4998100000000  0.4372680000000  0.4778810000000 1.0
C      1  0.4984630000000  0.5557570000000  0.4567000000000 1.0
C      1  0.4981010000000  0.5097130000000  0.5630980000000 1.0
C      1  0.5025540000000  0.4589690000000  0.5683380000000 1.0
C      1  0.5043570000000  0.4600190000000  0.4310930000000 1.0
C      1  0.5029650000000  0.5746250000000  0.5008710000000 1.0
C      1  0.5690050000000  0.4950920000000  0.4729940000000 1.0
C      1  0.5704170000000  0.5271090000000  0.5096150000000 1.0
C      1  0.5701030000000  0.4794970000000  0.5200600000000 1.0
C      1  0.5742120000000  0.5005240000000  0.5006250000000 1.0
END
