TITL C-237544-152-6 -0.0868068201097759 125000 -79.1121462994006 0 0 13 (C2v) n - 1
REM
REM in /rds/project/t2_vol4/rds-t2-cs072/BORA/CARBON/from-Arr/AIRSS/Generating-Clusters/GAP-ML-2020/Higher-Symm/SD-CG/HFTN-CG
REM
REM
REM
REM
REM
REM ./C.cell (b20cbc046b6831c77cfcea5457e17084)
REM AIRSS Version 0.9.1 bugfix July 2018 build 013d7b7c2542+ Fri, 06 Jul 2018 19:26:36 +0100
REM compiler GCC version 9.3.0
REM options -cpp -mtune=generic -march=x86-64 -g -O0
REM seed -407085590 136930820 -1136626518 -1064520638 1637200093 1739322201 1875725376 1309826080 -796709865 -918224514 1175489884 -862690699 -128519627 1889109373 1023030789 1348516741 -1243177208 1176689256 1775379242 -1344529228 -1090793246 -1270855968 -54464007 825429704 -229869207 -683753276 -27498265 1451037670 426527017 726032063 -683388054 391051732 1678547034
REM
CELL 1.54180   50.00000   50.00000   50.00000   90.00000   90.00000   90.00000
LATT -1
SFAC C  
C      1  0.5020680000000  0.5420640000000  0.4702270000000 1.0
C      1  0.5005200000000  0.4648780000000  0.4666190000000 1.0
C      1  0.4963330000000  0.4619440000000  0.5311950000000 1.0
C      1  0.4978810000000  0.5391300000000  0.5348030000000 1.0
C      1  0.5065310000000  0.5622540000000  0.5285790000000 1.0
C      1  0.5040620000000  0.4391730000000  0.5228260000000 1.0
C      1  0.5072390000000  0.4414000000000  0.4738230000000 1.0
C      1  0.5097080000000  0.5644810000000  0.4795760000000 1.0
C      1  0.4963780000000  0.5168640000000  0.4756300000000 1.0
C      1  0.4958320000000  0.4896720000000  0.4743590000000 1.0
C      1  0.4925360000000  0.4873630000000  0.5251860000000 1.0
C      1  0.4930820000000  0.5145540000000  0.5264570000000 1.0
C      1  0.4922820000000  0.5021630000000  0.5002690000000 1.0
END
