TITL C-239796-2059-6 -0.0415169191726163 125000 -168.724264157153 0 0 26 (C1) n - 1
REM
REM in /rds/project/t2_vol4/rds-t2-cs072/BORA/CARBON/from-Arr/AIRSS/Generating-Clusters/GAP-ML-2020/Higher-Symm/SD-CG/HFTN-CG
REM
REM
REM
REM
REM
REM ./C.cell (b20cbc046b6831c77cfcea5457e17084)
REM AIRSS Version 0.9.1 bugfix July 2018 build 013d7b7c2542+ Fri, 06 Jul 2018 19:26:36 +0100
REM compiler GCC version 9.3.0
REM options -cpp -mtune=generic -march=x86-64 -g -O0
REM seed -1308591925 2029624224 1917227064 952358526 -909999080 1185777852 1830570304 1996604895 -2040071827 -1086961838 337468864 614855856 -715902116 -912256361 780804069 1048616816 -64871339 1167737213 -1022715010 1645696918 497105580 581365457 -427398592 -1917018312 -463213705 1958428740 -160257140 515910147 138932576 -597019058 603767095 -464200709 -1177453353
REM
CELL 1.54180   50.00000   50.00000   50.00000   90.00000   90.00000   90.00000
LATT -1
SFAC C  
C      1  0.4766610000000  0.4636260000000  0.4556560000000 1.0
C      1  0.4950690000000  0.4257870000000  0.5302650000000 1.0
C      1  0.4717350000000  0.5446370000000  0.5056970000000 1.0
C      1  0.4996570000000  0.5467070000000  0.5046170000000 1.0
C      1  0.5115000000000  0.5448100000000  0.4788260000000 1.0
C      1  0.5008150000000  0.4659440000000  0.4635510000000 1.0
C      1  0.4676640000000  0.4866090000000  0.4710190000000 1.0
C      1  0.4571970000000  0.4836300000000  0.4979650000000 1.0
C      1  0.5244030000000  0.5068450000000  0.4685440000000 1.0
C      1  0.5202640000000  0.4797250000000  0.4771070000000 1.0
C      1  0.5483790000000  0.4810740000000  0.5185950000000 1.0
C      1  0.5432230000000  0.5297710000000  0.5103870000000 1.0
C      1  0.5395970000000  0.4956670000000  0.5413630000000 1.0
C      1  0.5013180000000  0.4816040000000  0.5212780000000 1.0
C      1  0.5006470000000  0.5239090000000  0.4619450000000 1.0
C      1  0.4577530000000  0.5304770000000  0.4849860000000 1.0
C      1  0.4492560000000  0.5103130000000  0.5059350000000 1.0
C      1  0.4750040000000  0.4694960000000  0.5163470000000 1.0
C      1  0.5119080000000  0.5047090000000  0.5351460000000 1.0
C      1  0.5366070000000  0.5285060000000  0.4833980000000 1.0
C      1  0.4737370000000  0.5150420000000  0.4661330000000 1.0
C      1  0.5168450000000  0.5312230000000  0.5227910000000 1.0
C      1  0.5245610000000  0.4733300000000  0.5044630000000 1.0
C      1  0.5570950000000  0.5076640000000  0.5236250000000 1.0
C      1  0.4611750000000  0.5255420000000  0.5259920000000 1.0
C      1  0.4779330000000  0.4433520000000  0.5243670000000 1.0
END
