TITL C-235491-3944-7 -15.111316320341 125000 -246.142470727499 0 0 38 (C1) n - 1
REM
REM in /rds/project/t2_vol4/rds-t2-cs072/BORA/CARBON/from-Arr/AIRSS/Generating-Clusters/GAP-ML-2020/Higher-Symm/SD-CG/HFTN-CG
REM
REM
REM
REM
REM
REM ./C.cell (b20cbc046b6831c77cfcea5457e17084)
REM AIRSS Version 0.9.1 bugfix July 2018 build 013d7b7c2542+ Fri, 06 Jul 2018 19:26:36 +0100
REM compiler GCC version 9.3.0
REM options -cpp -mtune=generic -march=x86-64 -g -O0
REM seed 1853275509 1217742977 -1628168319 1576278378 1324789086 -744536732 1699268764 1261274356 -1620800660 -447673878 176114135 2023146762 -1483021750 -1004829310 -737382985 -685522751 32062211 -792872288 -246667692 -139612724 709769855 -1702512585 229314713 619948000 1218267275 -1855056415 -640230542 1055223617 -846585130 386665696 278400094 -668203228 1962407861
REM
CELL 1.54180   50.00000   50.00000   50.00000   90.00000   90.00000   90.00000
LATT -1
SFAC C  
C      1  0.4519500000000  0.5124460000000  0.5075690000000 1.0
C      1  0.4608000000000  0.4769130000000  0.4636370000000 1.0
C      1  0.5314950000000  0.5368430000000  0.4537990000000 1.0
C      1  0.5358320000000  0.4652410000000  0.4602470000000 1.0
C      1  0.5425430000000  0.5179390000000  0.5237130000000 1.0
C      1  0.4994720000000  0.4867620000000  0.5471790000000 1.0
C      1  0.5050270000000  0.4688480000000  0.5235940000000 1.0
C      1  0.4736260000000  0.5310950000000  0.4979800000000 1.0
C      1  0.4723370000000  0.4620540000000  0.4863230000000 1.0
C      1  0.5170870000000  0.5459960000000  0.4749160000000 1.0
C      1  0.5179590000000  0.4555870000000  0.4794050000000 1.0
C      1  0.5197160000000  0.5346920000000  0.5167210000000 1.0
C      1  0.5101720000000  0.4405330000000  0.5242160000000 1.0
C      1  0.4798600000000  0.5746900000000  0.5196900000000 1.0
C      1  0.4696880000000  0.4219150000000  0.5139630000000 1.0
C      1  0.4852540000000  0.5801280000000  0.4907730000000 1.0
C      1  0.5029570000000  0.4290400000000  0.4794460000000 1.0
C      1  0.5184720000000  0.5632430000000  0.5177480000000 1.0
C      1  0.5223000000000  0.4322780000000  0.4985460000000 1.0
C      1  0.5018170000000  0.5751910000000  0.5361020000000 1.0
C      1  0.4893090000000  0.4249800000000  0.5331410000000 1.0
C      1  0.4676370000000  0.5590200000000  0.4991980000000 1.0
C      1  0.4761170000000  0.4341890000000  0.4903130000000 1.0
C      1  0.5133180000000  0.5707250000000  0.4888450000000 1.0
C      1  0.5428710000000  0.5078170000000  0.5506980000000 1.0
C      1  0.4739850000000  0.4984730000000  0.5489610000000 1.0
C      1  0.4337570000000  0.5036570000000  0.4885680000000 1.0
C      1  0.4813120000000  0.4903100000000  0.4507420000000 1.0
C      1  0.5276960000000  0.5106590000000  0.4458250000000 1.0
C      1  0.5614060000000  0.5016820000000  0.4782150000000 1.0
C      1  0.4351300000000  0.4892630000000  0.4677590000000 1.0
C      1  0.5014990000000  0.5010970000000  0.4420540000000 1.0
C      1  0.5452670000000  0.4908370000000  0.4576060000000 1.0
C      1  0.5538080000000  0.5066960000000  0.5013800000000 1.0
C      1  0.5222400000000  0.4963810000000  0.5601340000000 1.0
C      1  0.4543930000000  0.5016160000000  0.5333980000000 1.0
C      1  0.5017040000000  0.5265260000000  0.4952280000000 1.0
C      1  0.4975670000000  0.4746380000000  0.4961820000000 1.0
END
