TITL C-239799-2071-9 39.4798133547251 125000 -335.843401062014 0 0 49 (Ci) n - 1
REM
REM in /rds/project/t2_vol4/rds-t2-cs072/BORA/CARBON/from-Arr/AIRSS/Generating-Clusters/GAP-ML-2020/Higher-Symm/SD-CG/HFTN-CG
REM
REM
REM
REM
REM
REM ./C.cell (b20cbc046b6831c77cfcea5457e17084)
REM AIRSS Version 0.9.1 bugfix July 2018 build 013d7b7c2542+ Fri, 06 Jul 2018 19:26:36 +0100
REM compiler GCC version 9.3.0
REM options -cpp -mtune=generic -march=x86-64 -g -O0
REM seed -1238826410 -1996045025 262224560 -1944378512 -918636060 1048441331 -997840620 1447163347 -1565484461 1599008427 1663232258 -1688191877 1156359559 -399940927 1609551174 -1036247446 -1496851454 468981298 1488082571 124380726 -1769673582 -1098110241 -2075573341 -1034950706 -372813598 -452023626 -486390870 -93090507 2083458660 1976306163 -1751305756 -1972354469 1602327269
REM
CELL 1.54180   50.00000   50.00000   50.00000   90.00000   90.00000   90.00000
LATT -1
SFAC C  
C      1  0.5240040000000  0.4525040000000  0.4649070000000 1.0
C      1  0.4770480000000  0.5484270000000  0.5365230000000 1.0
C      1  0.5177940000000  0.4762540000000  0.4508160000000 1.0
C      1  0.4832590000000  0.5246770000000  0.5506150000000 1.0
C      1  0.5561300000000  0.4982860000000  0.5240910000000 1.0
C      1  0.4449230000000  0.5026450000000  0.4773390000000 1.0
C      1  0.4505710000000  0.4924280000000  0.5263640000000 1.0
C      1  0.5504810000000  0.5085030000000  0.4750660000000 1.0
C      1  0.4396900000000  0.5103550000000  0.5068130000000 1.0
C      1  0.5613620000000  0.4905760000000  0.4946180000000 1.0
C      1  0.5476550000000  0.4487390000000  0.4825540000000 1.0
C      1  0.4533970000000  0.5521910000000  0.5188760000000 1.0
C      1  0.5372370000000  0.5310670000000  0.4869750000000 1.0
C      1  0.4638160000000  0.4698640000000  0.5144550000000 1.0
C      1  0.5409270000000  0.4802620000000  0.5410570000000 1.0
C      1  0.4601260000000  0.5206690000000  0.4603730000000 1.0
C      1  0.5255500000000  0.5569920000000  0.5287160000000 1.0
C      1  0.4755020000000  0.4439380000000  0.4727140000000 1.0
C      1  0.5321240000000  0.5354800000000  0.5469180000000 1.0
C      1  0.4689290000000  0.4654500000000  0.4545120000000 1.0
C      1  0.5117960000000  0.5185590000000  0.5562360000000 1.0
C      1  0.4892570000000  0.4823710000000  0.4451940000000 1.0
C      1  0.5204110000000  0.4911250000000  0.5595250000000 1.0
C      1  0.4806420000000  0.5098060000000  0.4419050000000 1.0
C      1  0.4998930000000  0.4752120000000  0.5718810000000 1.0
C      1  0.5011600000000  0.5257190000000  0.4295500000000 1.0
C      1  0.4316780000000  0.5355660000000  0.5160920000000 1.0
C      1  0.5693740000000  0.4653640000000  0.4853390000000 1.0
C      1  0.4550940000000  0.4551210000000  0.4918530000000 1.0
C      1  0.5459590000000  0.5458090000000  0.5095770000000 1.0
C      1  0.4470310000000  0.4752070000000  0.4711880000000 1.0
C      1  0.5540220000000  0.5257240000000  0.5302420000000 1.0
C      1  0.4678680000000  0.5454340000000  0.4715410000000 1.0
C      1  0.5331850000000  0.4554970000000  0.5298900000000 1.0
C      1  0.5386440000000  0.4371790000000  0.5081750000000 1.0
C      1  0.4624090000000  0.5637510000000  0.4932550000000 1.0
C      1  0.5094160000000  0.5237890000000  0.4897290000000 1.0
C      1  0.4916370000000  0.4771420000000  0.5117010000000 1.0
C      1  0.5357990000000  0.4990130000000  0.4509990000000 1.0
C      1  0.4652530000000  0.5019170000000  0.5504310000000 1.0
C      1  0.4990210000000  0.5650500000000  0.5252810000000 1.0
C      1  0.5020320000000  0.4358810000000  0.4761490000000 1.0
C      1  0.5050800000000  0.4538130000000  0.5215300000000 1.0
C      1  0.4959730000000  0.5471180000000  0.4799010000000 1.0
C      1  0.5256640000000  0.5194600000000  0.4339030000000 1.0
C      1  0.4753890000000  0.4814700000000  0.5675270000000 1.0
C      1  0.4907780000000  0.5691730000000  0.4976640000000 1.0
C      1  0.5102750000000  0.4317580000000  0.5037670000000 1.0
C      1  0.5005260000000  0.5004650000000  0.5007150000000 1.0
END
