TITL C-234705-249-3 0.201404267478783 125000 -493.849391382717 0 0 71 (C1) n - 1
REM
REM in /rds/project/t2_vol4/rds-t2-cs072/BORA/CARBON/from-Arr/AIRSS/Generating-Clusters/GAP-ML-2020/Higher-Symm/SD-CG/HFTN-CG
REM
REM
REM
REM
REM
REM ./C.cell (b20cbc046b6831c77cfcea5457e17084)
REM AIRSS Version 0.9.1 bugfix July 2018 build 013d7b7c2542+ Fri, 06 Jul 2018 19:26:36 +0100
REM compiler GCC version 9.3.0
REM options -cpp -mtune=generic -march=x86-64 -g -O0
REM seed -323183742 -692481815 -1612705971 1104910807 -1117945636 1257320587 -2112994103 792456183 2144595375 576298841 -1286010726 799377536 -370932783 708317634 -1308237109 1554566552 153738557 -1108671269 786066108 979261201 -1267758695 -804425810 1783332072 -1817436832 -2046086575 633993306 -1549232951 -2095012502 -1651939795 409106021 1943144050 -1466594504 -1130690401
REM
CELL 1.54180   50.00000   50.00000   50.00000   90.00000   90.00000   90.00000
LATT -1
SFAC C  
C      1  0.4590380000000  0.4472030000000  0.5385630000000 1.0
C      1  0.4764090000000  0.4579860000000  0.5590970000000 1.0
C      1  0.5048170000000  0.4502520000000  0.5597810000000 1.0
C      1  0.5588640000000  0.4457820000000  0.5449440000000 1.0
C      1  0.5623670000000  0.4511000000000  0.4894210000000 1.0
C      1  0.5537780000000  0.4598390000000  0.4630030000000 1.0
C      1  0.5257210000000  0.4517150000000  0.4557190000000 1.0
C      1  0.5052400000000  0.4606710000000  0.4355150000000 1.0
C      1  0.4779140000000  0.4527120000000  0.4422670000000 1.0
C      1  0.4407780000000  0.4540190000000  0.4924660000000 1.0
C      1  0.4397800000000  0.4597180000000  0.5210840000000 1.0
C      1  0.4206880000000  0.5229290000000  0.4952660000000 1.0
C      1  0.4346850000000  0.5274000000000  0.5459630000000 1.0
C      1  0.4542860000000  0.5265320000000  0.5671170000000 1.0
C      1  0.5102400000000  0.5166910000000  0.5779730000000 1.0
C      1  0.5372130000000  0.5134040000000  0.5668910000000 1.0
C      1  0.5716580000000  0.5143430000000  0.5214780000000 1.0
C      1  0.5754500000000  0.5187690000000  0.4928670000000 1.0
C      1  0.5507200000000  0.5287280000000  0.4424000000000 1.0
C      1  0.5257970000000  0.5294760000000  0.4281670000000 1.0
C      1  0.4694190000000  0.5206610000000  0.4338870000000 1.0
C      1  0.4472150000000  0.5168300000000  0.4526260000000 1.0
C      1  0.5213990000000  0.4219910000000  0.4620070000000 1.0
C      1  0.4957630000000  0.4132890000000  0.4588730000000 1.0
C      1  0.4740320000000  0.4300760000000  0.4596840000000 1.0
C      1  0.4551820000000  0.4307700000000  0.4831410000000 1.0
C      1  0.4582430000000  0.4122830000000  0.5033670000000 1.0
C      1  0.4688640000000  0.4223160000000  0.5271090000000 1.0
C      1  0.4943470000000  0.4146240000000  0.5329470000000 1.0
C      1  0.5147470000000  0.4295150000000  0.5423680000000 1.0
C      1  0.5420470000000  0.4305820000000  0.5307370000000 1.0
C      1  0.5481630000000  0.4288230000000  0.5015390000000 1.0
C      1  0.5363090000000  0.4126060000000  0.4828590000000 1.0
C      1  0.5800600000000  0.4933310000000  0.4812480000000 1.0
C      1  0.5619190000000  0.5023060000000  0.4370660000000 1.0
C      1  0.5236440000000  0.5031790000000  0.4154360000000 1.0
C      1  0.4763690000000  0.4952860000000  0.4238000000000 1.0
C      1  0.4412920000000  0.4885270000000  0.4541870000000 1.0
C      1  0.4210150000000  0.4957120000000  0.4978780000000 1.0
C      1  0.4230420000000  0.5007010000000  0.5460010000000 1.0
C      1  0.4524610000000  0.4993300000000  0.5770920000000 1.0
C      1  0.5000840000000  0.4905470000000  0.5824330000000 1.0
C      1  0.5430480000000  0.4852800000000  0.5657820000000 1.0
C      1  0.5742760000000  0.4863710000000  0.5267510000000 1.0
C      1  0.5617280000000  0.4728130000000  0.5483040000000 1.0
C      1  0.5772150000000  0.4729250000000  0.5014440000000 1.0
C      1  0.5677520000000  0.4841900000000  0.4575690000000 1.0
C      1  0.5489530000000  0.4908780000000  0.4149020000000 1.0
C      1  0.5028450000000  0.4853990000000  0.4213060000000 1.0
C      1  0.4606160000000  0.4752260000000  0.4373270000000 1.0
C      1  0.4312600000000  0.4774530000000  0.4781960000000 1.0
C      1  0.4248170000000  0.4841430000000  0.5236440000000 1.0
C      1  0.4271240000000  0.4884230000000  0.5712370000000 1.0
C      1  0.4741910000000  0.4815930000000  0.5758470000000 1.0
C      1  0.5193160000000  0.4712500000000  0.5732490000000 1.0
C      1  0.5479090000000  0.5328550000000  0.5221380000000 1.0
C      1  0.5510020000000  0.5365800000000  0.4916960000000 1.0
C      1  0.5382240000000  0.5406350000000  0.4671150000000 1.0
C      1  0.5115040000000  0.5415540000000  0.4518860000000 1.0
C      1  0.4835720000000  0.5386360000000  0.4537210000000 1.0
C      1  0.4592080000000  0.5359980000000  0.4721250000000 1.0
C      1  0.4476620000000  0.5368750000000  0.4987100000000 1.0
C      1  0.4536470000000  0.5399130000000  0.5268660000000 1.0
C      1  0.4752310000000  0.5388860000000  0.5490230000000 1.0
C      1  0.5023520000000  0.5352200000000  0.5552600000000 1.0
C      1  0.5311050000000  0.5325240000000  0.5443000000000 1.0
C      1  0.5058850000000  0.4885650000000  0.4902780000000 1.0
C      1  0.4996280000000  0.5376830000000  0.5036600000000 1.0
C      1  0.5110410000000  0.4634890000000  0.4831590000000 1.0
C      1  0.5003880000000  0.5629980000000  0.5043490000000 1.0
C      1  0.4988350000000  0.5104730000000  0.5036430000000 1.0
END
