TITL C-239795-2269-3 -0.170391849260881 125000 -515.778975212897 0 0 78 (Cs) n - 1
REM
REM in /rds/project/t2_vol4/rds-t2-cs072/BORA/CARBON/from-Arr/AIRSS/Generating-Clusters/GAP-ML-2020/Higher-Symm/SD-CG/HFTN-CG
REM
REM
REM
REM
REM
REM ./C.cell (b20cbc046b6831c77cfcea5457e17084)
REM AIRSS Version 0.9.1 bugfix July 2018 build 013d7b7c2542+ Fri, 06 Jul 2018 19:26:36 +0100
REM compiler GCC version 9.3.0
REM options -cpp -mtune=generic -march=x86-64 -g -O0
REM seed 2017013148 1356559126 -1783067072 1052938518 472777957 428837141 1965290005 1926627941 1756131313 -891271517 1163012872 1191789777 1530106671 -361654293 -563711734 38889390 -1079857650 2067689445 -1537887328 -889346138 -859203516 -896398151 1159484237 843486836 816112165 1786644417 -2098779668 -2136283402 -108169979 83389822 1876273899 1966805388 -1489169290
REM
CELL 1.54180   50.00000   50.00000   50.00000   90.00000   90.00000   90.00000
LATT -1
SFAC C  
C      1  0.4570590000000  0.5576040000000  0.4669270000000 1.0
C      1  0.5461870000000  0.4422360000000  0.4673760000000 1.0
C      1  0.4569130000000  0.5571120000000  0.5335040000000 1.0
C      1  0.5460450000000  0.4417610000000  0.5317420000000 1.0
C      1  0.5498330000000  0.5556090000000  0.4673730000000 1.0
C      1  0.4531250000000  0.4452790000000  0.4657690000000 1.0
C      1  0.5496880000000  0.5551210000000  0.5334350000000 1.0
C      1  0.4529780000000  0.4447830000000  0.5329850000000 1.0
C      1  0.5306860000000  0.5144140000000  0.4848660000000 1.0
C      1  0.4670830000000  0.4858150000000  0.4849020000000 1.0
C      1  0.5306190000000  0.5141900000000  0.5152520000000 1.0
C      1  0.4670180000000  0.4855960000000  0.5145140000000 1.0
C      1  0.4671790000000  0.5166650000000  0.4852940000000 1.0
C      1  0.5307840000000  0.4835010000000  0.4846340000000 1.0
C      1  0.4671150000000  0.5164490000000  0.5145790000000 1.0
C      1  0.5307170000000  0.4832760000000  0.5150270000000 1.0
C      1  0.5135190000000  0.5257120000000  0.4647590000000 1.0
C      1  0.4859430000000  0.4845160000000  0.4615390000000 1.0
C      1  0.5133640000000  0.5251900000000  0.5354480000000 1.0
C      1  0.4857760000000  0.4839520000000  0.5379380000000 1.0
C      1  0.4873020000000  0.5171030000000  0.4613510000000 1.0
C      1  0.5115730000000  0.4740830000000  0.4641860000000 1.0
C      1  0.4871330000000  0.5165320000000  0.5386140000000 1.0
C      1  0.5114170000000  0.4735580000000  0.5352500000000 1.0
C      1  0.5471990000000  0.5123610000000  0.5671540000000 1.0
C      1  0.4484040000000  0.4868140000000  0.5691170000000 1.0
C      1  0.5474930000000  0.5133520000000  0.4330150000000 1.0
C      1  0.4487080000000  0.4878400000000  0.4302420000000 1.0
C      1  0.4494940000000  0.5159310000000  0.5697420000000 1.0
C      1  0.5461050000000  0.4834140000000  0.5672400000000 1.0
C      1  0.4498010000000  0.5169630000000  0.4300520000000 1.0
C      1  0.5464000000000  0.4844100000000  0.4324980000000 1.0
C      1  0.5287280000000  0.5332420000000  0.4398540000000 1.0
C      1  0.4703650000000  0.4715100000000  0.4369430000000 1.0
C      1  0.5284630000000  0.5323500000000  0.5605280000000 1.0
C      1  0.4700900000000  0.4705840000000  0.5622710000000 1.0
C      1  0.4728170000000  0.5314330000000  0.4367360000000 1.0
C      1  0.5260870000000  0.4660160000000  0.4391070000000 1.0
C      1  0.4725390000000  0.5304970000000  0.5633740000000 1.0
C      1  0.5258210000000  0.4651210000000  0.5602700000000 1.0
C      1  0.4318410000000  0.5166830000000  0.5462450000000 1.0
C      1  0.5666510000000  0.4829490000000  0.5458350000000 1.0
C      1  0.4320440000000  0.5173690000000  0.4534800000000 1.0
C      1  0.5668530000000  0.4836270000000  0.4539830000000 1.0
C      1  0.5680930000000  0.5115580000000  0.5467560000000 1.0
C      1  0.4300300000000  0.4877210000000  0.5463120000000 1.0
C      1  0.5682980000000  0.5122470000000  0.4534910000000 1.0
C      1  0.4302350000000  0.4884110000000  0.4529780000000 1.0
C      1  0.4638870000000  0.5570040000000  0.5597980000000 1.0
C      1  0.5381340000000  0.4397940000000  0.5577090000000 1.0
C      1  0.4641490000000  0.5578840000000  0.4406650000000 1.0
C      1  0.5383890000000  0.4406540000000  0.4413470000000 1.0
C      1  0.5413560000000  0.5569200000000  0.5591020000000 1.0
C      1  0.4611810000000  0.4446380000000  0.5586030000000 1.0
C      1  0.5416140000000  0.5577880000000  0.4417000000000 1.0
C      1  0.4614410000000  0.4455130000000  0.4401880000000 1.0
C      1  0.5328160000000  0.5681660000000  0.4861460000000 1.0
C      1  0.4709420000000  0.4347560000000  0.4848690000000 1.0
C      1  0.5327530000000  0.5679540000000  0.5147760000000 1.0
C      1  0.4708780000000  0.4345420000000  0.5138100000000 1.0
C      1  0.4756620000000  0.5675000000000  0.4859540000000 1.0
C      1  0.5279030000000  0.4296670000000  0.4852340000000 1.0
C      1  0.4755990000000  0.5672870000000  0.5147070000000 1.0
C      1  0.5278400000000  0.4294580000000  0.5136200000000 1.0
C      1  0.5563530000000  0.4683590000000  0.5239690000000 1.0
C      1  0.4439040000000  0.5318190000000  0.5250720000000 1.0
C      1  0.5564600000000  0.4687160000000  0.4755860000000 1.0
C      1  0.4440140000000  0.5321890000000  0.4749270000000 1.0
C      1  0.4391930000000  0.4715320000000  0.5237300000000 1.0
C      1  0.5605170000000  0.5278370000000  0.5244330000000 1.0
C      1  0.4392990000000  0.4718900000000  0.4753570000000 1.0
C      1  0.5606230000000  0.5281950000000  0.4760190000000 1.0
C      1  0.5040990000000  0.5750560000000  0.4856430000000 1.0
C      1  0.4986090000000  0.4253260000000  0.4845180000000 1.0
C      1  0.5040340000000  0.5748380000000  0.5152550000000 1.0
C      1  0.4985440000000  0.4251070000000  0.5141430000000 1.0
C      1  0.4254970000000  0.4737640000000  0.4995290000000 1.0
C      1  0.5727000000000  0.5233820000000  0.5002180000000 1.0
END
