TITL C-237569-9978-7 -53.3373349995072 125000 -1056.67026673568 0 0 156 (D4) n - 1
REM
REM in /rds/project/t2_vol4/rds-t2-cs072/BORA/CARBON/from-Arr/AIRSS/Generating-Clusters/GAP-ML-2020/Higher-Symm/SD-CG/HFTN-CG
REM
REM
REM
REM
REM
REM ./C.cell (b20cbc046b6831c77cfcea5457e17084)
REM AIRSS Version 0.9.1 bugfix July 2018 build 013d7b7c2542+ Fri, 06 Jul 2018 19:26:36 +0100
REM compiler GCC version 9.3.0
REM options -cpp -mtune=generic -march=x86-64 -g -O0
REM seed 1266218029 1767438674 1772952974 -1617135986 2003014296 -538633318 1941410061 878107646 -166502644 1245052399 -833831865 -1067992216 -1773035516 -478871320 1123131653 -158305910 1258021727 1975679960 -1091140770 119859518 -1068817516 -233138462 -4518325 -2096005599 1165820644 -37288212 -1231159347 639648412 1834169324 -879770144 818858710 -1614525903 2004343234
REM
CELL 1.54180   50.00000   50.00000   50.00000   90.00000   90.00000   90.00000
LATT -1
SFAC C  
C      1  0.5187500000000  0.5477840000000  0.4085750000000 1.0
C      1  0.5478710000000  0.4812890000000  0.4086120000000 1.0
C      1  0.4813750000000  0.4521680000000  0.4085750000000 1.0
C      1  0.4522550000000  0.5186630000000  0.4085380000000 1.0
C      1  0.5184890000000  0.4521630000000  0.5927130000000 1.0
C      1  0.5477980000000  0.5185760000000  0.5927160000000 1.0
C      1  0.4813860000000  0.5478850000000  0.5926630000000 1.0
C      1  0.4520760000000  0.4814720000000  0.5926600000000 1.0
C      1  0.5168710000000  0.4864740000000  0.4865060000000 1.0
C      1  0.4864880000000  0.4831350000000  0.4864860000000 1.0
C      1  0.4831480000000  0.5135190000000  0.4864760000000 1.0
C      1  0.5135320000000  0.5168580000000  0.4864960000000 1.0
C      1  0.5168900000000  0.5134780000000  0.5147800000000 1.0
C      1  0.4865160000000  0.5169040000000  0.5147580000000 1.0
C      1  0.4830900000000  0.4865290000000  0.5147640000000 1.0
C      1  0.5134650000000  0.4831040000000  0.5147850000000 1.0
C      1  0.5013980000000  0.5567720000000  0.5305310000000 1.0
C      1  0.5567440000000  0.4985890000000  0.5305840000000 1.0
C      1  0.4985610000000  0.4432430000000  0.5305580000000 1.0
C      1  0.4432150000000  0.5014260000000  0.5305060000000 1.0
C      1  0.5012780000000  0.4432240000000  0.4707340000000 1.0
C      1  0.5567890000000  0.5012500000000  0.4707570000000 1.0
C      1  0.4987630000000  0.5567600000000  0.4707030000000 1.0
C      1  0.4432520000000  0.4987340000000  0.4706800000000 1.0
C      1  0.5166880000000  0.5967480000000  0.5467310000000 1.0
C      1  0.5967040000000  0.4832930000000  0.5468150000000 1.0
C      1  0.4832490000000  0.4032760000000  0.5467590000000 1.0
C      1  0.4032330000000  0.5167310000000  0.5466750000000 1.0
C      1  0.5164770000000  0.4032050000000  0.4545540000000 1.0
C      1  0.5968140000000  0.5164330000000  0.4545800000000 1.0
C      1  0.4835860000000  0.5967710000000  0.4544820000000 1.0
C      1  0.4032490000000  0.4835430000000  0.4544560000000 1.0
C      1  0.4996290000000  0.4339240000000  0.5789920000000 1.0
C      1  0.4338510000000  0.5003380000000  0.5789300000000 1.0
C      1  0.5002640000000  0.5661160000000  0.5789580000000 1.0
C      1  0.5660430000000  0.4997030000000  0.5790200000000 1.0
C      1  0.4999230000000  0.5660760000000  0.4222710000000 1.0
C      1  0.4339570000000  0.4998500000000  0.4222430000000 1.0
C      1  0.5001840000000  0.4338830000000  0.4223060000000 1.0
C      1  0.5661500000000  0.5001100000000  0.4223330000000 1.0
C      1  0.4245350000000  0.4412620000000  0.4646540000000 1.0
C      1  0.4412950000000  0.5754810000000  0.4646300000000 1.0
C      1  0.5755140000000  0.5587200000000  0.4647260000000 1.0
C      1  0.5587540000000  0.4245010000000  0.4647500000000 1.0
C      1  0.4246520000000  0.5589520000000  0.5365060000000 1.0
C      1  0.4410330000000  0.4246860000000  0.5365520000000 1.0
C      1  0.5752990000000  0.4410670000000  0.5366400000000 1.0
C      1  0.5589180000000  0.5753330000000  0.5365940000000 1.0
C      1  0.5798890000000  0.4935590000000  0.4515840000000 1.0
C      1  0.4936050000000  0.4201320000000  0.4515440000000 1.0
C      1  0.4201780000000  0.5064160000000  0.4514720000000 1.0
C      1  0.5064620000000  0.5798430000000  0.4515110000000 1.0
C      1  0.5798400000000  0.5062150000000  0.5497880000000 1.0
C      1  0.4937640000000  0.5798860000000  0.5497100000000 1.0
C      1  0.4200930000000  0.4938110000000  0.5496820000000 1.0
C      1  0.5061690000000  0.4201400000000  0.5497600000000 1.0
C      1  0.5293490000000  0.4178670000000  0.5067800000000 1.0
C      1  0.4178620000000  0.4706480000000  0.5066900000000 1.0
C      1  0.4706420000000  0.5821360000000  0.5066980000000 1.0
C      1  0.5821300000000  0.5293550000000  0.5067870000000 1.0
C      1  0.5295900000000  0.5820490000000  0.4945230000000 1.0
C      1  0.4179530000000  0.5295850000000  0.4944610000000 1.0
C      1  0.4704180000000  0.4179480000000  0.4945250000000 1.0
C      1  0.5820550000000  0.4704120000000  0.4945880000000 1.0
C      1  0.4871470000000  0.4832370000000  0.5621050000000 1.0
C      1  0.4831790000000  0.5128270000000  0.5620940000000 1.0
C      1  0.5127690000000  0.5167950000000  0.5621130000000 1.0
C      1  0.5167370000000  0.4872050000000  0.5621240000000 1.0
C      1  0.4872790000000  0.5167990000000  0.4391410000000 1.0
C      1  0.4832270000000  0.4872210000000  0.4391460000000 1.0
C      1  0.5128050000000  0.4831690000000  0.4391670000000 1.0
C      1  0.5168570000000  0.5127470000000  0.4391620000000 1.0
C      1  0.5538310000000  0.4273470000000  0.5743920000000 1.0
C      1  0.4272780000000  0.4461380000000  0.5743010000000 1.0
C      1  0.4460680000000  0.5726910000000  0.5742810000000 1.0
C      1  0.5726220000000  0.5539010000000  0.5743720000000 1.0
C      1  0.5541370000000  0.5725000000000  0.4269450000000 1.0
C      1  0.4275310000000  0.5540680000000  0.4268630000000 1.0
C      1  0.4459630000000  0.4274620000000  0.4269090000000 1.0
C      1  0.5725690000000  0.4458940000000  0.4269900000000 1.0
C      1  0.4617140000000  0.5233630000000  0.5443410000000 1.0
C      1  0.5233210000000  0.5382680000000  0.5443800000000 1.0
C      1  0.5382270000000  0.4766600000000  0.5444060000000 1.0
C      1  0.4766190000000  0.4617550000000  0.5443670000000 1.0
C      1  0.4617070000000  0.4767460000000  0.4568690000000 1.0
C      1  0.5232730000000  0.4616660000000  0.4569150000000 1.0
C      1  0.5383520000000  0.5232310000000  0.4569100000000 1.0
C      1  0.4767870000000  0.5383110000000  0.4568640000000 1.0
C      1  0.5538600000000  0.4271980000000  0.4929760000000 1.0
C      1  0.4272060000000  0.4461430000000  0.4928840000000 1.0
C      1  0.4461500000000  0.5727980000000  0.4928640000000 1.0
C      1  0.5728050000000  0.5538530000000  0.4929560000000 1.0
C      1  0.5540560000000  0.5726490000000  0.5083610000000 1.0
C      1  0.4273480000000  0.5540630000000  0.5082800000000 1.0
C      1  0.4459340000000  0.4273550000000  0.5083250000000 1.0
C      1  0.5726410000000  0.4459410000000  0.5084070000000 1.0
C      1  0.4606320000000  0.5227960000000  0.4727380000000 1.0
C      1  0.5228220000000  0.5393790000000  0.4727770000000 1.0
C      1  0.5394050000000  0.4771900000000  0.4728040000000 1.0
C      1  0.4772160000000  0.4606060000000  0.4727660000000 1.0
C      1  0.4605300000000  0.4773160000000  0.5284710000000 1.0
C      1  0.5226720000000  0.4605560000000  0.5285180000000 1.0
C      1  0.5394320000000  0.5226980000000  0.5285130000000 1.0
C      1  0.4772900000000  0.5394580000000  0.5284660000000 1.0
C      1  0.5836630000000  0.4613210000000  0.5560080000000 1.0
C      1  0.4612690000000  0.4163140000000  0.5559360000000 1.0
C      1  0.4162620000000  0.5387080000000  0.5558740000000 1.0
C      1  0.5386560000000  0.5837150000000  0.5559460000000 1.0
C      1  0.5838470000000  0.5384420000000  0.4453690000000 1.0
C      1  0.4615820000000  0.5837950000000  0.4452740000000 1.0
C      1  0.4162280000000  0.4615300000000  0.4452750000000 1.0
C      1  0.5384940000000  0.4161760000000  0.4453700000000 1.0
C      1  0.4429990000000  0.5780970000000  0.5477210000000 1.0
C      1  0.5780530000000  0.5569810000000  0.5478190000000 1.0
C      1  0.5569370000000  0.4219270000000  0.5478390000000 1.0
C      1  0.4218830000000  0.4430430000000  0.5477420000000 1.0
C      1  0.4428420000000  0.4220650000000  0.4534640000000 1.0
C      1  0.5779550000000  0.4427980000000  0.4535510000000 1.0
C      1  0.5572220000000  0.5779110000000  0.4535020000000 1.0
C      1  0.4221090000000  0.5571780000000  0.4534150000000 1.0
C      1  0.5102610000000  0.5189210000000  0.4097600000000 1.0
C      1  0.5190070000000  0.4897770000000  0.4097740000000 1.0
C      1  0.4898630000000  0.4810320000000  0.4097560000000 1.0
C      1  0.4811170000000  0.5101760000000  0.4097430000000 1.0
C      1  0.5100840000000  0.4810500000000  0.5915170000000 1.0
C      1  0.5189120000000  0.5101690000000  0.5915150000000 1.0
C      1  0.4897930000000  0.5189970000000  0.5914930000000 1.0
C      1  0.4809650000000  0.4898780000000  0.5914940000000 1.0
C      1  0.5475480000000  0.5503970000000  0.4134600000000 1.0
C      1  0.5504790000000  0.4524890000000  0.4134870000000 1.0
C      1  0.4525710000000  0.4495570000000  0.4134210000000 1.0
C      1  0.4496390000000  0.5474660000000  0.4133940000000 1.0
C      1  0.5472860000000  0.4494680000000  0.5878680000000 1.0
C      1  0.5504950000000  0.5473680000000  0.5878450000000 1.0
C      1  0.4525950000000  0.5505770000000  0.5877770000000 1.0
C      1  0.4493860000000  0.4526770000000  0.5878000000000 1.0
C      1  0.5860200000000  0.4672100000000  0.4664170000000 1.0
C      1  0.4672430000000  0.4139940000000  0.4663500000000 1.0
C      1  0.4140260000000  0.5327720000000  0.4662830000000 1.0
C      1  0.5328040000000  0.5859880000000  0.4663500000000 1.0
C      1  0.5860660000000  0.5325460000000  0.5349640000000 1.0
C      1  0.4674400000000  0.5860980000000  0.5348690000000 1.0
C      1  0.4138870000000  0.4674720000000  0.5348630000000 1.0
C      1  0.5325140000000  0.4139190000000  0.5349580000000 1.0
C      1  0.4331660000000  0.4708020000000  0.4217370000000 1.0
C      1  0.4708760000000  0.5668670000000  0.4217380000000 1.0
C      1  0.5669420000000  0.5291570000000  0.4218140000000 1.0
C      1  0.5292320000000  0.4330920000000  0.4218130000000 1.0
C      1  0.4331410000000  0.5293880000000  0.5794340000000 1.0
C      1  0.4705790000000  0.4332150000000  0.5794850000000 1.0
C      1  0.5667510000000  0.4706530000000  0.5795410000000 1.0
C      1  0.5293130000000  0.5668250000000  0.5794900000000 1.0
C      1  0.4291350000000  0.5001000000000  0.5005830000000 1.0
C      1  0.5001000000000  0.5708650000000  0.5006130000000 1.0
C      1  0.5708650000000  0.4999000000000  0.5006800000000 1.0
C      1  0.4999000000000  0.4291350000000  0.5006500000000 1.0
END
