TITL C-237554-9969-1 -47.9883617729088 125000 -235.816841150299 0 0 37 (C1) n - 1
REM
REM in /rds/project/t2_vol4/rds-t2-cs072/BORA/CARBON/from-Arr/AIRSS/Generating-Clusters/GAP-ML-2020/Higher-Symm/SD-CG/HFTN-CG
REM
REM
REM
REM
REM
REM ./C.cell (b20cbc046b6831c77cfcea5457e17084)
REM AIRSS Version 0.9.1 bugfix July 2018 build 013d7b7c2542+ Fri, 06 Jul 2018 19:26:36 +0100
REM compiler GCC version 9.3.0
REM options -cpp -mtune=generic -march=x86-64 -g -O0
REM seed 1932705016 -1869745104 -1913473723 -1884513414 1127461078 -1817259439 840540511 -1860182768 1182148905 1375500912 -1040924494 1238464719 -1660789997 509414036 -860081262 1904005947 -1656476138 1307004592 -196206476 352238484 -1391903269 368669781 -872896533 -197158630 1542462074 1391258777 -1798223525 -286831668 1649388314 -1154941838 -1848252033 1937221458 869999073
REM
CELL 1.54180   50.00000   50.00000   50.00000   90.00000   90.00000   90.00000
LATT -1
SFAC C  
C      1  0.5053350000000  0.5631740000000  0.4845860000000 1.0
C      1  0.5064960000000  0.4366410000000  0.5129710000000 1.0
C      1  0.5037210000000  0.5628370000000  0.5125900000000 1.0
C      1  0.5030650000000  0.4386510000000  0.4853680000000 1.0
C      1  0.5163560000000  0.5496450000000  0.5338390000000 1.0
C      1  0.5099320000000  0.4633290000000  0.4675700000000 1.0
C      1  0.5163150000000  0.5365640000000  0.4700190000000 1.0
C      1  0.5162800000000  0.4607560000000  0.5291740000000 1.0
C      1  0.4726950000000  0.5422120000000  0.4571810000000 1.0
C      1  0.4723550000000  0.4571320000000  0.5383920000000 1.0
C      1  0.4712710000000  0.5320200000000  0.5276800000000 1.0
C      1  0.4646520000000  0.4577030000000  0.4668770000000 1.0
C      1  0.4670850000000  0.4823140000000  0.4788730000000 1.0
C      1  0.4594620000000  0.5073020000000  0.5192470000000 1.0
C      1  0.4735940000000  0.4839060000000  0.5294660000000 1.0
C      1  0.4705920000000  0.5216350000000  0.4748120000000 1.0
C      1  0.4754750000000  0.5543390000000  0.5097520000000 1.0
C      1  0.4741300000000  0.4389840000000  0.4880740000000 1.0
C      1  0.4758320000000  0.5590800000000  0.4812770000000 1.0
C      1  0.4769200000000  0.4380870000000  0.5158260000000 1.0
C      1  0.4969020000000  0.4852910000000  0.4852520000000 1.0
C      1  0.5074310000000  0.5121990000000  0.5158760000000 1.0
C      1  0.5007560000000  0.4836470000000  0.5153560000000 1.0
C      1  0.4994290000000  0.5157510000000  0.4863420000000 1.0
C      1  0.5439750000000  0.5356990000000  0.4746280000000 1.0
C      1  0.5443260000000  0.4636800000000  0.5269390000000 1.0
C      1  0.5432310000000  0.5461400000000  0.5350090000000 1.0
C      1  0.5379530000000  0.4614390000000  0.4654420000000 1.0
C      1  0.4975410000000  0.4563070000000  0.5523280000000 1.0
C      1  0.4989990000000  0.5379290000000  0.4460690000000 1.0
C      1  0.4868810000000  0.4592200000000  0.4483610000000 1.0
C      1  0.4983270000000  0.5278770000000  0.5379950000000 1.0
C      1  0.5612250000000  0.5376910000000  0.4926870000000 1.0
C      1  0.5603270000000  0.4599860000000  0.5075690000000 1.0
C      1  0.5626620000000  0.5409760000000  0.5196310000000 1.0
C      1  0.5579120000000  0.4578450000000  0.4806620000000 1.0
C      1  0.4546530000000  0.5050180000000  0.4903180000000 1.0
END
