TITL C-233926-2126-8 -316.840545365055 27000 -165.885816327321 0 0 25 (Cs) n - 1
REM
REM in /rds/project/t2_vol4/rds-t2-cs072/BORA/CARBON/from-Arr/AIRSS/Generating-Clusters/GAP-ML-2020/Higher-Symm/SD-CG/HFTN-CG/Box-30A
REM
REM
REM
REM
REM
REM ./C.cell (13fc22856271072ba132eecf8fb47ea5)
REM AIRSS Version 0.9.1 bugfix July 2018 build 013d7b7c2542+ Fri, 06 Jul 2018 19:26:36 +0100
REM compiler GCC version 9.3.0
REM options -cpp -mtune=generic -march=x86-64 -g -O0
REM seed -1447544955 1107354312 2051325690 -45534620 1201163581 1008415089 -348924705 584462604 316245167 -1095715614 318075726 1440364371 224411161 1076384952 817844088 -2117362307 -2128905644 -1367525451 -563511281 1887039342 1684361845 -251096040 517845926 -989128407 -1325867645 -2038166435 2069946345 1002460288 831964247 -271755517 988914557 1590417311 1851190715
REM
CELL 1.54180   30.00000   30.00000   30.00000   90.00000   90.00000   90.00000
LATT -1
SFAC C  
C      1  0.4788670000000  0.5224590000000  0.4331030000000 1.0
C      1  0.5259750000000  0.5146510000000  0.4399210000000 1.0
C      1  0.5560880000000  0.5116280000000  0.4757510000000 1.0
C      1  0.5571940000000  0.5112580000000  0.5252170000000 1.0
C      1  0.5287130000000  0.5137320000000  0.5623970000000 1.0
C      1  0.4819590000000  0.5214220000000  0.5714280000000 1.0
C      1  0.4495820000000  0.5309710000000  0.5397320000000 1.0
C      1  0.4479420000000  0.5315220000000  0.4663540000000 1.0
C      1  0.5237470000000  0.4753380000000  0.4091170000000 1.0
C      1  0.5855150000000  0.4718680000000  0.4747230000000 1.0
C      1  0.5866240000000  0.4714960000000  0.5243330000000 1.0
C      1  0.5278490000000  0.4739620000000  0.5926770000000 1.0
C      1  0.4790450000000  0.4800300000000  0.5972690000000 1.0
C      1  0.4208160000000  0.4937070000000  0.5273840000000 1.0
C      1  0.4197440000000  0.4940670000000  0.4794140000000 1.0
C      1  0.4747880000000  0.4814580000000  0.4068010000000 1.0
C      1  0.4156640000000  0.4616730000000  0.5593310000000 1.0
C      1  0.4131590000000  0.4625140000000  0.4472520000000 1.0
C      1  0.4372500000000  0.4552610000000  0.4116120000000 1.0
C      1  0.5545650000000  0.4422280000000  0.4092500000000 1.0
C      1  0.5848060000000  0.4414560000000  0.4414210000000 1.0
C      1  0.5873940000000  0.4405890000000  0.5571740000000 1.0
C      1  0.5586200000000  0.4408680000000  0.5906710000000 1.0
C      1  0.4413210000000  0.4538950000000  0.5937470000000 1.0
C      1  0.4612360000000  0.5567470000000  0.5029550000000 1.0
END
