TITL C-239817-2079-12 0.0654491898456855 125000 -607.177183717841 0 0 84 (C1) n - 1
REM
REM in /rds/project/t2_vol4/rds-t2-cs072/BORA/CARBON/from-Arr/AIRSS/Generating-Clusters/GAP-ML-2020/Higher-Symm/SD-CG/HFTN-CG
REM
REM
REM
REM
REM
REM ./C.cell (b20cbc046b6831c77cfcea5457e17084)
REM AIRSS Version 0.9.1 bugfix July 2018 build 013d7b7c2542+ Fri, 06 Jul 2018 19:26:36 +0100
REM compiler GCC version 9.3.0
REM options -cpp -mtune=generic -march=x86-64 -g -O0
REM seed 88603545 1434179648 1500265375 2123613886 -530990659 2114311316 100066939 1458338661 774626647 -205351558 623414079 -974942531 888340992 -989187822 1226182736 -1505647600 355350441 -1381044524 -891236014 281067768 997243975 342394156 -863148532 929158973 -2114410282 235295317 1391563975 -511822583 1792491233 2101982597 -384353560 -1451344032 -254555190
REM
CELL 1.54180   50.00000   50.00000   50.00000   90.00000   90.00000   90.00000
LATT -1
SFAC C  
C      1  0.4519790000000  0.5671250000000  0.4968060000000 1.0
C      1  0.4612460000000  0.4332080000000  0.4746190000000 1.0
C      1  0.4778620000000  0.5670130000000  0.4558730000000 1.0
C      1  0.5034160000000  0.4320870000000  0.4522050000000 1.0
C      1  0.5261550000000  0.5671230000000  0.4579790000000 1.0
C      1  0.5438910000000  0.4323470000000  0.4782400000000 1.0
C      1  0.5481560000000  0.5674610000000  0.5007570000000 1.0
C      1  0.5412270000000  0.4335670000000  0.5267650000000 1.0
C      1  0.5218150000000  0.5672930000000  0.5408910000000 1.0
C      1  0.4986540000000  0.4332290000000  0.5499880000000 1.0
C      1  0.4738950000000  0.5675340000000  0.5394310000000 1.0
C      1  0.4585100000000  0.4333150000000  0.5243180000000 1.0
C      1  0.5182430000000  0.4856920000000  0.4283640000000 1.0
C      1  0.5520210000000  0.5133920000000  0.4464430000000 1.0
C      1  0.5714440000000  0.4868120000000  0.4799980000000 1.0
C      1  0.5732350000000  0.5143160000000  0.5181570000000 1.0
C      1  0.5543500000000  0.4877110000000  0.5524870000000 1.0
C      1  0.5205250000000  0.5146190000000  0.5708060000000 1.0
C      1  0.4819220000000  0.4876130000000  0.5725000000000 1.0
C      1  0.4481930000000  0.5147940000000  0.5532520000000 1.0
C      1  0.4272500000000  0.4877500000000  0.5206940000000 1.0
C      1  0.4262200000000  0.5143330000000  0.4810980000000 1.0
C      1  0.4468360000000  0.4862190000000  0.4489150000000 1.0
C      1  0.4797200000000  0.5128610000000  0.4279840000000 1.0
C      1  0.5471530000000  0.5567680000000  0.5289360000000 1.0
C      1  0.5266680000000  0.4447430000000  0.5505480000000 1.0
C      1  0.4974370000000  0.5565030000000  0.5543730000000 1.0
C      1  0.4707140000000  0.4440710000000  0.5491710000000 1.0
C      1  0.4499080000000  0.5567910000000  0.5249880000000 1.0
C      1  0.4496820000000  0.4491860000000  0.4987820000000 1.0
C      1  0.4524030000000  0.5564060000000  0.4686210000000 1.0
C      1  0.4755470000000  0.4432910000000  0.4507310000000 1.0
C      1  0.5026280000000  0.5560240000000  0.4427780000000 1.0
C      1  0.5314700000000  0.4427550000000  0.4528150000000 1.0
C      1  0.5500950000000  0.5566100000000  0.4728310000000 1.0
C      1  0.5564940000000  0.4442790000000  0.5031320000000 1.0
C      1  0.4733130000000  0.5146490000000  0.5694220000000 1.0
C      1  0.4426520000000  0.4873810000000  0.5463760000000 1.0
C      1  0.4249590000000  0.5146510000000  0.5118580000000 1.0
C      1  0.4293090000000  0.4871330000000  0.4732600000000 1.0
C      1  0.4531140000000  0.5131970000000  0.4418420000000 1.0
C      1  0.4885750000000  0.4858820000000  0.4267380000000 1.0
C      1  0.5268370000000  0.5130630000000  0.4306520000000 1.0
C      1  0.5580810000000  0.4863960000000  0.4534850000000 1.0
C      1  0.5738340000000  0.5140400000000  0.4883170000000 1.0
C      1  0.5707690000000  0.4874650000000  0.5272280000000 1.0
C      1  0.5470930000000  0.5147770000000  0.5576210000000 1.0
C      1  0.5119580000000  0.4873200000000  0.5737980000000 1.0
C      1  0.4756210000000  0.4131940000000  0.5146440000000 1.0
C      1  0.4718530000000  0.5872730000000  0.4975290000000 1.0
C      1  0.4772820000000  0.4129960000000  0.4860520000000 1.0
C      1  0.4869310000000  0.5871160000000  0.4735750000000 1.0
C      1  0.5022830000000  0.4127620000000  0.4730800000000 1.0
C      1  0.5151730000000  0.5870860000000  0.4746820000000 1.0
C      1  0.5258810000000  0.4128530000000  0.4880250000000 1.0
C      1  0.5278950000000  0.5874880000000  0.4997800000000 1.0
C      1  0.5243600000000  0.4132410000000  0.5162510000000 1.0
C      1  0.5125890000000  0.5873630000000  0.5234130000000 1.0
C      1  0.4995300000000  0.4130480000000  0.5296390000000 1.0
C      1  0.4845570000000  0.5874330000000  0.5225320000000 1.0
C      1  0.4699580000000  0.4993220000000  0.4979770000000 1.0
C      1  0.4949760000000  0.5374460000000  0.5107890000000 1.0
C      1  0.4872140000000  0.5056830000000  0.4769150000000 1.0
C      1  0.5037700000000  0.5288830000000  0.4870920000000 1.0
C      1  0.5092710000000  0.4869720000000  0.4770840000000 1.0
C      1  0.5247600000000  0.5079290000000  0.4901260000000 1.0
C      1  0.5069250000000  0.4621830000000  0.4892260000000 1.0
C      1  0.5268580000000  0.5013330000000  0.5163330000000 1.0
C      1  0.4957030000000  0.4661950000000  0.5128340000000 1.0
C      1  0.5033780000000  0.4917890000000  0.5254670000000 1.0
C      1  0.4700620000000  0.4713950000000  0.5019990000000 1.0
C      1  0.4841620000000  0.5119690000000  0.5191250000000 1.0
C      1  0.4364770000000  0.5324940000000  0.5323240000000 1.0
C      1  0.4291250000000  0.4705090000000  0.4972620000000 1.0
C      1  0.4402030000000  0.5313850000000  0.4613030000000 1.0
C      1  0.4683980000000  0.4685190000000  0.4388230000000 1.0
C      1  0.5032860000000  0.5305820000000  0.4295280000000 1.0
C      1  0.5385310000000  0.4681960000000  0.4412150000000 1.0
C      1  0.5628050000000  0.5314690000000  0.4670580000000 1.0
C      1  0.5702720000000  0.4694770000000  0.5036160000000 1.0
C      1  0.5592180000000  0.5320350000000  0.5370210000000 1.0
C      1  0.5332800000000  0.4698050000000  0.5629280000000 1.0
C      1  0.4970070000000  0.5319070000000  0.5688220000000 1.0
C      1  0.4629500000000  0.4698730000000  0.5590570000000 1.0
END
