TITL C-239803-2077-9 27.6738227188368 125000 -279.838050354795 0 0 42 (C1) n - 1
REM
REM in /rds/project/t2_vol4/rds-t2-cs072/BORA/CARBON/from-Arr/AIRSS/Generating-Clusters/GAP-ML-2020/Higher-Symm/SD-CG/HFTN-CG
REM
REM
REM
REM
REM
REM ./C.cell (b20cbc046b6831c77cfcea5457e17084)
REM AIRSS Version 0.9.1 bugfix July 2018 build 013d7b7c2542+ Fri, 06 Jul 2018 19:26:36 +0100
REM compiler GCC version 9.3.0
REM options -cpp -mtune=generic -march=x86-64 -g -O0
REM seed -1626123532 -2123404821 1495648608 -519174513 977964063 1452786693 944803100 2000067406 -1752268219 -1089850773 -1750001177 -43102693 -821557446 362982282 -472638154 1374515248 -1585881363 905606584 1904204025 685822524 -339788847 -501517186 741692204 -907716507 947634383 -1523301799 -45424231 -2035906596 -628040961 -1293880777 -929354534 -633789419 958209801
REM
CELL 1.54180   50.00000   50.00000   50.00000   90.00000   90.00000   90.00000
LATT -1
SFAC C  
C      1  0.4771770000000  0.4871410000000  0.5312540000000 1.0
C      1  0.5250420000000  0.4862000000000  0.5317630000000 1.0
C      1  0.5367730000000  0.4871440000000  0.4866410000000 1.0
C      1  0.4984670000000  0.4872320000000  0.4600500000000 1.0
C      1  0.4638640000000  0.4874470000000  0.4916310000000 1.0
C      1  0.4764850000000  0.5153090000000  0.5342620000000 1.0
C      1  0.5215590000000  0.5141530000000  0.5285650000000 1.0
C      1  0.5332410000000  0.5150250000000  0.4873960000000 1.0
C      1  0.4973920000000  0.5148360000000  0.4585960000000 1.0
C      1  0.4608530000000  0.5154890000000  0.4891900000000 1.0
C      1  0.4745510000000  0.5575330000000  0.4684750000000 1.0
C      1  0.4640420000000  0.5584880000000  0.5128370000000 1.0
C      1  0.5005680000000  0.5576040000000  0.5401270000000 1.0
C      1  0.5360680000000  0.5579930000000  0.5106350000000 1.0
C      1  0.5201160000000  0.5578590000000  0.4667060000000 1.0
C      1  0.4765640000000  0.4448240000000  0.4707700000000 1.0
C      1  0.4621590000000  0.4463500000000  0.5138260000000 1.0
C      1  0.5006850000000  0.4435560000000  0.5377450000000 1.0
C      1  0.5379580000000  0.4436790000000  0.5102440000000 1.0
C      1  0.5221500000000  0.4447030000000  0.4669180000000 1.0
C      1  0.5247860000000  0.5694390000000  0.5336450000000 1.0
C      1  0.5370590000000  0.5701570000000  0.4852220000000 1.0
C      1  0.4966550000000  0.5695600000000  0.4568290000000 1.0
C      1  0.4593580000000  0.5701740000000  0.4880250000000 1.0
C      1  0.4763100000000  0.5705620000000  0.5347400000000 1.0
C      1  0.5252240000000  0.4314400000000  0.5319380000000 1.0
C      1  0.5400120000000  0.4333450000000  0.4847200000000 1.0
C      1  0.4985540000000  0.4328420000000  0.4583890000000 1.0
C      1  0.4595180000000  0.4339910000000  0.4895110000000 1.0
C      1  0.4754410000000  0.4332610000000  0.5340100000000 1.0
C      1  0.4624980000000  0.5293220000000  0.5138220000000 1.0
C      1  0.5002910000000  0.5281400000000  0.5427010000000 1.0
C      1  0.5415650000000  0.5301420000000  0.5120230000000 1.0
C      1  0.5218300000000  0.5289110000000  0.4645530000000 1.0
C      1  0.4735470000000  0.5280690000000  0.4674370000000 1.0
C      1  0.4546850000000  0.4742530000000  0.5168340000000 1.0
C      1  0.5009800000000  0.4724180000000  0.5383210000000 1.0
C      1  0.5392130000000  0.4728100000000  0.5111320000000 1.0
C      1  0.5228560000000  0.4739530000000  0.4661290000000 1.0
C      1  0.4757820000000  0.4733520000000  0.4697920000000 1.0
C      1  0.5086090000000  0.5058350000000  0.5028480000000 1.0
C      1  0.4911080000000  0.4837880000000  0.5046340000000 1.0
END
