TITL C-237548-1816-8 -133.360150370934 125000 -602.140354736511 0 0 87 (C1) n - 1
REM
REM in /rds/project/t2_vol4/rds-t2-cs072/BORA/CARBON/from-Arr/AIRSS/Generating-Clusters/GAP-ML-2020/Higher-Symm/SD-CG/HFTN-CG
REM
REM
REM
REM
REM
REM ./C.cell (b20cbc046b6831c77cfcea5457e17084)
REM AIRSS Version 0.9.1 bugfix July 2018 build 013d7b7c2542+ Fri, 06 Jul 2018 19:26:36 +0100
REM compiler GCC version 9.3.0
REM options -cpp -mtune=generic -march=x86-64 -g -O0
REM seed -514662637 -887462830 950682337 1371647032 1234541003 -530153624 -460941359 -1600742028 286394193 -822823320 1780483207 -1573844761 -1110705465 551791830 1944269753 947920102 1271497264 -545143658 1327028573 1040058368 2052071695 -1643121310 -308390237 -2010356104 -894609931 419963789 -1363744104 207226942 -1103938548 -1866957303 -369941933 608839643 1346674315
REM
CELL 1.54180   50.00000   50.00000   50.00000   90.00000   90.00000   90.00000
LATT -1
SFAC C  
C      1  0.4940030000000  0.4342610000000  0.5177970000000 1.0
C      1  0.5605480000000  0.4721810000000  0.5190190000000 1.0
C      1  0.5439140000000  0.5467670000000  0.5164350000000 1.0
C      1  0.4665450000000  0.5573590000000  0.5180860000000 1.0
C      1  0.4365930000000  0.4865780000000  0.5167680000000 1.0
C      1  0.4904620000000  0.4295440000000  0.4713030000000 1.0
C      1  0.5727550000000  0.4636350000000  0.4735520000000 1.0
C      1  0.5522460000000  0.5492910000000  0.4712710000000 1.0
C      1  0.4619250000000  0.5696610000000  0.4705380000000 1.0
C      1  0.4241080000000  0.4888040000000  0.4708670000000 1.0
C      1  0.4526460000000  0.5051940000000  0.4396980000000 1.0
C      1  0.4866120000000  0.4640430000000  0.4419420000000 1.0
C      1  0.5479000000000  0.4666550000000  0.4359770000000 1.0
C      1  0.5410080000000  0.5217680000000  0.4385800000000 1.0
C      1  0.4808210000000  0.5409250000000  0.4394560000000 1.0
C      1  0.4660680000000  0.4760510000000  0.5102990000000 1.0
C      1  0.5136360000000  0.4567210000000  0.5125010000000 1.0
C      1  0.5437630000000  0.4967340000000  0.5117700000000 1.0
C      1  0.5146480000000  0.5383140000000  0.5092660000000 1.0
C      1  0.4633620000000  0.5276500000000  0.5122980000000 1.0
C      1  0.4665710000000  0.4461890000000  0.5475550000000 1.0
C      1  0.5409900000000  0.4504170000000  0.5496500000000 1.0
C      1  0.5589380000000  0.5227620000000  0.5480530000000 1.0
C      1  0.4964200000000  0.5625770000000  0.5465220000000 1.0
C      1  0.4378190000000  0.5151000000000  0.5487190000000 1.0
C      1  0.4671480000000  0.5247370000000  0.4848930000000 1.0
C      1  0.4825260000000  0.4824410000000  0.4862190000000 1.0
C      1  0.5099310000000  0.4710180000000  0.4866170000000 1.0
C      1  0.5279670000000  0.4949950000000  0.4875760000000 1.0
C      1  0.5140260000000  0.5209400000000  0.4823620000000 1.0
C      1  0.4210520000000  0.4446450000000  0.4916700000000 1.0
C      1  0.5278480000000  0.4067170000000  0.4927270000000 1.0
C      1  0.5995100000000  0.4966810000000  0.4950100000000 1.0
C      1  0.5325400000000  0.5882440000000  0.4902210000000 1.0
C      1  0.4227670000000  0.5589430000000  0.4939700000000 1.0
C      1  0.5831370000000  0.4743560000000  0.4979180000000 1.0
C      1  0.5493000000000  0.5669000000000  0.4940420000000 1.0
C      1  0.4478190000000  0.5690460000000  0.4959390000000 1.0
C      1  0.4206760000000  0.4722650000000  0.4945920000000 1.0
C      1  0.5020030000000  0.4156260000000  0.4945940000000 1.0
C      1  0.5082440000000  0.5222620000000  0.5329490000000 1.0
C      1  0.4802260000000  0.5148890000000  0.5335160000000 1.0
C      1  0.4800420000000  0.4858990000000  0.5340110000000 1.0
C      1  0.5073280000000  0.4754410000000  0.5346360000000 1.0
C      1  0.5247800000000  0.4983550000000  0.5343540000000 1.0
C      1  0.4379910000000  0.4873080000000  0.5475160000000 1.0
C      1  0.4924130000000  0.4365040000000  0.5485980000000 1.0
C      1  0.5577040000000  0.4725180000000  0.5495450000000 1.0
C      1  0.5432730000000  0.5454970000000  0.5472460000000 1.0
C      1  0.4694630000000  0.5559390000000  0.5481220000000 1.0
C      1  0.5058660000000  0.5821220000000  0.4932040000000 1.0
C      1  0.4193230000000  0.5321700000000  0.4964340000000 1.0
C      1  0.4470730000000  0.4359190000000  0.4935630000000 1.0
C      1  0.5463350000000  0.4271640000000  0.4967660000000 1.0
C      1  0.5830450000000  0.5188060000000  0.4955700000000 1.0
C      1  0.4215400000000  0.5174720000000  0.4714810000000 1.0
C      1  0.4638140000000  0.4366410000000  0.4696400000000 1.0
C      1  0.5544720000000  0.4422220000000  0.4732640000000 1.0
C      1  0.5709110000000  0.5284290000000  0.4709270000000 1.0
C      1  0.4903970000000  0.5731860000000  0.4700580000000 1.0
C      1  0.5081780000000  0.5228290000000  0.5776120000000 1.0
C      1  0.4806690000000  0.5147200000000  0.5778310000000 1.0
C      1  0.4797670000000  0.4859670000000  0.5779000000000 1.0
C      1  0.5066840000000  0.4763630000000  0.5781750000000 1.0
C      1  0.5242020000000  0.4991790000000  0.5780590000000 1.0
C      1  0.4352410000000  0.5172580000000  0.5185960000000 1.0
C      1  0.4656160000000  0.4452680000000  0.5169290000000 1.0
C      1  0.5420800000000  0.4477900000000  0.5189620000000 1.0
C      1  0.5611580000000  0.5217980000000  0.5173620000000 1.0
C      1  0.4966120000000  0.5634750000000  0.5156650000000 1.0
C      1  0.4619470000000  0.4736050000000  0.5574800000000 1.0
C      1  0.5130970000000  0.4551290000000  0.5586610000000 1.0
C      1  0.5462820000000  0.4982710000000  0.5585960000000 1.0
C      1  0.5156240000000  0.5428680000000  0.5566690000000 1.0
C      1  0.4633580000000  0.5280260000000  0.5581420000000 1.0
C      1  0.5630060000000  0.5098750000000  0.4491530000000 1.0
C      1  0.5022800000000  0.5548370000000  0.4511280000000 1.0
C      1  0.4382340000000  0.5277820000000  0.4503610000000 1.0
C      1  0.4610240000000  0.4585840000000  0.4494540000000 1.0
C      1  0.5351860000000  0.4474340000000  0.4506220000000 1.0
C      1  0.4424620000000  0.4809780000000  0.4497170000000 1.0
C      1  0.5071740000000  0.4512380000000  0.4587970000000 1.0
C      1  0.5667320000000  0.4812010000000  0.4496740000000 1.0
C      1  0.5269540000000  0.5392610000000  0.4574780000000 1.0
C      1  0.4558880000000  0.5502810000000  0.4496990000000 1.0
C      1  0.4868320000000  0.5092100000000  0.4733490000000 1.0
C      1  0.4804450000000  0.5117120000000  0.4413290000000 1.0
END
