TITL C-237567-9977-3 281.130407202075 125000 -872.964721624152 0 0 126 (Cs) n - 1
REM
REM in /rds/project/t2_vol4/rds-t2-cs072/BORA/CARBON/from-Arr/AIRSS/Generating-Clusters/GAP-ML-2020/Higher-Symm/SD-CG/HFTN-CG
REM
REM
REM
REM
REM
REM ./C.cell (b20cbc046b6831c77cfcea5457e17084)
REM AIRSS Version 0.9.1 bugfix July 2018 build 013d7b7c2542+ Fri, 06 Jul 2018 19:26:36 +0100
REM compiler GCC version 9.3.0
REM options -cpp -mtune=generic -march=x86-64 -g -O0
REM seed 231006202 -568819932 402472983 -860848226 -1406511894 1515337329 -87405794 -1561407977 1639955886 2028176927 1294696704 -993842664 2135589645 -1264614672 -994407951 1298253506 1230151764 -1698138215 929649016 -1935883198 -291572934 1106034265 1640791272 -505649923 794434457 71980024 -7396881 -344843187 -1895314403 -902031214 1959289874 -367003521 -208376972
REM
CELL 1.54180   50.00000   50.00000   50.00000   90.00000   90.00000   90.00000
LATT -1
SFAC C  
C      1  0.5871720000000  0.5313810000000  0.5059610000000 1.0
C      1  0.4295700000000  0.5603310000000  0.5078690000000 1.0
C      1  0.4834770000000  0.4086520000000  0.5064050000000 1.0
C      1  0.5871970000000  0.4686740000000  0.5058870000000 1.0
C      1  0.4296180000000  0.4395950000000  0.5077260000000 1.0
C      1  0.4834050000000  0.5913200000000  0.5066210000000 1.0
C      1  0.5003600000000  0.5280370000000  0.5349550000000 1.0
C      1  0.4760350000000  0.4866940000000  0.5280870000000 1.0
C      1  0.5225500000000  0.4863240000000  0.5252510000000 1.0
C      1  0.5003820000000  0.4718800000000  0.5348890000000 1.0
C      1  0.4760240000000  0.5132200000000  0.5281180000000 1.0
C      1  0.5225390000000  0.5136340000000  0.5252830000000 1.0
C      1  0.5570930000000  0.5702310000000  0.4569310000000 1.0
C      1  0.4099680000000  0.5146710000000  0.4589180000000 1.0
C      1  0.5318840000000  0.4151530000000  0.4569910000000 1.0
C      1  0.5571480000000  0.4299170000000  0.4567640000000 1.0
C      1  0.4099800000000  0.4853560000000  0.4588830000000 1.0
C      1  0.5318180000000  0.5849740000000  0.4571930000000 1.0
C      1  0.4994010000000  0.4463890000000  0.5181430000000 1.0
C      1  0.5456820000000  0.5262790000000  0.5145620000000 1.0
C      1  0.4544800000000  0.5271600000000  0.5163170000000 1.0
C      1  0.4993580000000  0.5535670000000  0.5182700000000 1.0
C      1  0.5457030000000  0.4737230000000  0.5145000000000 1.0
C      1  0.4545020000000  0.4727650000000  0.5162530000000 1.0
C      1  0.4767840000000  0.4855050000000  0.5786660000000 1.0
C      1  0.5262670000000  0.4861550000000  0.5782310000000 1.0
C      1  0.5007260000000  0.5285850000000  0.5702410000000 1.0
C      1  0.4767720000000  0.5142900000000  0.5787000000000 1.0
C      1  0.5262560000000  0.5136790000000  0.5782630000000 1.0
C      1  0.5007490000000  0.4712490000000  0.5701730000000 1.0
C      1  0.5099510000000  0.4242840000000  0.4389820000000 1.0
C      1  0.5598820000000  0.5469220000000  0.4384490000000 1.0
C      1  0.4286350000000  0.5288920000000  0.4404170000000 1.0
C      1  0.5098910000000  0.5758680000000  0.4391620000000 1.0
C      1  0.5599190000000  0.4532710000000  0.4383380000000 1.0
C      1  0.4286580000000  0.4711930000000  0.4403490000000 1.0
C      1  0.4286020000000  0.5134000000000  0.5749720000000 1.0
C      1  0.5249570000000  0.4288560000000  0.5741970000000 1.0
C      1  0.5477350000000  0.5563890000000  0.5732030000000 1.0
C      1  0.4286130000000  0.4863660000000  0.5749400000000 1.0
C      1  0.5249010000000  0.5709860000000  0.5743660000000 1.0
C      1  0.5477800000000  0.4434750000000  0.5730690000000 1.0
C      1  0.4412820000000  0.5721900000000  0.4558330000000 1.0
C      1  0.4668010000000  0.4139880000000  0.4552740000000 1.0
C      1  0.5913390000000  0.5146150000000  0.4539090000000 1.0
C      1  0.4413390000000  0.4278680000000  0.4556610000000 1.0
C      1  0.4667330000000  0.5860920000000  0.4554790000000 1.0
C      1  0.5913500000000  0.4855660000000  0.4538750000000 1.0
C      1  0.5804680000000  0.4847050000000  0.4822820000000 1.0
C      1  0.4734540000000  0.5764250000000  0.4837470000000 1.0
C      1  0.4465710000000  0.4380620000000  0.4838560000000 1.0
C      1  0.5804550000000  0.5154010000000  0.4823180000000 1.0
C      1  0.4735140000000  0.4235930000000  0.4835660000000 1.0
C      1  0.4465220000000  0.5619330000000  0.4840030000000 1.0
C      1  0.4745300000000  0.5145120000000  0.4160830000000 1.0
C      1  0.4988250000000  0.4716870000000  0.4158330000000 1.0
C      1  0.5237730000000  0.5141580000000  0.4152050000000 1.0
C      1  0.4745410000000  0.4856680000000  0.4160490000000 1.0
C      1  0.4988030000000  0.5285120000000  0.4159000000000 1.0
C      1  0.5237840000000  0.4860620000000  0.4151720000000 1.0
C      1  0.5241370000000  0.5980830000000  0.4801600000000 1.0
C      1  0.4028090000000  0.4716720000000  0.4817380000000 1.0
C      1  0.5725640000000  0.4302260000000  0.4795820000000 1.0
C      1  0.5242140000000  0.4019840000000  0.4799270000000 1.0
C      1  0.4027860000000  0.5282950000000  0.4818050000000 1.0
C      1  0.5725090000000  0.5698800000000  0.4797480000000 1.0
C      1  0.4556990000000  0.5158190000000  0.4394180000000 1.0
C      1  0.5076800000000  0.4542170000000  0.4387610000000 1.0
C      1  0.5349190000000  0.5301700000000  0.4380530000000 1.0
C      1  0.4557110000000  0.4842900000000  0.4393800000000 1.0
C      1  0.5076440000000  0.5459340000000  0.4388700000000 1.0
C      1  0.5349420000000  0.4700050000000  0.4379810000000 1.0
C      1  0.4727510000000  0.4846280000000  0.4664100000000 1.0
C      1  0.5268170000000  0.4841580000000  0.4654690000000 1.0
C      1  0.5003420000000  0.5314120000000  0.4666620000000 1.0
C      1  0.4727390000000  0.5154300000000  0.4664470000000 1.0
C      1  0.5268040000000  0.5159450000000  0.4655070000000 1.0
C      1  0.5003670000000  0.4686670000000  0.4665880000000 1.0
C      1  0.5507280000000  0.4427790000000  0.5224850000000 1.0
C      1  0.5237300000000  0.5732710000000  0.5232800000000 1.0
C      1  0.4254450000000  0.4840640000000  0.5241560000000 1.0
C      1  0.5506830000000  0.5572070000000  0.5226210000000 1.0
C      1  0.5237880000000  0.4266930000000  0.5231060000000 1.0
C      1  0.4254330000000  0.5158200000000  0.5241940000000 1.0
C      1  0.5484980000000  0.5158320000000  0.4866940000000 1.0
C      1  0.4623280000000  0.5337180000000  0.4883850000000 1.0
C      1  0.4898220000000  0.4510740000000  0.4892170000000 1.0
C      1  0.5485100000000  0.4842380000000  0.4866570000000 1.0
C      1  0.4623550000000  0.4662800000000  0.4883050000000 1.0
C      1  0.4897830000000  0.5489440000000  0.4893330000000 1.0
C      1  0.4527760000000  0.4704280000000  0.5760780000000 1.0
C      1  0.5505810000000  0.4722490000000  0.5746730000000 1.0
C      1  0.4990730000000  0.5582870000000  0.5746950000000 1.0
C      1  0.4527530000000  0.5293540000000  0.5761480000000 1.0
C      1  0.5505580000000  0.5276130000000  0.5747390000000 1.0
C      1  0.4991200000000  0.4415340000000  0.5745570000000 1.0
C      1  0.5126820000000  0.4061970000000  0.5034240000000 1.0
C      1  0.5743890000000  0.5580050000000  0.5033760000000 1.0
C      1  0.4124820000000  0.5360840000000  0.5052840000000 1.0
C      1  0.5126090000000  0.5938040000000  0.5036470000000 1.0
C      1  0.5744350000000  0.4420460000000  0.5032390000000 1.0
C      1  0.4125100000000  0.4638350000000  0.5051980000000 1.0
C      1  0.4507000000000  0.5562720000000  0.5293390000000 1.0
C      1  0.4766040000000  0.4278790000000  0.5289410000000 1.0
C      1  0.5730040000000  0.5151780000000  0.5275160000000 1.0
C      1  0.4507440000000  0.4436190000000  0.5292050000000 1.0
C      1  0.4765470000000  0.5720330000000  0.5291120000000 1.0
C      1  0.5730160000000  0.4848140000000  0.5274800000000 1.0
C      1  0.4863080000000  0.5901200000000  0.4370500000000 1.0
C      1  0.4280930000000  0.4437350000000  0.4380050000000 1.0
C      1  0.5839510000000  0.4665310000000  0.4359390000000 1.0
C      1  0.4863790000000  0.4100180000000  0.4368360000000 1.0
C      1  0.4280490000000  0.5563560000000  0.4381380000000 1.0
C      1  0.5839250000000  0.5336870000000  0.4360180000000 1.0
C      1  0.4413680000000  0.4519510000000  0.5557060000000 1.0
C      1  0.5714670000000  0.4717050000000  0.5537040000000 1.0
C      1  0.4888490000000  0.5779860000000  0.5551480000000 1.0
C      1  0.4413310000000  0.5478700000000  0.5558200000000 1.0
C      1  0.5714440000000  0.5282240000000  0.5537710000000 1.0
C      1  0.4889110000000  0.4218750000000  0.5549630000000 1.0
C      1  0.5634090000000  0.4444780000000  0.5491880000000 1.0
C      1  0.5163270000000  0.5845070000000  0.5504150000000 1.0
C      1  0.4214130000000  0.4722430000000  0.5512830000000 1.0
C      1  0.5633650000000  0.5554550000000  0.5493190000000 1.0
C      1  0.5163940000000  0.4153860000000  0.5502140000000 1.0
C      1  0.4213920000000  0.5275730000000  0.5513490000000 1.0
END
