TITL C-237563-1-8 -0.118083822202262 125000 -468.856712760319 0 0 69 (C1) n - 1
REM
REM in /rds/project/t2_vol4/rds-t2-cs072/BORA/CARBON/from-Arr/AIRSS/Generating-Clusters/GAP-ML-2020/Higher-Symm/SD-CG/HFTN-CG
REM
REM
REM
REM
REM
REM ./C.cell (b20cbc046b6831c77cfcea5457e17084)
REM AIRSS Version 0.9.1 bugfix July 2018 build 013d7b7c2542+ Fri, 06 Jul 2018 19:26:36 +0100
REM compiler GCC version 9.3.0
REM options -cpp -mtune=generic -march=x86-64 -g -O0
REM seed -1270359691 -1493372705 130098253 613864508 -207140413 860072796 775953929 -1045020907 1044669446 -638421318 367417296 -389620975 -1171063055 -1324707414 1297441447 1002610446 611176667 -1456028598 -45473533 1985184076 889252893 -1362866167 -351433469 -188386831 -1941526428 -773650319 300351504 -1228559506 1230798392 -223192963 171697958 369320411 188578749
REM
CELL 1.54180   50.00000   50.00000   50.00000   90.00000   90.00000   90.00000
LATT -1
SFAC C  
C      1  0.4889180000000  0.4904180000000  0.5668190000000 1.0
C      1  0.5611370000000  0.4888490000000  0.4760580000000 1.0
C      1  0.4468450000000  0.4910130000000  0.4578670000000 1.0
C      1  0.4729330000000  0.4817260000000  0.4137400000000 1.0
C      1  0.4371710000000  0.4829980000000  0.5668270000000 1.0
C      1  0.5870680000000  0.4804560000000  0.5197340000000 1.0
C      1  0.4839540000000  0.4305320000000  0.4762150000000 1.0
C      1  0.4832510000000  0.4314960000000  0.5244580000000 1.0
C      1  0.5262520000000  0.4299390000000  0.5014270000000 1.0
C      1  0.5695570000000  0.4734010000000  0.5407300000000 1.0
C      1  0.5000610000000  0.4748950000000  0.4201320000000 1.0
C      1  0.4273500000000  0.4756820000000  0.5411660000000 1.0
C      1  0.4612500000000  0.4984570000000  0.4326460000000 1.0
C      1  0.4601630000000  0.4987230000000  0.5669600000000 1.0
C      1  0.5753530000000  0.4974310000000  0.5008120000000 1.0
C      1  0.5029370000000  0.4769570000000  0.4894310000000 1.0
C      1  0.4792960000000  0.4799340000000  0.5075050000000 1.0
C      1  0.5206740000000  0.4824660000000  0.5131550000000 1.0
C      1  0.5400140000000  0.5344240000000  0.4600490000000 1.0
C      1  0.4455640000000  0.5363490000000  0.4855270000000 1.0
C      1  0.5146410000000  0.5350690000000  0.5553380000000 1.0
C      1  0.4341850000000  0.5099590000000  0.4769620000000 1.0
C      1  0.5122910000000  0.5084760000000  0.5690210000000 1.0
C      1  0.5521730000000  0.5073690000000  0.4547480000000 1.0
C      1  0.4461260000000  0.5390080000000  0.5136570000000 1.0
C      1  0.5387140000000  0.5388040000000  0.5411100000000 1.0
C      1  0.5153590000000  0.5381730000000  0.4472790000000 1.0
C      1  0.4998980000000  0.4593730000000  0.4437590000000 1.0
C      1  0.4470450000000  0.4597440000000  0.5288750000000 1.0
C      1  0.5490990000000  0.4570680000000  0.5304420000000 1.0
C      1  0.4676340000000  0.5489630000000  0.4718280000000 1.0
C      1  0.4935460000000  0.5500620000000  0.5421970000000 1.0
C      1  0.5414800000000  0.5511570000000  0.4842000000000 1.0
C      1  0.4940200000000  0.5931170000000  0.4728990000000 1.0
C      1  0.5130670000000  0.5916270000000  0.5177770000000 1.0
C      1  0.5173760000000  0.5912030000000  0.4893490000000 1.0
C      1  0.5189060000000  0.4607930000000  0.5361760000000 1.0
C      1  0.5197220000000  0.4584510000000  0.4659070000000 1.0
C      1  0.4563580000000  0.4610480000000  0.4999410000000 1.0
C      1  0.4538450000000  0.4657690000000  0.4686980000000 1.0
C      1  0.4938130000000  0.4655140000000  0.5542600000000 1.0
C      1  0.5482910000000  0.4634360000000  0.4775520000000 1.0
C      1  0.4769830000000  0.5747240000000  0.4721390000000 1.0
C      1  0.5017820000000  0.5732960000000  0.5304020000000 1.0
C      1  0.5406240000000  0.5784670000000  0.4819420000000 1.0
C      1  0.5122080000000  0.4319240000000  0.4773870000000 1.0
C      1  0.4701740000000  0.4343170000000  0.4998690000000 1.0
C      1  0.5108450000000  0.4348050000000  0.5241260000000 1.0
C      1  0.5370280000000  0.4961270000000  0.5729860000000 1.0
C      1  0.5457170000000  0.4966800000000  0.4292360000000 1.0
C      1  0.4174240000000  0.4982590000000  0.4961710000000 1.0
C      1  0.5608620000000  0.5207850000000  0.5433670000000 1.0
C      1  0.5066570000000  0.5222770000000  0.4246930000000 1.0
C      1  0.4311880000000  0.5226430000000  0.5317260000000 1.0
C      1  0.4841730000000  0.5092870000000  0.5116630000000 1.0
C      1  0.5160010000000  0.5112240000000  0.5091150000000 1.0
C      1  0.4982640000000  0.5086940000000  0.4852360000000 1.0
C      1  0.4719440000000  0.4500100000000  0.5425700000000 1.0
C      1  0.5483830000000  0.4474700000000  0.5021380000000 1.0
C      1  0.4751500000000  0.4498460000000  0.4570650000000 1.0
C      1  0.4533720000000  0.5202980000000  0.5502520000000 1.0
C      1  0.5654650000000  0.5198040000000  0.5150960000000 1.0
C      1  0.4802590000000  0.5188560000000  0.4356390000000 1.0
C      1  0.4182480000000  0.4986640000000  0.5237510000000 1.0
C      1  0.5602610000000  0.4963140000000  0.5580100000000 1.0
C      1  0.5197710000000  0.4975240000000  0.4194020000000 1.0
C      1  0.5388840000000  0.5346100000000  0.5099810000000 1.0
C      1  0.4892950000000  0.5298430000000  0.4629280000000 1.0
C      1  0.4716950000000  0.5329240000000  0.5298770000000 1.0
END
