TITL C-237563-1-1 0.0048808171890291 125000 -43.7962931136873 0 0 7 (C2v) n - 1
REM
REM in /rds/project/t2_vol4/rds-t2-cs072/BORA/CARBON/from-Arr/AIRSS/Generating-Clusters/GAP-ML-2020/Higher-Symm/SD-CG/HFTN-CG
REM
REM
REM
REM
REM
REM ./C.cell (b20cbc046b6831c77cfcea5457e17084)
REM AIRSS Version 0.9.1 bugfix July 2018 build 013d7b7c2542+ Fri, 06 Jul 2018 19:26:36 +0100
REM compiler GCC version 9.3.0
REM options -cpp -mtune=generic -march=x86-64 -g -O0
REM seed -29027393 -1486577275 -288918129 -2010350402 1546793877 -157192299 602776639 -1443479816 1855219046 942543179 -930155572 -1513711690 -1669006013 1326359134 514799573 2094480364 665621579 649538763 1479565799 -185480775 -936974097 -728043440 -1513466872 -94779622 733985784 -653426686 -1694071732 -254179715 -1813801521 -825725420 1351462309 1522051403 -17884931
REM
CELL 1.54180   50.00000   50.00000   50.00000   90.00000   90.00000   90.00000
LATT -1
SFAC C  
C      1  0.4601800000000  0.4687610000000  0.5017990000000 1.0
C      1  0.4548390000000  0.4853110000000  0.4831390000000 1.0
C      1  0.5683390000000  0.5345340000000  0.5117450000000 1.0
C      1  0.5461630000000  0.5230300000000  0.5078880000000 1.0
C      1  0.5018160000000  0.5000220000000  0.5001750000000 1.0
C      1  0.5235410000000  0.5112930000000  0.5039540000000 1.0
C      1  0.4785310000000  0.4879420000000  0.4961250000000 1.0
END
