TITL C-234691-286-5 -94.0417663411856 125000 -605.28942623403 0 0 88 (C1) n - 1
REM
REM in /rds/project/t2_vol4/rds-t2-cs072/BORA/CARBON/from-Arr/AIRSS/Generating-Clusters/GAP-ML-2020/Higher-Symm/SD-CG/HFTN-CG
REM
REM
REM
REM
REM
REM ./C.cell (b20cbc046b6831c77cfcea5457e17084)
REM AIRSS Version 0.9.1 bugfix July 2018 build 013d7b7c2542+ Fri, 06 Jul 2018 19:26:36 +0100
REM compiler GCC version 9.3.0
REM options -cpp -mtune=generic -march=x86-64 -g -O0
REM seed -1393465102 841026622 -1994651273 1669509054 1637834941 1318984389 2040576482 337909803 -146162017 1325704605 -1094385417 1151279926 444578284 -576402004 164250114 -1992029987 -1695967797 663843030 -846813161 -1457598676 1558917527 30133215 -1149450971 957901917 1440131439 -1935412650 -565687096 793536490 -878763027 -1672138005 -1940043326 -443953328 -93627413
REM
CELL 1.54180   50.00000   50.00000   50.00000   90.00000   90.00000   90.00000
LATT -1
SFAC C  
C      1  0.4701220000000  0.4718950000000  0.5685090000000 1.0
C      1  0.5299880000000  0.4721520000000  0.5684530000000 1.0
C      1  0.5527310000000  0.5211520000000  0.4536200000000 1.0
C      1  0.4465630000000  0.5214950000000  0.4517260000000 1.0
C      1  0.4851670000000  0.4915370000000  0.5528150000000 1.0
C      1  0.5149970000000  0.4917080000000  0.5526460000000 1.0
C      1  0.4838370000000  0.5094170000000  0.4807990000000 1.0
C      1  0.5119330000000  0.5098910000000  0.4790410000000 1.0
C      1  0.4420840000000  0.4470240000000  0.4938790000000 1.0
C      1  0.5589510000000  0.4466000000000  0.4938160000000 1.0
C      1  0.5151660000000  0.5314020000000  0.5296560000000 1.0
C      1  0.4852760000000  0.5313300000000  0.5301990000000 1.0
C      1  0.5343140000000  0.4959210000000  0.4189050000000 1.0
C      1  0.4664020000000  0.4962800000000  0.4176840000000 1.0
C      1  0.4710150000000  0.4559410000000  0.4259360000000 1.0
C      1  0.5288950000000  0.4556840000000  0.4263800000000 1.0
C      1  0.5770090000000  0.4672090000000  0.5295270000000 1.0
C      1  0.4232100000000  0.4676510000000  0.5287780000000 1.0
C      1  0.4840760000000  0.5621900000000  0.5278690000000 1.0
C      1  0.5158910000000  0.5623380000000  0.5278900000000 1.0
C      1  0.4486600000000  0.5543290000000  0.4946700000000 1.0
C      1  0.5513560000000  0.5545150000000  0.4951650000000 1.0
C      1  0.4699570000000  0.5717480000000  0.5038860000000 1.0
C      1  0.5300050000000  0.5720530000000  0.5041260000000 1.0
C      1  0.4506550000000  0.5461420000000  0.4666370000000 1.0
C      1  0.5492210000000  0.5461340000000  0.4674240000000 1.0
C      1  0.4223120000000  0.4457930000000  0.5118830000000 1.0
C      1  0.5777920000000  0.4449270000000  0.5131430000000 1.0
C      1  0.5153720000000  0.4631400000000  0.5101780000000 1.0
C      1  0.4855530000000  0.4627370000000  0.5108730000000 1.0
C      1  0.4847050000000  0.4476250000000  0.5669780000000 1.0
C      1  0.5154940000000  0.4477510000000  0.5670330000000 1.0
C      1  0.5285460000000  0.5598010000000  0.4511370000000 1.0
C      1  0.4716080000000  0.5598060000000  0.4508380000000 1.0
C      1  0.5168270000000  0.4355780000000  0.4711150000000 1.0
C      1  0.4834490000000  0.4352990000000  0.4712570000000 1.0
C      1  0.5557390000000  0.5563350000000  0.5433730000000 1.0
C      1  0.4443820000000  0.5563070000000  0.5430970000000 1.0
C      1  0.4418090000000  0.4881900000000  0.5152440000000 1.0
C      1  0.5590100000000  0.4881510000000  0.5149360000000 1.0
C      1  0.5350810000000  0.4284250000000  0.4927300000000 1.0
C      1  0.4654230000000  0.4285850000000  0.4928720000000 1.0
C      1  0.5649340000000  0.5148620000000  0.5283840000000 1.0
C      1  0.4357360000000  0.5148760000000  0.5282430000000 1.0
C      1  0.4841800000000  0.4328780000000  0.5163670000000 1.0
C      1  0.5167370000000  0.4333650000000  0.5160460000000 1.0
C      1  0.5260350000000  0.5195400000000  0.5564940000000 1.0
C      1  0.4742690000000  0.5195070000000  0.5568540000000 1.0
C      1  0.5627790000000  0.5422120000000  0.5197120000000 1.0
C      1  0.4374550000000  0.5421380000000  0.5193410000000 1.0
C      1  0.4429030000000  0.4775090000000  0.4872870000000 1.0
C      1  0.5611730000000  0.4770710000000  0.4869790000000 1.0
C      1  0.5145180000000  0.4760890000000  0.4110030000000 1.0
C      1  0.4863000000000  0.4760520000000  0.4110560000000 1.0
C      1  0.4657660000000  0.5217660000000  0.4297990000000 1.0
C      1  0.5345370000000  0.5212530000000  0.4309240000000 1.0
C      1  0.4458480000000  0.5114040000000  0.5552040000000 1.0
C      1  0.5545510000000  0.5113770000000  0.5552110000000 1.0
C      1  0.4687630000000  0.4861030000000  0.4731190000000 1.0
C      1  0.5247620000000  0.4878150000000  0.4677970000000 1.0
C      1  0.4435210000000  0.4826500000000  0.5647540000000 1.0
C      1  0.5566460000000  0.4826030000000  0.5645870000000 1.0
C      1  0.5149580000000  0.5823360000000  0.4584820000000 1.0
C      1  0.4851120000000  0.5823860000000  0.4583880000000 1.0
C      1  0.5274840000000  0.4865040000000  0.5227940000000 1.0
C      1  0.4732830000000  0.4861590000000  0.5236540000000 1.0
C      1  0.4858520000000  0.5439810000000  0.5704990000000 1.0
C      1  0.5142890000000  0.5440060000000  0.5702970000000 1.0
C      1  0.4686400000000  0.5636870000000  0.5538580000000 1.0
C      1  0.5313120000000  0.5636300000000  0.5538310000000 1.0
C      1  0.4854010000000  0.5430390000000  0.4320240000000 1.0
C      1  0.5150780000000  0.5428270000000  0.4322600000000 1.0
C      1  0.4432890000000  0.4917130000000  0.4578790000000 1.0
C      1  0.5537780000000  0.4909360000000  0.4614510000000 1.0
C      1  0.4848000000000  0.5096710000000  0.5099590000000 1.0
C      1  0.5155300000000  0.5098820000000  0.5086980000000 1.0
C      1  0.4210210000000  0.4702100000000  0.5560320000000 1.0
C      1  0.5792860000000  0.4699530000000  0.5566460000000 1.0
C      1  0.5486030000000  0.4766570000000  0.4355110000000 1.0
C      1  0.4504780000000  0.4772520000000  0.4331310000000 1.0
C      1  0.5145770000000  0.4642700000000  0.4801540000000 1.0
C      1  0.4848380000000  0.4633810000000  0.4808940000000 1.0
C      1  0.4854900000000  0.4376270000000  0.4417230000000 1.0
C      1  0.5144640000000  0.4370260000000  0.4415280000000 1.0
C      1  0.4853080000000  0.5870610000000  0.4868900000000 1.0
C      1  0.5146030000000  0.5870660000000  0.4869740000000 1.0
C      1  0.4854030000000  0.4276020000000  0.5453470000000 1.0
C      1  0.5151300000000  0.4278800000000  0.5452170000000 1.0
END
