TITL C-234697-238-5 606.208454919815 125000 -653.745228101083 0 0 91 (C1) n - 1
REM
REM in /rds/project/t2_vol4/rds-t2-cs072/BORA/CARBON/from-Arr/AIRSS/Generating-Clusters/GAP-ML-2020/Higher-Symm/SD-CG/HFTN-CG
REM
REM
REM
REM
REM
REM ./C.cell (b20cbc046b6831c77cfcea5457e17084)
REM AIRSS Version 0.9.1 bugfix July 2018 build 013d7b7c2542+ Fri, 06 Jul 2018 19:26:36 +0100
REM compiler GCC version 9.3.0
REM options -cpp -mtune=generic -march=x86-64 -g -O0
REM seed -471074551 -1560075452 2140640552 -484369149 -958755811 -1729803823 1245142487 -1881538159 15431206 -1819578701 -620296036 -1332292890 1243342233 -2013658463 -583085690 773303348 -360684031 55857938 -23336604 145915462 -480624385 -149348626 -742367005 1945303413 1259505882 -1927570296 1838321448 1197934889 42512723 -661032587 -806425797 2075010877 123795503
REM
CELL 1.54180   50.00000   50.00000   50.00000   90.00000   90.00000   90.00000
LATT -1
SFAC C  
C      1  0.5405310000000  0.5793740000000  0.5122300000000 1.0
C      1  0.4899190000000  0.5823560000000  0.5134530000000 1.0
C      1  0.4459740000000  0.5633020000000  0.5133600000000 1.0
C      1  0.4148400000000  0.5225520000000  0.5109290000000 1.0
C      1  0.4134530000000  0.4748220000000  0.5105990000000 1.0
C      1  0.4429790000000  0.4350700000000  0.5133520000000 1.0
C      1  0.4861440000000  0.4161320000000  0.5156290000000 1.0
C      1  0.5341600000000  0.4235350000000  0.5200590000000 1.0
C      1  0.5719930000000  0.4553670000000  0.5182870000000 1.0
C      1  0.5865930000000  0.5002240000000  0.5159110000000 1.0
C      1  0.5766050000000  0.5484800000000  0.5125780000000 1.0
C      1  0.4193340000000  0.5126020000000  0.5369850000000 1.0
C      1  0.4204930000000  0.4834950000000  0.5368920000000 1.0
C      1  0.4547360000000  0.4401500000000  0.5393980000000 1.0
C      1  0.4818180000000  0.4297260000000  0.5404600000000 1.0
C      1  0.5295610000000  0.4340130000000  0.5448300000000 1.0
C      1  0.5662090000000  0.4675590000000  0.5436660000000 1.0
C      1  0.5765140000000  0.4948620000000  0.5424930000000 1.0
C      1  0.5664300000000  0.5490850000000  0.5392270000000 1.0
C      1  0.5448280000000  0.5688470000000  0.5385890000000 1.0
C      1  0.4852620000000  0.5695430000000  0.5390450000000 1.0
C      1  0.4586370000000  0.5583100000000  0.5392820000000 1.0
C      1  0.4237090000000  0.4510030000000  0.4986620000000 1.0
C      1  0.4626340000000  0.4194400000000  0.4998100000000 1.0
C      1  0.5119170000000  0.4131280000000  0.5043080000000 1.0
C      1  0.5567290000000  0.4347880000000  0.5060130000000 1.0
C      1  0.5848460000000  0.4753180000000  0.5022380000000 1.0
C      1  0.5870740000000  0.5247600000000  0.5009700000000 1.0
C      1  0.5621570000000  0.5681740000000  0.4971320000000 1.0
C      1  0.5152210000000  0.5861080000000  0.5001610000000 1.0
C      1  0.4656920000000  0.5784140000000  0.4985990000000 1.0
C      1  0.4273930000000  0.5460050000000  0.4997660000000 1.0
C      1  0.4088090000000  0.4988220000000  0.4953490000000 1.0
C      1  0.4940490000000  0.4460120000000  0.4413100000000 1.0
C      1  0.5228720000000  0.4511000000000  0.4434180000000 1.0
C      1  0.5450860000000  0.4700420000000  0.4429910000000 1.0
C      1  0.5540810000000  0.4979080000000  0.4414820000000 1.0
C      1  0.5462200000000  0.5261060000000  0.4409090000000 1.0
C      1  0.5243230000000  0.5457040000000  0.4401650000000 1.0
C      1  0.4954310000000  0.5497140000000  0.4394990000000 1.0
C      1  0.4690170000000  0.5372790000000  0.4399370000000 1.0
C      1  0.4533130000000  0.5125430000000  0.4405490000000 1.0
C      1  0.4523590000000  0.4830890000000  0.4398710000000 1.0
C      1  0.4673470000000  0.4580770000000  0.4397770000000 1.0
C      1  0.4627230000000  0.4627160000000  0.5574820000000 1.0
C      1  0.4912860000000  0.4529990000000  0.5570060000000 1.0
C      1  0.5208530000000  0.4564800000000  0.5596190000000 1.0
C      1  0.5438930000000  0.4752580000000  0.5616500000000 1.0
C      1  0.5557030000000  0.5039750000000  0.5619700000000 1.0
C      1  0.5516220000000  0.5323910000000  0.5593650000000 1.0
C      1  0.5298680000000  0.5529520000000  0.5581210000000 1.0
C      1  0.5020750000000  0.5531850000000  0.5567660000000 1.0
C      1  0.4586440000000  0.5352730000000  0.5573110000000 1.0
C      1  0.4409680000000  0.5140200000000  0.5565080000000 1.0
C      1  0.4439490000000  0.4842900000000  0.5557730000000 1.0
C      1  0.4648920000000  0.4212910000000  0.4715780000000 1.0
C      1  0.5123340000000  0.4153940000000  0.4756390000000 1.0
C      1  0.5550440000000  0.4364420000000  0.4774420000000 1.0
C      1  0.5827600000000  0.4748290000000  0.4738410000000 1.0
C      1  0.5834190000000  0.5223160000000  0.4724930000000 1.0
C      1  0.5587200000000  0.5637360000000  0.4693500000000 1.0
C      1  0.5145530000000  0.5824920000000  0.4713030000000 1.0
C      1  0.4674520000000  0.5757060000000  0.4702700000000 1.0
C      1  0.4319930000000  0.5436920000000  0.4714560000000 1.0
C      1  0.4150880000000  0.4983920000000  0.4677240000000 1.0
C      1  0.4284740000000  0.4521820000000  0.4700230000000 1.0
C      1  0.5309290000000  0.5203720000000  0.5044570000000 1.0
C      1  0.5126390000000  0.5383050000000  0.4956720000000 1.0
C      1  0.4908240000000  0.5231030000000  0.4887620000000 1.0
C      1  0.4761810000000  0.5157220000000  0.5116680000000 1.0
C      1  0.4565830000000  0.4978700000000  0.5070900000000 1.0
C      1  0.4639260000000  0.4761520000000  0.4951340000000 1.0
C      1  0.4894090000000  0.4730600000000  0.4879340000000 1.0
C      1  0.5052230000000  0.4616480000000  0.5066170000000 1.0
C      1  0.5242640000000  0.4798550000000  0.5118170000000 1.0
C      1  0.5305280000000  0.4957890000000  0.4881740000000 1.0
C      1  0.5181260000000  0.5045180000000  0.5270890000000 1.0
C      1  0.4276740000000  0.4765180000000  0.4558620000000 1.0
C      1  0.4505330000000  0.4404780000000  0.4574400000000 1.0
C      1  0.4903370000000  0.4227030000000  0.4600190000000 1.0
C      1  0.5320880000000  0.4303900000000  0.4627700000000 1.0
C      1  0.5646190000000  0.4574270000000  0.4619700000000 1.0
C      1  0.5782850000000  0.4982790000000  0.4593720000000 1.0
C      1  0.5667630000000  0.5395100000000  0.4578680000000 1.0
C      1  0.5341180000000  0.5681560000000  0.4572940000000 1.0
C      1  0.4920420000000  0.5739910000000  0.4573970000000 1.0
C      1  0.4531350000000  0.5553650000000  0.4577680000000 1.0
C      1  0.4298230000000  0.5197030000000  0.4572120000000 1.0
C      1  0.4927520000000  0.5106630000000  0.5356210000000 1.0
C      1  0.4873290000000  0.5283560000000  0.5578950000000 1.0
C      1  0.5027370000000  0.4973310000000  0.4744790000000 1.0
END
