TITL C-237552-9953-4 39.6172455552334 125000 -22.9478185890541 0 0 4 (D(inf)h) n - 1
REM
REM in /rds/project/t2_vol4/rds-t2-cs072/BORA/CARBON/from-Arr/AIRSS/Generating-Clusters/GAP-ML-2020/Higher-Symm/SD-CG/HFTN-CG
REM
REM
REM
REM
REM
REM ./C.cell (b20cbc046b6831c77cfcea5457e17084)
REM AIRSS Version 0.9.1 bugfix July 2018 build 013d7b7c2542+ Fri, 06 Jul 2018 19:26:36 +0100
REM compiler GCC version 9.3.0
REM options -cpp -mtune=generic -march=x86-64 -g -O0
REM seed -1442302825 -2055702270 -388897043 1397928814 2140065992 -227852836 -603322720 1270528032 -124358660 827263913 1472970149 -465685559 702035892 -221751082 1443852816 1818407419 2074764217 -1566112048 -909434078 195690534 1450029870 1576689409 -892869428 205102354 -647691812 -1426939815 -1663729519 -1836478928 -851017870 -587356633 1442170660 -1903080949 1101457078
REM
CELL 1.54180   50.00000   50.00000   50.00000   90.00000   90.00000   90.00000
LATT -1
SFAC C  
C      1  0.4865340000000  0.5025300000000  0.4999720000000 1.0
C      1  0.5134660000000  0.5025300000000  0.4999720000000 1.0
C      1  0.4611370000000  0.5025300000000  0.4999720000000 1.0
C      1  0.5388630000000  0.5025300000000  0.4999720000000 1.0
END
