TITL C-239795-2269-9 1.41418292416815 125000 -65.1308445830804 0 0 10 (D10) n - 1
REM
REM in /rds/project/t2_vol4/rds-t2-cs072/BORA/CARBON/from-Arr/AIRSS/Generating-Clusters/GAP-ML-2020/Higher-Symm/SD-CG/HFTN-CG
REM
REM
REM
REM
REM
REM ./C.cell (b20cbc046b6831c77cfcea5457e17084)
REM AIRSS Version 0.9.1 bugfix July 2018 build 013d7b7c2542+ Fri, 06 Jul 2018 19:26:36 +0100
REM compiler GCC version 9.3.0
REM options -cpp -mtune=generic -march=x86-64 -g -O0
REM seed -1806871578 -1805846439 -897520243 90484996 662429938 -1414522433 -724386582 815543805 -469376730 -1713388536 1475587287 782412474 1021336284 -1622214504 884344167 1515026044 162064168 1511826741 125431593 1333543585 -1361629049 -1351913667 848174947 828782812 189363035 2020332761 -2133212738 1782674527 -1964284051 1622072270 176213709 1556463183 -340500206
REM
CELL 1.54180   50.00000   50.00000   50.00000   90.00000   90.00000   90.00000
LATT -1
SFAC C  
C      1  0.5000000000000  0.4589880000000  0.5133250000000 1.0
C      1  0.5000000000000  0.4746530000000  0.4651140000000 1.0
C      1  0.5000000000000  0.5253470000000  0.4651140000000 1.0
C      1  0.5000000000000  0.5410120000000  0.5133250000000 1.0
C      1  0.5000000000000  0.5000000000000  0.5431220000000 1.0
C      1  0.5000000000000  0.4589880000000  0.4866750000000 1.0
C      1  0.5000000000000  0.4746530000000  0.5348860000000 1.0
C      1  0.5000000000000  0.5253470000000  0.5348860000000 1.0
C      1  0.5000000000000  0.5410120000000  0.4866750000000 1.0
C      1  0.5000000000000  0.5000000000000  0.4568780000000 1.0
END
