TITL C-234784-4837-2 0.00278436252624207 125000 -176.745887126633 0 0 28 (C2) n - 1
REM
REM in /rds/project/t2_vol4/rds-t2-cs072/BORA/CARBON/from-Arr/AIRSS/Generating-Clusters/GAP-ML-2020/Higher-Symm/SD-CG/HFTN-CG
REM
REM
REM
REM
REM
REM ./C.cell (b20cbc046b6831c77cfcea5457e17084)
REM AIRSS Version 0.9.1 bugfix July 2018 build 013d7b7c2542+ Fri, 06 Jul 2018 19:26:36 +0100
REM compiler GCC version 9.3.0
REM options -cpp -mtune=generic -march=x86-64 -g -O0
REM seed -938777985 -1991363655 957424776 778955266 1016173300 -535899932 -1966133339 877531822 -1240259891 1997020412 -1292351066 1907594043 1532668103 1440292466 989731727 864537117 -828834824 -1203920589 -2075728046 789201460 890643790 -1192176628 1351449023 -102560600 1849525847 -1994224904 -1190283364 1722932514 1129910092 -1822992425 -2063040887 -1129039574 -259233818
REM
CELL 1.54180   50.00000   50.00000   50.00000   90.00000   90.00000   90.00000
LATT -1
SFAC C  
C      1  0.4849740000000  0.5038100000000  0.4862560000000 1.0
C      1  0.5148660000000  0.4961790000000  0.4860860000000 1.0
C      1  0.4785110000000  0.5059870000000  0.5155770000000 1.0
C      1  0.5216680000000  0.4940250000000  0.5153320000000 1.0
C      1  0.4935570000000  0.5505660000000  0.5145820000000 1.0
C      1  0.5066110000000  0.4494450000000  0.5145440000000 1.0
C      1  0.4921360000000  0.5514330000000  0.4855840000000 1.0
C      1  0.5076970000000  0.4485560000000  0.4855320000000 1.0
C      1  0.5086160000000  0.4804890000000  0.5603590000000 1.0
C      1  0.4920820000000  0.5195560000000  0.5604400000000 1.0
C      1  0.5086660000000  0.4803210000000  0.4401730000000 1.0
C      1  0.4906430000000  0.5196340000000  0.4402630000000 1.0
C      1  0.4914000000000  0.5278010000000  0.4700070000000 1.0
C      1  0.5082530000000  0.4721760000000  0.4699310000000 1.0
C      1  0.4927830000000  0.5272500000000  0.5296730000000 1.0
C      1  0.5075590000000  0.4727720000000  0.5296080000000 1.0
C      1  0.4802760000000  0.4350680000000  0.5122220000000 1.0
C      1  0.5198630000000  0.5649410000000  0.5119440000000 1.0
C      1  0.4818600000000  0.4326240000000  0.4862000000000 1.0
C      1  0.5179790000000  0.5673650000000  0.4859410000000 1.0
C      1  0.5221560000000  0.5167080000000  0.5322330000000 1.0
C      1  0.4782180000000  0.4833160000000  0.5325000000000 1.0
C      1  0.5206340000000  0.5177890000000  0.4672010000000 1.0
C      1  0.4789890000000  0.4821860000000  0.4674550000000 1.0
C      1  0.4813230000000  0.4907560000000  0.4396790000000 1.0
C      1  0.5179790000000  0.5091980000000  0.4394600000000 1.0
C      1  0.4817470000000  0.4912910000000  0.5607200000000 1.0
C      1  0.5189530000000  0.5087550000000  0.5604990000000 1.0
END
