TITL C-233934-2159-8 149.065270537472 27000 -1133.38654579545 0 0 160 (C1) n - 1
REM
REM in /rds/project/t2_vol4/rds-t2-cs072/BORA/CARBON/from-Arr/AIRSS/Generating-Clusters/GAP-ML-2020/Higher-Symm/SD-CG/HFTN-CG/Box-30A
REM
REM
REM
REM
REM
REM ./C.cell (13fc22856271072ba132eecf8fb47ea5)
REM AIRSS Version 0.9.1 bugfix July 2018 build 013d7b7c2542+ Fri, 06 Jul 2018 19:26:36 +0100
REM compiler GCC version 9.3.0
REM options -cpp -mtune=generic -march=x86-64 -g -O0
REM seed -1114986611 1729799046 -717318185 871133605 -1961049741 -891793130 698006941 647503538 1075085764 1308134934 2029932739 864972535 -1473800630 1951795066 -434207222 -653219389 489595477 -73511079 -202106316 1366881778 285047112 739802338 -1029883942 476808663 372002238 1014646347 758668507 -1829777950 -1382463146 722047464 -1285608619 -2092723118 623069592
REM
CELL 1.54180   30.00000   30.00000   30.00000   90.00000   90.00000   90.00000
LATT -1
SFAC C  
C      1  0.3469920000000  0.5168890000000  0.5553220000000 1.0
C      1  0.3835930000000  0.4012580000000  0.5588760000000 1.0
C      1  0.4872660000000  0.3470430000000  0.5597530000000 1.0
C      1  0.5982380000000  0.3818770000000  0.5600680000000 1.0
C      1  0.6545570000000  0.4817790000000  0.5563570000000 1.0
C      1  0.6186680000000  0.5967570000000  0.5608630000000 1.0
C      1  0.5188590000000  0.6542300000000  0.5566640000000 1.0
C      1  0.4036440000000  0.6175220000000  0.5582630000000 1.0
C      1  0.3759020000000  0.5598520000000  0.4160910000000 1.0
C      1  0.3722590000000  0.4685030000000  0.4121600000000 1.0
C      1  0.4272500000000  0.3913920000000  0.4145200000000 1.0
C      1  0.5188140000000  0.3706380000000  0.4160440000000 1.0
C      1  0.6218170000000  0.4398520000000  0.4176620000000 1.0
C      1  0.6263570000000  0.5317600000000  0.4139090000000 1.0
C      1  0.5688310000000  0.6099510000000  0.4198320000000 1.0
C      1  0.4772800000000  0.6295390000000  0.4136640000000 1.0
C      1  0.5351890000000  0.3350280000000  0.5635600000000 1.0
C      1  0.6403670000000  0.4050160000000  0.5673970000000 1.0
C      1  0.6617890000000  0.5306180000000  0.5587990000000 1.0
C      1  0.5951800000000  0.6383520000000  0.5688410000000 1.0
C      1  0.4696850000000  0.6607220000000  0.5578100000000 1.0
C      1  0.3622290000000  0.5935180000000  0.5664130000000 1.0
C      1  0.3399860000000  0.4676430000000  0.5579680000000 1.0
C      1  0.4096460000000  0.3593830000000  0.5637200000000 1.0
C      1  0.4650250000000  0.5525280000000  0.4277100000000 1.0
C      1  0.4394610000000  0.5143420000000  0.4388390000000 1.0
C      1  0.4487130000000  0.4673910000000  0.4278330000000 1.0
C      1  0.4850970000000  0.4409320000000  0.4408390000000 1.0
C      1  0.5330270000000  0.4466530000000  0.4277410000000 1.0
C      1  0.5590730000000  0.4852480000000  0.4400690000000 1.0
C      1  0.5498020000000  0.5321530000000  0.4286830000000 1.0
C      1  0.5126910000000  0.5583330000000  0.4399590000000 1.0
C      1  0.5982270000000  0.6644740000000  0.5310570000000 1.0
C      1  0.4474740000000  0.6743730000000  0.5196150000000 1.0
C      1  0.3344790000000  0.5980250000000  0.5296020000000 1.0
C      1  0.3257800000000  0.4453370000000  0.5206730000000 1.0
C      1  0.4143140000000  0.3374130000000  0.5235640000000 1.0
C      1  0.5532930000000  0.3247300000000  0.5224000000000 1.0
C      1  0.6667290000000  0.3996810000000  0.5293850000000 1.0
C      1  0.6755120000000  0.5528350000000  0.5210390000000 1.0
C      1  0.5614800000000  0.4904340000000  0.3270540000000 1.0
C      1  0.5499730000000  0.5370590000000  0.3267380000000 1.0
C      1  0.5091090000000  0.5617130000000  0.3268830000000 1.0
C      1  0.4621290000000  0.5511000000000  0.3278530000000 1.0
C      1  0.4372920000000  0.5105910000000  0.3256970000000 1.0
C      1  0.4488670000000  0.4642000000000  0.3249170000000 1.0
C      1  0.4898780000000  0.4394990000000  0.3264210000000 1.0
C      1  0.5367230000000  0.4498390000000  0.3287180000000 1.0
C      1  0.4980210000000  0.5608140000000  0.6648140000000 1.0
C      1  0.4551860000000  0.5412080000000  0.6643500000000 1.0
C      1  0.4387690000000  0.4968740000000  0.6650840000000 1.0
C      1  0.4584490000000  0.4538950000000  0.6656750000000 1.0
C      1  0.5030690000000  0.4376030000000  0.6661440000000 1.0
C      1  0.5460990000000  0.4573780000000  0.6660000000000 1.0
C      1  0.5623740000000  0.5017930000000  0.6658710000000 1.0
C      1  0.5425360000000  0.5446770000000  0.6653600000000 1.0
C      1  0.4010720000000  0.3679520000000  0.4510580000000 1.0
C      1  0.5201100000000  0.3383100000000  0.4536050000000 1.0
C      1  0.6270920000000  0.4083110000000  0.4542860000000 1.0
C      1  0.6605130000000  0.5320940000000  0.4509340000000 1.0
C      1  0.5969180000000  0.6324070000000  0.4552940000000 1.0
C      1  0.4721320000000  0.6604640000000  0.4519510000000 1.0
C      1  0.3686560000000  0.5913650000000  0.4523520000000 1.0
C      1  0.3389170000000  0.4670350000000  0.4500450000000 1.0
C      1  0.6104420000000  0.4851680000000  0.4353830000000 1.0
C      1  0.5921880000000  0.5638730000000  0.4339400000000 1.0
C      1  0.5199530000000  0.6083230000000  0.4358520000000 1.0
C      1  0.4440140000000  0.5992860000000  0.4338120000000 1.0
C      1  0.3883420000000  0.5147280000000  0.4339540000000 1.0
C      1  0.4062150000000  0.4368290000000  0.4314760000000 1.0
C      1  0.4738420000000  0.3892940000000  0.4345410000000 1.0
C      1  0.5519610000000  0.4005340000000  0.4360610000000 1.0
C      1  0.6141910000000  0.4576970000000  0.6273280000000 1.0
C      1  0.6109690000000  0.5497310000000  0.6282140000000 1.0
C      1  0.5420840000000  0.6130340000000  0.6276710000000 1.0
C      1  0.4500710000000  0.6096340000000  0.6268410000000 1.0
C      1  0.3870590000000  0.5408030000000  0.6263640000000 1.0
C      1  0.3904340000000  0.4483040000000  0.6275110000000 1.0
C      1  0.4589970000000  0.3851390000000  0.6289020000000 1.0
C      1  0.5515880000000  0.3891840000000  0.6286280000000 1.0
C      1  0.5706790000000  0.5750140000000  0.6426860000000 1.0
C      1  0.4964750000000  0.6023790000000  0.6420790000000 1.0
C      1  0.4249480000000  0.5692900000000  0.6413530000000 1.0
C      1  0.3974570000000  0.4951890000000  0.6418060000000 1.0
C      1  0.4303630000000  0.4232120000000  0.6431040000000 1.0
C      1  0.5047950000000  0.3960030000000  0.6436610000000 1.0
C      1  0.5764960000000  0.4293430000000  0.6431300000000 1.0
C      1  0.6038670000000  0.5032620000000  0.6429300000000 1.0
C      1  0.4455770000000  0.5286810000000  0.4869190000000 1.0
C      1  0.4430090000000  0.4848880000000  0.5054780000000 1.0
C      1  0.4721800000000  0.4489900000000  0.4884320000000 1.0
C      1  0.5164790000000  0.4483420000000  0.5035460000000 1.0
C      1  0.5546770000000  0.4729180000000  0.4884210000000 1.0
C      1  0.5566110000000  0.5171290000000  0.5065170000000 1.0
C      1  0.5287700000000  0.5537840000000  0.4880730000000 1.0
C      1  0.4841660000000  0.5551080000000  0.5044370000000 1.0
C      1  0.4357140000000  0.4006250000000  0.3673120000000 1.0
C      1  0.5239210000000  0.3853120000000  0.3696760000000 1.0
C      1  0.6010900000000  0.4403570000000  0.3731670000000 1.0
C      1  0.6150850000000  0.5286580000000  0.3676550000000 1.0
C      1  0.5614760000000  0.6005100000000  0.3710610000000 1.0
C      1  0.4731870000000  0.6159020000000  0.3680060000000 1.0
C      1  0.3969680000000  0.5600820000000  0.3716670000000 1.0
C      1  0.3830200000000  0.4720240000000  0.3656000000000 1.0
C      1  0.3425150000000  0.5768210000000  0.4914700000000 1.0
C      1  0.3343740000000  0.4298970000000  0.4783780000000 1.0
C      1  0.4282170000000  0.3404000000000  0.4807550000000 1.0
C      1  0.5596940000000  0.3375160000000  0.4800030000000 1.0
C      1  0.6548800000000  0.4216360000000  0.4925500000000 1.0
C      1  0.6663170000000  0.5688700000000  0.4790740000000 1.0
C      1  0.5789350000000  0.6592250000000  0.4914960000000 1.0
C      1  0.4332130000000  0.6652220000000  0.4774290000000 1.0
C      1  0.4482830000000  0.4872680000000  0.5548490000000 1.0
C      1  0.4695120000000  0.4467920000000  0.5641190000000 1.0
C      1  0.5166520000000  0.4443530000000  0.5557560000000 1.0
C      1  0.5556980000000  0.4701830000000  0.5648140000000 1.0
C      1  0.5520150000000  0.5159200000000  0.5555570000000 1.0
C      1  0.5309330000000  0.5565960000000  0.5640960000000 1.0
C      1  0.4851010000000  0.5542520000000  0.5532790000000 1.0
C      1  0.4448080000000  0.5327710000000  0.5633870000000 1.0
C      1  0.3615810000000  0.5335640000000  0.5105760000000 1.0
C      1  0.4014290000000  0.4198920000000  0.5165110000000 1.0
C      1  0.4859530000000  0.3767780000000  0.5201670000000 1.0
C      1  0.5771210000000  0.4021490000000  0.5195700000000 1.0
C      1  0.6383230000000  0.4658450000000  0.5119200000000 1.0
C      1  0.6003670000000  0.5799130000000  0.5178660000000 1.0
C      1  0.5364580000000  0.6391350000000  0.5122060000000 1.0
C      1  0.4211570000000  0.5995700000000  0.5146770000000 1.0
C      1  0.5849160000000  0.3851230000000  0.4708850000000 1.0
C      1  0.6320620000000  0.5017030000000  0.4785320000000 1.0
C      1  0.6193020000000  0.5919810000000  0.4738740000000 1.0
C      1  0.5019100000000  0.6311640000000  0.4789610000000 1.0
C      1  0.4098560000000  0.6160800000000  0.4683580000000 1.0
C      1  0.3674230000000  0.4978410000000  0.4771830000000 1.0
C      1  0.3808120000000  0.4077940000000  0.4727450000000 1.0
C      1  0.4772900000000  0.3550500000000  0.4744290000000 1.0
C      1  0.5507940000000  0.5887150000000  0.5203110000000 1.0
C      1  0.4707660000000  0.6002420000000  0.5075620000000 1.0
C      1  0.4120280000000  0.5503090000000  0.5183320000000 1.0
C      1  0.3985650000000  0.4692760000000  0.5069030000000 1.0
C      1  0.4527710000000  0.4152460000000  0.5220990000000 1.0
C      1  0.5272920000000  0.4067950000000  0.5240540000000 1.0
C      1  0.5879390000000  0.4512410000000  0.5213140000000 1.0
C      1  0.6015440000000  0.5312050000000  0.5084360000000 1.0
C      1  0.5594430000000  0.4177300000000  0.3553750000000 1.0
C      1  0.6017940000000  0.4842140000000  0.3516530000000 1.0
C      1  0.5828240000000  0.5614180000000  0.3511730000000 1.0
C      1  0.5165700000000  0.6020640000000  0.3510320000000 1.0
C      1  0.4384920000000  0.5829220000000  0.3538250000000 1.0
C      1  0.3966150000000  0.5164950000000  0.3499410000000 1.0
C      1  0.4150360000000  0.4397950000000  0.3478200000000 1.0
C      1  0.4818640000000  0.3991290000000  0.3501980000000 1.0
C      1  0.5517210000000  0.6413030000000  0.5899140000000 1.0
C      1  0.4379560000000  0.6346640000000  0.5870260000000 1.0
C      1  0.3592910000000  0.5503240000000  0.5881190000000 1.0
C      1  0.3663390000000  0.4357680000000  0.5873260000000 1.0
C      1  0.4512500000000  0.3575770000000  0.5899540000000 1.0
C      1  0.5654270000000  0.3632470000000  0.5902110000000 1.0
C      1  0.6427540000000  0.4482430000000  0.5893350000000 1.0
C      1  0.6360030000000  0.5620200000000  0.5887450000000 1.0
END
