TITL C-234682-220-9 -125.932256523277 125000 -776.689720535067 0 0 108 (C1) n - 1
REM
REM in /rds/project/t2_vol4/rds-t2-cs072/BORA/CARBON/from-Arr/AIRSS/Generating-Clusters/GAP-ML-2020/Higher-Symm/SD-CG/HFTN-CG
REM
REM
REM
REM
REM
REM ./C.cell (b20cbc046b6831c77cfcea5457e17084)
REM AIRSS Version 0.9.1 bugfix July 2018 build 013d7b7c2542+ Fri, 06 Jul 2018 19:26:36 +0100
REM compiler GCC version 9.3.0
REM options -cpp -mtune=generic -march=x86-64 -g -O0
REM seed -2146044788 1209728763 -274160350 -1973865183 956881718 1319444520 95881348 -1087589755 467198848 1237790327 -681967583 -1977949535 -120585027 903224627 1912512656 -1758141249 -1201852875 -532935688 -1950449446 545266917 1724740243 -546556205 1100551227 -1670057892 1251573569 -493783222 -1283703671 2102305762 -1239590897 -1198862825 1471781116 -2042403040 605880074
REM
CELL 1.54180   50.00000   50.00000   50.00000   90.00000   90.00000   90.00000
LATT -1
SFAC C  
C      1  0.4645600000000  0.4925530000000  0.4917450000000 1.0
C      1  0.4768310000000  0.4839940000000  0.5164980000000 1.0
C      1  0.5197980000000  0.4940860000000  0.5304970000000 1.0
C      1  0.5380410000000  0.4983820000000  0.5084140000000 1.0
C      1  0.5230280000000  0.4836630000000  0.4893330000000 1.0
C      1  0.5102650000000  0.4951000000000  0.4673500000000 1.0
C      1  0.4817180000000  0.4960470000000  0.4691050000000 1.0
C      1  0.5320500000000  0.5048910000000  0.5859920000000 1.0
C      1  0.5895650000000  0.5064540000000  0.5287200000000 1.0
C      1  0.5775620000000  0.5090820000000  0.4482090000000 1.0
C      1  0.5067500000000  0.5073430000000  0.4066280000000 1.0
C      1  0.4322020000000  0.5059760000000  0.4351610000000 1.0
C      1  0.4059370000000  0.5067900000000  0.5103320000000 1.0
C      1  0.4506940000000  0.5082180000000  0.5785410000000 1.0
C      1  0.5341340000000  0.5827780000000  0.4982440000000 1.0
C      1  0.5209700000000  0.5833640000000  0.4715710000000 1.0
C      1  0.4923950000000  0.5809210000000  0.4664230000000 1.0
C      1  0.4698580000000  0.5795450000000  0.4850930000000 1.0
C      1  0.4694370000000  0.5807140000000  0.5141360000000 1.0
C      1  0.4925720000000  0.5804620000000  0.5318690000000 1.0
C      1  0.5207680000000  0.5794460000000  0.5243250000000 1.0
C      1  0.4989930000000  0.4442900000000  0.5640450000000 1.0
C      1  0.5551920000000  0.4435240000000  0.5330800000000 1.0
C      1  0.5642000000000  0.4448370000000  0.4783200000000 1.0
C      1  0.5238250000000  0.4453020000000  0.4403880000000 1.0
C      1  0.4687270000000  0.4445370000000  0.4453880000000 1.0
C      1  0.4353430000000  0.4444230000000  0.4895950000000 1.0
C      1  0.4469350000000  0.4447600000000  0.5435960000000 1.0
C      1  0.4056050000000  0.4814640000000  0.4974420000000 1.0
C      1  0.4393040000000  0.4837550000000  0.5699930000000 1.0
C      1  0.5178590000000  0.4805140000000  0.5876140000000 1.0
C      1  0.5834350000000  0.4810050000000  0.5401520000000 1.0
C      1  0.5831520000000  0.4842360000000  0.4600770000000 1.0
C      1  0.5203620000000  0.4827980000000  0.4104320000000 1.0
C      1  0.4425870000000  0.4807340000000  0.4269310000000 1.0
C      1  0.4785990000000  0.5045420000000  0.4050240000000 1.0
C      1  0.4130340000000  0.5046000000000  0.4558220000000 1.0
C      1  0.4117970000000  0.5070340000000  0.5378030000000 1.0
C      1  0.4757560000000  0.5060220000000  0.5914260000000 1.0
C      1  0.5577490000000  0.5029060000000  0.5743600000000 1.0
C      1  0.5963330000000  0.5060780000000  0.5012210000000 1.0
C      1  0.5601870000000  0.5066200000000  0.4261030000000 1.0
C      1  0.5385110000000  0.4331420000000  0.4848800000000 1.0
C      1  0.5143890000000  0.4346640000000  0.4659940000000 1.0
C      1  0.4826960000000  0.4348400000000  0.4701910000000 1.0
C      1  0.4622270000000  0.4343880000000  0.4950850000000 1.0
C      1  0.4657580000000  0.4328550000000  0.5254060000000 1.0
C      1  0.4916120000000  0.4328650000000  0.5384830000000 1.0
C      1  0.5360130000000  0.4335310000000  0.5137120000000 1.0
C      1  0.4512780000000  0.5606610000000  0.4763270000000 1.0
C      1  0.4502410000000  0.5621900000000  0.5244990000000 1.0
C      1  0.4873710000000  0.5619020000000  0.5530860000000 1.0
C      1  0.5340290000000  0.5597210000000  0.5396270000000 1.0
C      1  0.5570880000000  0.5666570000000  0.4969250000000 1.0
C      1  0.5345730000000  0.5665300000000  0.4529840000000 1.0
C      1  0.4876490000000  0.5630060000000  0.4451380000000 1.0
C      1  0.4623760000000  0.5266130000000  0.4074840000000 1.0
C      1  0.4063870000000  0.5272640000000  0.4698870000000 1.0
C      1  0.4215790000000  0.5296830000000  0.5493010000000 1.0
C      1  0.4914750000000  0.5279960000000  0.5910960000000 1.0
C      1  0.5674330000000  0.5250670000000  0.5620850000000 1.0
C      1  0.5922520000000  0.5289100000000  0.4869240000000 1.0
C      1  0.5465670000000  0.5287020000000  0.4191700000000 1.0
C      1  0.5789700000000  0.5336490000000  0.4639770000000 1.0
C      1  0.5201210000000  0.5321440000000  0.4153500000000 1.0
C      1  0.4488560000000  0.5300610000000  0.4307970000000 1.0
C      1  0.4140580000000  0.5305300000000  0.4955940000000 1.0
C      1  0.4437200000000  0.5330160000000  0.5642980000000 1.0
C      1  0.5165960000000  0.5293490000000  0.5817550000000 1.0
C      1  0.5759500000000  0.5307010000000  0.5374990000000 1.0
C      1  0.5925150000000  0.4820680000000  0.4863640000000 1.0
C      1  0.5465630000000  0.4822880000000  0.4202260000000 1.0
C      1  0.4666640000000  0.4797570000000  0.4127320000000 1.0
C      1  0.4101170000000  0.4799500000000  0.4697980000000 1.0
C      1  0.4202900000000  0.4829390000000  0.5494660000000 1.0
C      1  0.4898450000000  0.4815650000000  0.5904150000000 1.0
C      1  0.5661840000000  0.4785290000000  0.5623930000000 1.0
C      1  0.5820020000000  0.4579170000000  0.4969910000000 1.0
C      1  0.5490600000000  0.4587950000000  0.4359670000000 1.0
C      1  0.4810420000000  0.4569910000000  0.4224340000000 1.0
C      1  0.4261190000000  0.4566080000000  0.4651680000000 1.0
C      1  0.4240660000000  0.4588650000000  0.5348910000000 1.0
C      1  0.4791660000000  0.4585380000000  0.5781450000000 1.0
C      1  0.5486590000000  0.4559220000000  0.5585930000000 1.0
C      1  0.4820460000000  0.5268480000000  0.4729240000000 1.0
C      1  0.4652410000000  0.5225210000000  0.4998400000000 1.0
C      1  0.4763320000000  0.5111040000000  0.5264070000000 1.0
C      1  0.5030910000000  0.5189900000000  0.5336880000000 1.0
C      1  0.5381100000000  0.5266830000000  0.5034170000000 1.0
C      1  0.5370410000000  0.5319290000000  0.4759610000000 1.0
C      1  0.5124260000000  0.5254680000000  0.4637680000000 1.0
C      1  0.4538910000000  0.4590480000000  0.5676910000000 1.0
C      1  0.5239980000000  0.4565860000000  0.5717620000000 1.0
C      1  0.5782440000000  0.4574100000000  0.5241390000000 1.0
C      1  0.5686420000000  0.4598600000000  0.4548420000000 1.0
C      1  0.5081420000000  0.4580610000000  0.4201330000000 1.0
C      1  0.4426630000000  0.4566060000000  0.4435450000000 1.0
C      1  0.4179780000000  0.4577540000000  0.5084270000000 1.0
C      1  0.5557870000000  0.5471030000000  0.5214180000000 1.0
C      1  0.5564100000000  0.5534390000000  0.4684390000000 1.0
C      1  0.5132100000000  0.5504360000000  0.4378720000000 1.0
C      1  0.4635740000000  0.5462890000000  0.4528790000000 1.0
C      1  0.4407740000000  0.5449890000000  0.5005050000000 1.0
C      1  0.4594670000000  0.5535990000000  0.5510420000000 1.0
C      1  0.5129550000000  0.5440800000000  0.5557770000000 1.0
C      1  0.5094460000000  0.5340970000000  0.5092860000000 1.0
C      1  0.5100980000000  0.4421810000000  0.5199410000000 1.0
C      1  0.5043460000000  0.4727130000000  0.5145150000000 1.0
END
