TITL C-234790-5248-8 231.472069901487 125000 -636.23409346336 0 0 88 (C1) n - 1
REM
REM in /rds/project/t2_vol4/rds-t2-cs072/BORA/CARBON/from-Arr/AIRSS/Generating-Clusters/GAP-ML-2020/Higher-Symm/SD-CG/HFTN-CG
REM
REM
REM
REM
REM
REM ./C.cell (b20cbc046b6831c77cfcea5457e17084)
REM AIRSS Version 0.9.1 bugfix July 2018 build 013d7b7c2542+ Fri, 06 Jul 2018 19:26:36 +0100
REM compiler GCC version 9.3.0
REM options -cpp -mtune=generic -march=x86-64 -g -O0
REM seed -636014644 -1511461299 151500010 -622563361 779800300 -254569738 -717858254 -711456166 -539336057 -1152876052 2057630389 1550406156 491188384 -1173387390 -334589097 -256978874 -578278734 -1272913495 -1606569839 1078060032 -1908295220 1410168168 674841516 423047556 -1719327390 -1722954900 -439122290 -1691856545 55692719 -612343824 -376563004 480230854 -523359838
REM
CELL 1.54180   50.00000   50.00000   50.00000   90.00000   90.00000   90.00000
LATT -1
SFAC C  
C      1  0.4226810000000  0.5243360000000  0.5050180000000 1.0
C      1  0.4796860000000  0.5244510000000  0.5740330000000 1.0
C      1  0.5632710000000  0.5250350000000  0.5405510000000 1.0
C      1  0.5593470000000  0.5274130000000  0.4509070000000 1.0
C      1  0.4707570000000  0.5223350000000  0.4287650000000 1.0
C      1  0.5076650000000  0.5492500000000  0.4368130000000 1.0
C      1  0.4412740000000  0.5515710000000  0.4716280000000 1.0
C      1  0.4538880000000  0.5510800000000  0.5454700000000 1.0
C      1  0.5278120000000  0.5519100000000  0.5562150000000 1.0
C      1  0.5622820000000  0.5553940000000  0.4897420000000 1.0
C      1  0.4466610000000  0.4594630000000  0.4867400000000 1.0
C      1  0.4640200000000  0.4520690000000  0.5516440000000 1.0
C      1  0.5359410000000  0.4534490000000  0.5474360000000 1.0
C      1  0.5573080000000  0.4417840000000  0.4782000000000 1.0
C      1  0.4982060000000  0.4517840000000  0.4364380000000 1.0
C      1  0.4572720000000  0.5081710000000  0.5650420000000 1.0
C      1  0.5466830000000  0.5088600000000  0.5584460000000 1.0
C      1  0.5771710000000  0.5155490000000  0.4705710000000 1.0
C      1  0.4951890000000  0.5055870000000  0.4228490000000 1.0
C      1  0.4238830000000  0.5090440000000  0.4800530000000 1.0
C      1  0.5814910000000  0.4887890000000  0.5092220000000 1.0
C      1  0.5359930000000  0.4847520000000  0.4311860000000 1.0
C      1  0.4417150000000  0.4863580000000  0.4451850000000 1.0
C      1  0.4289790000000  0.4845890000000  0.5370820000000 1.0
C      1  0.5108010000000  0.4859060000000  0.5769630000000 1.0
C      1  0.5054050000000  0.5140630000000  0.5799150000000 1.0
C      1  0.5787190000000  0.5166470000000  0.5179090000000 1.0
C      1  0.5418010000000  0.5134960000000  0.4319080000000 1.0
C      1  0.4454090000000  0.5141920000000  0.4384670000000 1.0
C      1  0.4251470000000  0.5128260000000  0.5311680000000 1.0
C      1  0.4814000000000  0.5753730000000  0.4804110000000 1.0
C      1  0.4753420000000  0.5760050000000  0.5089790000000 1.0
C      1  0.4999350000000  0.5768090000000  0.5254830000000 1.0
C      1  0.5247870000000  0.5801330000000  0.5106910000000 1.0
C      1  0.5095030000000  0.5735490000000  0.4767400000000 1.0
C      1  0.5167740000000  0.5248830000000  0.4254100000000 1.0
C      1  0.4326460000000  0.5274630000000  0.4598610000000 1.0
C      1  0.4407420000000  0.5263590000000  0.5503930000000 1.0
C      1  0.5285430000000  0.5273560000000  0.5707010000000 1.0
C      1  0.5783200000000  0.5323530000000  0.4937640000000 1.0
C      1  0.5808120000000  0.4885900000000  0.4798700000000 1.0
C      1  0.5077930000000  0.4783750000000  0.4266380000000 1.0
C      1  0.4322460000000  0.4821970000000  0.4719570000000 1.0
C      1  0.4564470000000  0.4820360000000  0.5488480000000 1.0
C      1  0.5304240000000  0.4827010000000  0.5547590000000 1.0
C      1  0.5051840000000  0.4211780000000  0.4769970000000 1.0
C      1  0.4779470000000  0.4231380000000  0.4849200000000 1.0
C      1  0.4768990000000  0.4240630000000  0.5137300000000 1.0
C      1  0.5038810000000  0.4236800000000  0.5235860000000 1.0
C      1  0.5213040000000  0.4217400000000  0.5010290000000 1.0
C      1  0.5019700000000  0.5638590000000  0.5511720000000 1.0
C      1  0.5501100000000  0.5670920000000  0.5140310000000 1.0
C      1  0.5243760000000  0.5626060000000  0.4553900000000 1.0
C      1  0.4654530000000  0.5620880000000  0.4609550000000 1.0
C      1  0.4517250000000  0.5631810000000  0.5192650000000 1.0
C      1  0.4791150000000  0.5480470000000  0.4392650000000 1.0
C      1  0.4348990000000  0.5502660000000  0.4998410000000 1.0
C      1  0.4783440000000  0.5503550000000  0.5607420000000 1.0
C      1  0.5503480000000  0.5512290000000  0.5381620000000 1.0
C      1  0.5500200000000  0.5518870000000  0.4630500000000 1.0
C      1  0.5743930000000  0.4663970000000  0.5224370000000 1.0
C      1  0.5515830000000  0.4655500000000  0.4445430000000 1.0
C      1  0.4591390000000  0.4698630000000  0.4342330000000 1.0
C      1  0.4164610000000  0.4620120000000  0.5274540000000 1.0
C      1  0.4947070000000  0.4656310000000  0.5827270000000 1.0
C      1  0.5226320000000  0.5286910000000  0.5035250000000 1.0
C      1  0.4974510000000  0.5031090000000  0.4732480000000 1.0
C      1  0.4780750000000  0.5177370000000  0.4851360000000 1.0
C      1  0.4791420000000  0.5146350000000  0.5121690000000 1.0
C      1  0.5056480000000  0.5176510000000  0.5220100000000 1.0
C      1  0.4892810000000  0.4472230000000  0.5630960000000 1.0
C      1  0.5548720000000  0.4480460000000  0.5269150000000 1.0
C      1  0.5408410000000  0.4407980000000  0.4544980000000 1.0
C      1  0.4708520000000  0.4483000000000  0.4444270000000 1.0
C      1  0.4357210000000  0.4489300000000  0.5126790000000 1.0
C      1  0.5473810000000  0.4326580000000  0.5029400000000 1.0
C      1  0.5143250000000  0.4339550000000  0.4525970000000 1.0
C      1  0.4601580000000  0.4385020000000  0.4691980000000 1.0
C      1  0.4565190000000  0.4368470000000  0.5286150000000 1.0
C      1  0.5116670000000  0.4377260000000  0.5473360000000 1.0
C      1  0.4973940000000  0.4754530000000  0.4843020000000 1.0
C      1  0.4742830000000  0.4714880000000  0.4991690000000 1.0
C      1  0.4771610000000  0.4868290000000  0.5231470000000 1.0
C      1  0.5090020000000  0.4884340000000  0.5275830000000 1.0
C      1  0.5701420000000  0.4658960000000  0.4674180000000 1.0
C      1  0.5237520000000  0.5072460000000  0.4863940000000 1.0
C      1  0.5201590000000  0.4813660000000  0.5010050000000 1.0
C      1  0.5150340000000  0.5566190000000  0.4988750000000 1.0
END
