TITL C-234778-4276-6 -5.81781507142104 125000 -439.18575876789 0 0 66 (C1) n - 1
REM
REM in /rds/project/t2_vol4/rds-t2-cs072/BORA/CARBON/from-Arr/AIRSS/Generating-Clusters/GAP-ML-2020/Higher-Symm/SD-CG/HFTN-CG
REM
REM
REM
REM
REM
REM ./C.cell (b20cbc046b6831c77cfcea5457e17084)
REM AIRSS Version 0.9.1 bugfix July 2018 build 013d7b7c2542+ Fri, 06 Jul 2018 19:26:36 +0100
REM compiler GCC version 9.3.0
REM options -cpp -mtune=generic -march=x86-64 -g -O0
REM seed -1198510585 -1862344993 1062234355 -1247932340 424980933 1275937989 1329657245 134644534 -1694825395 2132514710 -892098755 1722226424 1322165125 -502088501 -2050396000 -1222821262 497049182 382839787 -1900245711 -589040940 -1171009309 197168421 -1330741371 -1876106647 -604221934 272181222 1565088517 -851433583 -39167000 -684511697 92813231 36886904 -404587194
REM
CELL 1.54180   50.00000   50.00000   50.00000   90.00000   90.00000   90.00000
LATT -1
SFAC C  
C      1  0.4798940000000  0.4640540000000  0.4458930000000 1.0
C      1  0.5598370000000  0.4642140000000  0.5043060000000 1.0
C      1  0.4633100000000  0.4634000000000  0.5467960000000 1.0
C      1  0.4394990000000  0.4960890000000  0.4723140000000 1.0
C      1  0.5559540000000  0.4989120000000  0.4596330000000 1.0
C      1  0.5055610000000  0.4929780000000  0.5684290000000 1.0
C      1  0.4400200000000  0.5110070000000  0.5480450000000 1.0
C      1  0.4870660000000  0.5104620000000  0.4231720000000 1.0
C      1  0.5695230000000  0.5096480000000  0.5282300000000 1.0
C      1  0.5605260000000  0.4567440000000  0.5323390000000 1.0
C      1  0.4406050000000  0.4562030000000  0.5299170000000 1.0
C      1  0.5059080000000  0.4568310000000  0.4343080000000 1.0
C      1  0.5060870000000  0.4310050000000  0.4847130000000 1.0
C      1  0.5087000000000  0.4305080000000  0.5117740000000 1.0
C      1  0.4836910000000  0.4312810000000  0.5001410000000 1.0
C      1  0.4435690000000  0.4673610000000  0.5039980000000 1.0
C      1  0.5267100000000  0.4681130000000  0.4495500000000 1.0
C      1  0.5370300000000  0.4654940000000  0.5433870000000 1.0
C      1  0.4699360000000  0.5311220000000  0.4398000000000 1.0
C      1  0.5659710000000  0.5315130000000  0.5062160000000 1.0
C      1  0.4624840000000  0.5319120000000  0.5557000000000 1.0
C      1  0.5241500000000  0.5408610000000  0.4643580000000 1.0
C      1  0.5130190000000  0.5403650000000  0.5374420000000 1.0
C      1  0.4619150000000  0.5399570000000  0.4973380000000 1.0
C      1  0.5401990000000  0.5389900000000  0.5432860000000 1.0
C      1  0.4421960000000  0.5411610000000  0.5169660000000 1.0
C      1  0.5135770000000  0.5430380000000  0.4383420000000 1.0
C      1  0.5574870000000  0.4698550000000  0.4585820000000 1.0
C      1  0.4955150000000  0.4682510000000  0.5775470000000 1.0
C      1  0.4399350000000  0.4662400000000  0.4714860000000 1.0
C      1  0.5281140000000  0.4719650000000  0.4998790000000 1.0
C      1  0.4874340000000  0.4706330000000  0.5249720000000 1.0
C      1  0.4879040000000  0.4722950000000  0.4769780000000 1.0
C      1  0.5153280000000  0.5114470000000  0.4712940000000 1.0
C      1  0.5088800000000  0.5174140000000  0.5160950000000 1.0
C      1  0.4821240000000  0.5163880000000  0.5016640000000 1.0
C      1  0.5287290000000  0.4986920000000  0.4481060000000 1.0
C      1  0.5317830000000  0.4911910000000  0.5564180000000 1.0
C      1  0.4353390000000  0.4962030000000  0.5006490000000 1.0
C      1  0.5283570000000  0.5026210000000  0.4970380000000 1.0
C      1  0.4876160000000  0.5005390000000  0.5266350000000 1.0
C      1  0.4866630000000  0.5026390000000  0.4763860000000 1.0
C      1  0.4812780000000  0.5074930000000  0.5553590000000 1.0
C      1  0.4627620000000  0.5075040000000  0.4570870000000 1.0
C      1  0.5584330000000  0.5089850000000  0.4882860000000 1.0
C      1  0.4748760000000  0.4530280000000  0.5725560000000 1.0
C      1  0.4553900000000  0.4516270000000  0.4550720000000 1.0
C      1  0.5702660000000  0.4560210000000  0.4780320000000 1.0
C      1  0.4598690000000  0.5529810000000  0.5372810000000 1.0
C      1  0.4872490000000  0.5525180000000  0.4469770000000 1.0
C      1  0.5487550000000  0.5499640000000  0.5177470000000 1.0
C      1  0.4725060000000  0.4894580000000  0.4351890000000 1.0
C      1  0.5717980000000  0.4905610000000  0.5075580000000 1.0
C      1  0.4567870000000  0.4903760000000  0.5567540000000 1.0
C      1  0.5176470000000  0.5632210000000  0.4807900000000 1.0
C      1  0.5062130000000  0.5657030000000  0.5269030000000 1.0
C      1  0.4731630000000  0.5658380000000  0.4943210000000 1.0
C      1  0.5496470000000  0.5125200000000  0.5483060000000 1.0
C      1  0.4311480000000  0.5153350000000  0.5218500000000 1.0
C      1  0.5140900000000  0.5163730000000  0.4276260000000 1.0
C      1  0.4791250000000  0.5697630000000  0.5220780000000 1.0
C      1  0.4906400000000  0.5672640000000  0.4722630000000 1.0
C      1  0.5270670000000  0.5660070000000  0.5070760000000 1.0
C      1  0.5147320000000  0.4579300000000  0.5236340000000 1.0
C      1  0.4738580000000  0.4602420000000  0.5006620000000 1.0
C      1  0.5145540000000  0.4596920000000  0.4764680000000 1.0
END
