TITL C-234785-5171-7 -98.0451025021279 125000 -300.022986910091 0 0 44 (C1) n - 1
REM
REM in /rds/project/t2_vol4/rds-t2-cs072/BORA/CARBON/from-Arr/AIRSS/Generating-Clusters/GAP-ML-2020/Higher-Symm/SD-CG/HFTN-CG
REM
REM
REM
REM
REM
REM ./C.cell (b20cbc046b6831c77cfcea5457e17084)
REM AIRSS Version 0.9.1 bugfix July 2018 build 013d7b7c2542+ Fri, 06 Jul 2018 19:26:36 +0100
REM compiler GCC version 9.3.0
REM options -cpp -mtune=generic -march=x86-64 -g -O0
REM seed -830799788 -697930517 278408184 1306763454 -1377848932 167259700 -318091467 -1229881538 979305790 -1962441551 -945187383 2128467109 2141286678 374956864 -1594128505 1496076365 728810017 434201911 373152999 -563922863 1812011038 35395224 256732215 607156171 860709826 1350232963 1150521587 1225732187 -11336939 1115537806 771835075 -652053406 2070424010
REM
CELL 1.54180   50.00000   50.00000   50.00000   90.00000   90.00000   90.00000
LATT -1
SFAC C  
C      1  0.4415020000000  0.5368750000000  0.4887490000000 1.0
C      1  0.4266580000000  0.4858160000000  0.4895800000000 1.0
C      1  0.4390030000000  0.4609470000000  0.4916830000000 1.0
C      1  0.4797090000000  0.4483440000000  0.4745580000000 1.0
C      1  0.5170550000000  0.4276910000000  0.4929720000000 1.0
C      1  0.5434320000000  0.4367350000000  0.4900950000000 1.0
C      1  0.5644390000000  0.4874780000000  0.4844120000000 1.0
C      1  0.5634130000000  0.5155700000000  0.4845860000000 1.0
C      1  0.5321260000000  0.5627380000000  0.4899850000000 1.0
C      1  0.5129160000000  0.5809090000000  0.4984540000000 1.0
C      1  0.4631070000000  0.5551510000000  0.4884410000000 1.0
C      1  0.5031900000000  0.5487320000000  0.5383130000000 1.0
C      1  0.4743070000000  0.5416630000000  0.5355240000000 1.0
C      1  0.4536750000000  0.5235340000000  0.5357170000000 1.0
C      1  0.4465480000000  0.4954310000000  0.5352460000000 1.0
C      1  0.4615500000000  0.4716780000000  0.5349120000000 1.0
C      1  0.4883130000000  0.4713290000000  0.5409120000000 1.0
C      1  0.5084870000000  0.4537340000000  0.5347690000000 1.0
C      1  0.5356880000000  0.4610450000000  0.5342280000000 1.0
C      1  0.5491480000000  0.4869320000000  0.5323850000000 1.0
C      1  0.5466130000000  0.5142610000000  0.5329980000000 1.0
C      1  0.5287020000000  0.5385890000000  0.5349550000000 1.0
C      1  0.5074300000000  0.4430010000000  0.4692480000000 1.0
C      1  0.5342470000000  0.4534670000000  0.4658110000000 1.0
C      1  0.5471030000000  0.4780690000000  0.4622680000000 1.0
C      1  0.5394390000000  0.5015080000000  0.4475940000000 1.0
C      1  0.5463260000000  0.5242320000000  0.4623060000000 1.0
C      1  0.5277870000000  0.5455470000000  0.4665010000000 1.0
C      1  0.5016500000000  0.5414970000000  0.4584680000000 1.0
C      1  0.4765750000000  0.5397790000000  0.4660520000000 1.0
C      1  0.4534330000000  0.5199520000000  0.4675340000000 1.0
C      1  0.4471120000000  0.4931100000000  0.4668810000000 1.0
C      1  0.4576970000000  0.4659520000000  0.4692630000000 1.0
C      1  0.4755530000000  0.4388650000000  0.5018760000000 1.0
C      1  0.4999520000000  0.4333280000000  0.5146360000000 1.0
C      1  0.5529170000000  0.4496060000000  0.5129180000000 1.0
C      1  0.5651220000000  0.4750060000000  0.5094410000000 1.0
C      1  0.5605730000000  0.5277540000000  0.5097250000000 1.0
C      1  0.5442960000000  0.5506070000000  0.5123170000000 1.0
C      1  0.4980420000000  0.5720740000000  0.5184760000000 1.0
C      1  0.4719060000000  0.5625370000000  0.5139820000000 1.0
C      1  0.4327420000000  0.5273560000000  0.5135030000000 1.0
C      1  0.4266150000000  0.4997260000000  0.5137510000000 1.0
C      1  0.4539050000000  0.4518510000000  0.5139710000000 1.0
END
