TITL C-234696-266-4 -22.6570414381793 125000 -1392.97127660685 0 0 194 (C1) n - 1
REM
REM in /rds/project/t2_vol4/rds-t2-cs072/BORA/CARBON/from-Arr/AIRSS/Generating-Clusters/GAP-ML-2020/Higher-Symm/SD-CG/HFTN-CG
REM
REM
REM
REM
REM
REM ./C.cell (b20cbc046b6831c77cfcea5457e17084)
REM AIRSS Version 0.9.1 bugfix July 2018 build 013d7b7c2542+ Fri, 06 Jul 2018 19:26:36 +0100
REM compiler GCC version 9.3.0
REM options -cpp -mtune=generic -march=x86-64 -g -O0
REM seed 1464743392 -907319767 -1511224996 -1179349884 -1357175082 -1331784944 759198280 1163212347 985048929 -1579137209 -2112399086 1494483997 -346147284 -913116717 -257292212 2146044172 737550370 -373005285 -878292656 326045802 -149982026 -1610332931 237140967 965840815 414892267 -1693419785 1977939193 1086360987 5279697 -1685197056 1992085110 -723101338 -611649912
REM
CELL 1.54180   50.00000   50.00000   50.00000   90.00000   90.00000   90.00000
LATT -1
SFAC C  
C      1  0.4170670000000  0.5504990000000  0.4953600000000 1.0
C      1  0.4443700000000  0.4489760000000  0.4377610000000 1.0
C      1  0.5040180000000  0.5506950000000  0.4159630000000 1.0
C      1  0.5619850000000  0.4494230000000  0.4431850000000 1.0
C      1  0.5831590000000  0.5510680000000  0.5031060000000 1.0
C      1  0.5563460000000  0.4493810000000  0.5606700000000 1.0
C      1  0.4965910000000  0.5509520000000  0.5823090000000 1.0
C      1  0.4390920000000  0.4490100000000  0.5555370000000 1.0
C      1  0.4645680000000  0.4663660000000  0.4530040000000 1.0
C      1  0.5075370000000  0.5334560000000  0.4411570000000 1.0
C      1  0.5465900000000  0.4666800000000  0.4634390000000 1.0
C      1  0.5580580000000  0.5337680000000  0.5066560000000 1.0
C      1  0.5359950000000  0.4665790000000  0.5454160000000 1.0
C      1  0.4925270000000  0.5333560000000  0.5575220000000 1.0
C      1  0.4536930000000  0.4665750000000  0.5350840000000 1.0
C      1  0.4422170000000  0.5332260000000  0.4918160000000 1.0
C      1  0.5366460000000  0.5193560000000  0.3937050000000 1.0
C      1  0.6006490000000  0.4809810000000  0.4504080000000 1.0
C      1  0.6056060000000  0.5196800000000  0.5355820000000 1.0
C      1  0.5491940000000  0.4807100000000  0.5994550000000 1.0
C      1  0.4640930000000  0.5194940000000  0.6044580000000 1.0
C      1  0.4004140000000  0.4804600000000  0.5480660000000 1.0
C      1  0.3948660000000  0.5189340000000  0.4628810000000 1.0
C      1  0.4515230000000  0.4803880000000  0.3989380000000 1.0
C      1  0.4998050000000  0.5984690000000  0.4605340000000 1.0
C      1  0.5277210000000  0.4015530000000  0.4718360000000 1.0
C      1  0.5387280000000  0.5985020000000  0.4986350000000 1.0
C      1  0.5282860000000  0.4017060000000  0.5262720000000 1.0
C      1  0.5003320000000  0.6188560000000  0.5574330000000 1.0
C      1  0.4595800000000  0.3811240000000  0.5407710000000 1.0
C      1  0.4613000000000  0.5983450000000  0.4987600000000 1.0
C      1  0.4734410000000  0.4014320000000  0.4716570000000 1.0
C      1  0.5019490000000  0.4403160000000  0.5213150000000 1.0
C      1  0.4858960000000  0.5597610000000  0.5161340000000 1.0
C      1  0.4783820000000  0.4401450000000  0.5011870000000 1.0
C      1  0.4833760000000  0.5589540000000  0.4848540000000 1.0
C      1  0.4987280000000  0.4409410000000  0.4772750000000 1.0
C      1  0.5144050000000  0.5590740000000  0.4823890000000 1.0
C      1  0.5224030000000  0.4410320000000  0.4974790000000 1.0
C      1  0.5167960000000  0.5597680000000  0.5137170000000 1.0
C      1  0.5903340000000  0.4520560000000  0.4898960000000 1.0
C      1  0.5702050000000  0.5485350000000  0.5560470000000 1.0
C      1  0.5097660000000  0.4516670000000  0.5889720000000 1.0
C      1  0.4438080000000  0.5485970000000  0.5692280000000 1.0
C      1  0.4110320000000  0.4512010000000  0.5089370000000 1.0
C      1  0.4299780000000  0.5479300000000  0.4421860000000 1.0
C      1  0.4911220000000  0.4516430000000  0.4092910000000 1.0
C      1  0.5571360000000  0.5483750000000  0.4289670000000 1.0
C      1  0.3874420000000  0.4914000000000  0.5013740000000 1.0
C      1  0.4188380000000  0.5077740000000  0.4206870000000 1.0
C      1  0.4982800000000  0.4917460000000  0.3860660000000 1.0
C      1  0.5788100000000  0.5083390000000  0.4177840000000 1.0
C      1  0.6133770000000  0.4922500000000  0.4971800000000 1.0
C      1  0.5816420000000  0.5083760000000  0.5776490000000 1.0
C      1  0.5024240000000  0.4917960000000  0.6122450000000 1.0
C      1  0.4219740000000  0.5083220000000  0.5805680000000 1.0
C      1  0.5666100000000  0.4132380000000  0.5020350000000 1.0
C      1  0.5441820000000  0.5869650000000  0.5478680000000 1.0
C      1  0.4972620000000  0.4131810000000  0.5648960000000 1.0
C      1  0.4521130000000  0.5870260000000  0.5435870000000 1.0
C      1  0.4351780000000  0.4127570000000  0.4968170000000 1.0
C      1  0.4554020000000  0.5867450000000  0.4502870000000 1.0
C      1  0.5035230000000  0.4129960000000  0.4331610000000 1.0
C      1  0.5487360000000  0.5870880000000  0.4543900000000 1.0
C      1  0.4652000000000  0.4096120000000  0.4992610000000 1.0
C      1  0.4741010000000  0.5900030000000  0.4735050000000 1.0
C      1  0.5003300000000  0.4098410000000  0.4628130000000 1.0
C      1  0.5254140000000  0.5901150000000  0.4730860000000 1.0
C      1  0.5369090000000  0.4100580000000  0.4987760000000 1.0
C      1  0.5257040000000  0.5902520000000  0.5239240000000 1.0
C      1  0.5011450000000  0.4098420000000  0.5349250000000 1.0
C      1  0.4750490000000  0.5902530000000  0.5241020000000 1.0
C      1  0.5443140000000  0.5743230000000  0.4298110000000 1.0
C      1  0.5808100000000  0.4260280000000  0.4815110000000 1.0
C      1  0.5688560000000  0.5744980000000  0.5432620000000 1.0
C      1  0.5179510000000  0.4257410000000  0.5790330000000 1.0
C      1  0.4568450000000  0.5743920000000  0.5682440000000 1.0
C      1  0.4210290000000  0.4254460000000  0.5175300000000 1.0
C      1  0.4308390000000  0.5739260000000  0.4548570000000 1.0
C      1  0.4828610000000  0.4256490000000  0.4189690000000 1.0
C      1  0.5296580000000  0.5810910000000  0.5718090000000 1.0
C      1  0.4700220000000  0.4189880000000  0.5715460000000 1.0
C      1  0.4290680000000  0.5808350000000  0.5281800000000 1.0
C      1  0.4297740000000  0.4187910000000  0.4696120000000 1.0
C      1  0.4711270000000  0.5807660000000  0.4275240000000 1.0
C      1  0.5307190000000  0.4191050000000  0.4281680000000 1.0
C      1  0.5716170000000  0.5811290000000  0.4700660000000 1.0
C      1  0.5716820000000  0.4193020000000  0.5292640000000 1.0
C      1  0.5430210000000  0.4237370000000  0.5664390000000 1.0
C      1  0.4831580000000  0.5764700000000  0.5782160000000 1.0
C      1  0.4325820000000  0.4234460000000  0.5431970000000 1.0
C      1  0.4223030000000  0.5759660000000  0.4816610000000 1.0
C      1  0.4578720000000  0.4235410000000  0.4318910000000 1.0
C      1  0.5175010000000  0.5763070000000  0.4213090000000 1.0
C      1  0.5678670000000  0.4238820000000  0.4565560000000 1.0
C      1  0.5776720000000  0.5766510000000  0.5166320000000 1.0
C      1  0.4901470000000  0.4615590000000  0.5683880000000 1.0
C      1  0.4442100000000  0.5385020000000  0.5409260000000 1.0
C      1  0.4312900000000  0.4612880000000  0.4891770000000 1.0
C      1  0.4584290000000  0.5380760000000  0.4430350000000 1.0
C      1  0.5105940000000  0.4616770000000  0.4299810000000 1.0
C      1  0.5562920000000  0.5384790000000  0.4574440000000 1.0
C      1  0.5695400000000  0.4619200000000  0.5093820000000 1.0
C      1  0.5418310000000  0.5385100000000  0.5553230000000 1.0
C      1  0.4787870000000  0.4722030000000  0.3939780000000 1.0
C      1  0.5593440000000  0.5277460000000  0.4095020000000 1.0
C      1  0.6055730000000  0.4727180000000  0.4776460000000 1.0
C      1  0.5898050000000  0.5279410000000  0.5582790000000 1.0
C      1  0.5219960000000  0.4723290000000  0.6043290000000 1.0
C      1  0.4414580000000  0.5278310000000  0.5886590000000 1.0
C      1  0.3955720000000  0.4719930000000  0.5209410000000 1.0
C      1  0.4105620000000  0.5272390000000  0.4400990000000 1.0
C      1  0.4591500000000  0.4635920000000  0.5057370000000 1.0
C      1  0.4665380000000  0.5357910000000  0.4746510000000 1.0
C      1  0.4939480000000  0.4639720000000  0.4580380000000 1.0
C      1  0.5247710000000  0.5360410000000  0.4655150000000 1.0
C      1  0.5415290000000  0.4641810000000  0.4928480000000 1.0
C      1  0.5336870000000  0.5364300000000  0.5239770000000 1.0
C      1  0.5065420000000  0.4637220000000  0.5404480000000 1.0
C      1  0.4756090000000  0.5362620000000  0.5329170000000 1.0
C      1  0.4093830000000  0.5084420000000  0.5522040000000 1.0
C      1  0.3985570000000  0.4911000000000  0.4723870000000 1.0
C      1  0.4472960000000  0.5082330000000  0.4081590000000 1.0
C      1  0.5272650000000  0.4914840000000  0.3973450000000 1.0
C      1  0.5913010000000  0.5087910000000  0.4462600000000 1.0
C      1  0.6020880000000  0.4918140000000  0.5261220000000 1.0
C      1  0.5532900000000  0.5085760000000  0.5902440000000 1.0
C      1  0.4734730000000  0.4915630000000  0.6010650000000 1.0
C      1  0.5108840000000  0.5191100000000  0.6130090000000 1.0
C      1  0.4274370000000  0.4810200000000  0.5871910000000 1.0
C      1  0.3865080000000  0.5188080000000  0.5097620000000 1.0
C      1  0.4124190000000  0.4803960000000  0.4261700000000 1.0
C      1  0.4897420000000  0.5190790000000  0.3852890000000 1.0
C      1  0.5734730000000  0.4809540000000  0.4112770000000 1.0
C      1  0.6140570000000  0.5196200000000  0.4887210000000 1.0
C      1  0.5882550000000  0.4810120000000  0.5722320000000 1.0
C      1  0.5615390000000  0.5073360000000  0.4940870000000 1.0
C      1  0.5471970000000  0.4930740000000  0.5389150000000 1.0
C      1  0.5053900000000  0.5070030000000  0.5606080000000 1.0
C      1  0.4605480000000  0.4929720000000  0.5463240000000 1.0
C      1  0.4389500000000  0.5068580000000  0.5044860000000 1.0
C      1  0.4532110000000  0.4927250000000  0.4595290000000 1.0
C      1  0.4950630000000  0.5069850000000  0.4377970000000 1.0
C      1  0.5400340000000  0.4930570000000  0.4521340000000 1.0
C      1  0.4782380000000  0.5056080000000  0.5256760000000 1.0
C      1  0.4660700000000  0.4941930000000  0.5023980000000 1.0
C      1  0.4738110000000  0.5053850000000  0.4771940000000 1.0
C      1  0.4971580000000  0.4944080000000  0.4648790000000 1.0
C      1  0.5222670000000  0.5056220000000  0.4726970000000 1.0
C      1  0.5345090000000  0.4946340000000  0.4960700000000 1.0
C      1  0.5265860000000  0.5057500000000  0.5212320000000 1.0
C      1  0.5033330000000  0.4944170000000  0.5334920000000 1.0
C      1  0.4621330000000  0.4473740000000  0.5758460000000 1.0
C      1  0.4192380000000  0.5524430000000  0.5260930000000 1.0
C      1  0.4241920000000  0.4471470000000  0.4610970000000 1.0
C      1  0.4733020000000  0.5523240000000  0.4180840000000 1.0
C      1  0.5388140000000  0.4475630000000  0.4229320000000 1.0
C      1  0.5811280000000  0.5527610000000  0.4723580000000 1.0
C      1  0.5766370000000  0.4477300000000  0.5375010000000 1.0
C      1  0.5272510000000  0.5526650000000  0.5803740000000 1.0
C      1  0.5718910000000  0.4903950000000  0.5176280000000 1.0
C      1  0.5378250000000  0.5099790000000  0.5628830000000 1.0
C      1  0.4818540000000  0.4899940000000  0.5708780000000 1.0
C      1  0.4366300000000  0.5099680000000  0.5369700000000 1.0
C      1  0.4286400000000  0.4898460000000  0.4809480000000 1.0
C      1  0.4625580000000  0.5096120000000  0.4355130000000 1.0
C      1  0.5187140000000  0.4901760000000  0.4275010000000 1.0
C      1  0.5639410000000  0.5100450000000  0.4615670000000 1.0
C      1  0.4975380000000  0.5920570000000  0.4332660000000 1.0
C      1  0.5453790000000  0.4079880000000  0.4509420000000 1.0
C      1  0.5658680000000  0.5922470000000  0.4964600000000 1.0
C      1  0.5490030000000  0.4081000000000  0.5438910000000 1.0
C      1  0.5035200000000  0.5950600000000  0.5708700000000 1.0
C      1  0.4522470000000  0.4049360000000  0.5524400000000 1.0
C      1  0.4342830000000  0.5917790000000  0.5015190000000 1.0
C      1  0.4523530000000  0.4078250000000  0.4544830000000 1.0
C      1  0.5970350000000  0.4700260000000  0.5468120000000 1.0
C      1  0.5350790000000  0.5302290000000  0.6013450000000 1.0
C      1  0.4527690000000  0.4699090000000  0.5961140000000 1.0
C      1  0.3982110000000  0.5299950000000  0.5339100000000 1.0
C      1  0.4037000000000  0.4694000000000  0.4516600000000 1.0
C      1  0.4655110000000  0.5300310000000  0.3970860000000 1.0
C      1  0.5480670000000  0.4698200000000  0.4024930000000 1.0
C      1  0.6022460000000  0.5305900000000  0.4645230000000 1.0
C      1  0.5846570000000  0.4658500000000  0.4326670000000 1.0
C      1  0.6067380000000  0.5347630000000  0.5117010000000 1.0
C      1  0.5669420000000  0.4657370000000  0.5833650000000 1.0
C      1  0.4880020000000  0.5343990000000  0.6057070000000 1.0
C      1  0.4164560000000  0.4656290000000  0.5659100000000 1.0
C      1  0.3936460000000  0.5340040000000  0.4867750000000 1.0
C      1  0.4338250000000  0.4652920000000  0.4150350000000 1.0
C      1  0.5126900000000  0.5343270000000  0.3924910000000 1.0
C      1  0.4758110000000  0.3962170000000  0.5242650000000 1.0
C      1  0.5001840000000  0.6037540000000  0.5342880000000 1.0
END
