TITL C-233941-2040-2 652.326871669527 27000 -667.157493038467 0 0 97 (C1) n - 1
REM
REM in /rds/project/t2_vol4/rds-t2-cs072/BORA/CARBON/from-Arr/AIRSS/Generating-Clusters/GAP-ML-2020/Higher-Symm/SD-CG/HFTN-CG/Box-30A
REM
REM
REM
REM
REM
REM ./C.cell (13fc22856271072ba132eecf8fb47ea5)
REM AIRSS Version 0.9.1 bugfix July 2018 build 013d7b7c2542+ Fri, 06 Jul 2018 19:26:36 +0100
REM compiler GCC version 9.3.0
REM options -cpp -mtune=generic -march=x86-64 -g -O0
REM seed -1557443629 -840729283 1817975644 2113607433 1810095566 -224276464 -1764377476 -584369426 433582996 1511158140 -905172211 -1075556843 197202260 1723555325 -1946390705 -727163166 953759142 2107592424 -792256245 -487936885 1318504348 -1889873951 -1113423420 1373516603 145247264 2106641012 2131890409 -1707634542 1112174308 1638693786 1133839587 -741714067 383612273
REM
CELL 1.54180   30.00000   30.00000   30.00000   90.00000   90.00000   90.00000
LATT -1
SFAC C  
C      1  0.4694620000000  0.5828290000000  0.4379120000000 1.0
C      1  0.4730050000000  0.4173890000000  0.5629510000000 1.0
C      1  0.5223320000000  0.5838480000000  0.4486520000000 1.0
C      1  0.5266470000000  0.4176830000000  0.5561300000000 1.0
C      1  0.4740610000000  0.5830060000000  0.5631050000000 1.0
C      1  0.4729930000000  0.4179710000000  0.4332150000000 1.0
C      1  0.5260110000000  0.5827260000000  0.5559690000000 1.0
C      1  0.5316200000000  0.4179640000000  0.4406960000000 1.0
C      1  0.4581320000000  0.4313290000000  0.3840000000000 1.0
C      1  0.4585300000000  0.5730760000000  0.6125880000000 1.0
C      1  0.5562340000000  0.4340830000000  0.3974180000000 1.0
C      1  0.5523940000000  0.5710630000000  0.5977370000000 1.0
C      1  0.4558650000000  0.4268230000000  0.6131270000000 1.0
C      1  0.4560520000000  0.5738060000000  0.3884920000000 1.0
C      1  0.5543990000000  0.4288700000000  0.6000230000000 1.0
C      1  0.5501570000000  0.5768070000000  0.4051170000000 1.0
C      1  0.4561180000000  0.6173740000000  0.5353790000000 1.0
C      1  0.4430790000000  0.3917600000000  0.4580000000000 1.0
C      1  0.5429440000000  0.6201310000000  0.5241200000000 1.0
C      1  0.5538980000000  0.3809490000000  0.4607520000000 1.0
C      1  0.4511860000000  0.6226320000000  0.4615670000000 1.0
C      1  0.4590700000000  0.3789600000000  0.5356660000000 1.0
C      1  0.5227500000000  0.6224480000000  0.4805370000000 1.0
C      1  0.5362110000000  0.3759120000000  0.5335450000000 1.0
C      1  0.5474400000000  0.5428810000000  0.5265230000000 1.0
C      1  0.5528230000000  0.4568620000000  0.4741350000000 1.0
C      1  0.4461340000000  0.5406280000000  0.5457810000000 1.0
C      1  0.4474050000000  0.4589260000000  0.4535190000000 1.0
C      1  0.5483030000000  0.5439730000000  0.4760690000000 1.0
C      1  0.5516240000000  0.4547400000000  0.5253470000000 1.0
C      1  0.4468000000000  0.5405020000000  0.4552830000000 1.0
C      1  0.4447370000000  0.4593980000000  0.5467300000000 1.0
C      1  0.5388920000000  0.4833590000000  0.3346800000000 1.0
C      1  0.5583890000000  0.5131270000000  0.6471400000000 1.0
C      1  0.4918980000000  0.4815850000000  0.3273910000000 1.0
C      1  0.4654810000000  0.5121270000000  0.6564360000000 1.0
C      1  0.5371970000000  0.4767180000000  0.6641490000000 1.0
C      1  0.5580520000000  0.5204570000000  0.3530480000000 1.0
C      1  0.4897940000000  0.4766570000000  0.6701010000000 1.0
C      1  0.4659880000000  0.5170200000000  0.3391160000000 1.0
C      1  0.4040390000000  0.5384410000000  0.4311270000000 1.0
C      1  0.3998700000000  0.4527130000000  0.5692790000000 1.0
C      1  0.5992050000000  0.5453370000000  0.4632900000000 1.0
C      1  0.5984150000000  0.4500900000000  0.5465910000000 1.0
C      1  0.4008730000000  0.5513300000000  0.5661500000000 1.0
C      1  0.4064010000000  0.4642030000000  0.4267540000000 1.0
C      1  0.5946530000000  0.5444810000000  0.5396070000000 1.0
C      1  0.5971470000000  0.4655040000000  0.4522290000000 1.0
C      1  0.4886860000000  0.4379140000000  0.3510220000000 1.0
C      1  0.4868420000000  0.5541680000000  0.6436420000000 1.0
C      1  0.5366500000000  0.4401040000000  0.3568240000000 1.0
C      1  0.5342380000000  0.5545710000000  0.6381000000000 1.0
C      1  0.4860420000000  0.4333200000000  0.6459050000000 1.0
C      1  0.4859100000000  0.5591000000000  0.3557700000000 1.0
C      1  0.5342470000000  0.4343630000000  0.6403410000000 1.0
C      1  0.5326430000000  0.5606730000000  0.3637950000000 1.0
C      1  0.5886900000000  0.5509380000000  0.4153280000000 1.0
C      1  0.5892200000000  0.4613730000000  0.5920460000000 1.0
C      1  0.4169800000000  0.5460430000000  0.3867700000000 1.0
C      1  0.4167480000000  0.4572730000000  0.6144030000000 1.0
C      1  0.5906000000000  0.5439190000000  0.5862550000000 1.0
C      1  0.5885880000000  0.4674760000000  0.4066110000000 1.0
C      1  0.4165870000000  0.5477250000000  0.6109850000000 1.0
C      1  0.4206040000000  0.4619010000000  0.3818000000000 1.0
C      1  0.6179980000000  0.4106060000000  0.5350410000000 1.0
C      1  0.3697080000000  0.4253950000000  0.5480060000000 1.0
C      1  0.6169040000000  0.5689450000000  0.5048820000000 1.0
C      1  0.3708490000000  0.5777410000000  0.5446760000000 1.0
C      1  0.5882030000000  0.6239360000000  0.5234630000000 1.0
C      1  0.4252190000000  0.6169170000000  0.5018630000000 1.0
C      1  0.5723340000000  0.3729660000000  0.5009740000000 1.0
C      1  0.4263390000000  0.3855900000000  0.4999020000000 1.0
C      1  0.6191670000000  0.3732320000000  0.5142470000000 1.0
C      1  0.3804500000000  0.6054360000000  0.5127450000000 1.0
C      1  0.6292020000000  0.6146040000000  0.5116690000000 1.0
C      1  0.3847310000000  0.4001960000000  0.5162760000000 1.0
C      1  0.4694980000000  0.5008130000000  0.4299600000000 1.0
C      1  0.5256320000000  0.4996360000000  0.4635740000000 1.0
C      1  0.4602570000000  0.5000540000000  0.5740900000000 1.0
C      1  0.5261670000000  0.4972730000000  0.5388500000000 1.0
C      1  0.4307030000000  0.5031250000000  0.6230240000000 1.0
C      1  0.4241640000000  0.5066500000000  0.3596810000000 1.0
C      1  0.5903160000000  0.5040340000000  0.6119030000000 1.0
C      1  0.5890850000000  0.5119800000000  0.3880100000000 1.0
C      1  0.4511570000000  0.4752450000000  0.5004140000000 1.0
C      1  0.4521480000000  0.5236580000000  0.5007530000000 1.0
C      1  0.6724420000000  0.5005910000000  0.4594390000000 1.0
C      1  0.3314120000000  0.4993350000000  0.4471320000000 1.0
C      1  0.5074880000000  0.4968250000000  0.5830450000000 1.0
C      1  0.5122830000000  0.5004280000000  0.4179570000000 1.0
C      1  0.5017960000000  0.3077880000000  0.5124990000000 1.0
C      1  0.4933600000000  0.6971840000000  0.4622600000000 1.0
C      1  0.3744250000000  0.4996510000000  0.4393510000000 1.0
C      1  0.6280260000000  0.5005450000000  0.4649610000000 1.0
C      1  0.4881050000000  0.6546630000000  0.4686130000000 1.0
C      1  0.4969210000000  0.3487440000000  0.5283160000000 1.0
C      1  0.4944170000000  0.4971480000000  0.5014860000000 1.0
END
