TITL C-235508-3651-10 -143.37721784831 125000 -475.075695215306 0 0 70 (Ci) n - 1
REM
REM in /rds/project/t2_vol4/rds-t2-cs072/BORA/CARBON/from-Arr/AIRSS/Generating-Clusters/GAP-ML-2020/Higher-Symm/SD-CG/HFTN-CG
REM
REM
REM
REM
REM
REM ./C.cell (b20cbc046b6831c77cfcea5457e17084)
REM AIRSS Version 0.9.1 bugfix July 2018 build 013d7b7c2542+ Fri, 06 Jul 2018 19:26:36 +0100
REM compiler GCC version 9.3.0
REM options -cpp -mtune=generic -march=x86-64 -g -O0
REM seed 21472704 63582928 691631859 1338813541 1836808414 200413546 1115120876 -166088967 1602847348 -2110804100 1729697113 -1548307799 -1676062144 2028121098 342536675 -510059792 -1559566721 1926924818 2109617256 -736855952 -1433034803 -170977582 -1076284828 1537533335 1357863705 1067151471 1062834615 -188663299 -1130892807 -1712677393 1628140557 958314896 1433069978
REM
CELL 1.54180   50.00000   50.00000   50.00000   90.00000   90.00000   90.00000
LATT -1
SFAC C  
C      1  0.5164360000000  0.4723610000000  0.4228830000000 1.0
C      1  0.4835640000000  0.5276390000000  0.5771170000000 1.0
C      1  0.5348410000000  0.4498830000000  0.5049290000000 1.0
C      1  0.4651590000000  0.5501170000000  0.4950710000000 1.0
C      1  0.5146560000000  0.5340170000000  0.4843560000000 1.0
C      1  0.4853440000000  0.4659830000000  0.5156450000000 1.0
C      1  0.5636330000000  0.5089690000000  0.4663380000000 1.0
C      1  0.4363670000000  0.4910310000000  0.5336620000000 1.0
C      1  0.4893580000000  0.5603430000000  0.5396460000000 1.0
C      1  0.5106420000000  0.4396570000000  0.4603530000000 1.0
C      1  0.5108320000000  0.5283040000000  0.5659120000000 1.0
C      1  0.4891680000000  0.4716960000000  0.4340880000000 1.0
C      1  0.5609510000000  0.4809570000000  0.4730580000000 1.0
C      1  0.4390490000000  0.5190430000000  0.5269420000000 1.0
C      1  0.5377240000000  0.4412330000000  0.5327880000000 1.0
C      1  0.4622760000000  0.5587670000000  0.4672120000000 1.0
C      1  0.5677540000000  0.5273940000000  0.4880820000000 1.0
C      1  0.4322460000000  0.4726060000000  0.5119180000000 1.0
C      1  0.4621250000000  0.4500930000000  0.4657700000000 1.0
C      1  0.5378750000000  0.5499070000000  0.5342300000000 1.0
C      1  0.5146060000000  0.5523220000000  0.5501630000000 1.0
C      1  0.4853940000000  0.4476780000000  0.4498370000000 1.0
C      1  0.5596780000000  0.5532810000000  0.4915160000000 1.0
C      1  0.4403220000000  0.4467190000000  0.5084840000000 1.0
C      1  0.5204980000000  0.5304120000000  0.4549520000000 1.0
C      1  0.4795020000000  0.4695880000000  0.5450480000000 1.0
C      1  0.5725790000000  0.4752240000000  0.5430090000000 1.0
C      1  0.4274210000000  0.5247760000000  0.4569910000000 1.0
C      1  0.4882270000000  0.5629650000000  0.4562710000000 1.0
C      1  0.5117730000000  0.4370350000000  0.5437290000000 1.0
C      1  0.5268530000000  0.4783010000000  0.5590270000000 1.0
C      1  0.4731480000000  0.5216990000000  0.4409730000000 1.0
C      1  0.5121260000000  0.5643980000000  0.4954940000000 1.0
C      1  0.4878740000000  0.4356020000000  0.5045060000000 1.0
C      1  0.5592630000000  0.4665600000000  0.4968760000000 1.0
C      1  0.4407370000000  0.5334390000000  0.5031240000000 1.0
C      1  0.4655760000000  0.5204650000000  0.5379420000000 1.0
C      1  0.5344240000000  0.4795350000000  0.4620580000000 1.0
C      1  0.4602870000000  0.4379220000000  0.4917350000000 1.0
C      1  0.5397140000000  0.5620780000000  0.5082650000000 1.0
C      1  0.5062430000000  0.5765520000000  0.4706710000000 1.0
C      1  0.4937570000000  0.4234490000000  0.5293290000000 1.0
C      1  0.5152320000000  0.4879610000000  0.4839330000000 1.0
C      1  0.4847680000000  0.5120390000000  0.5160670000000 1.0
C      1  0.4962770000000  0.5392720000000  0.4426370000000 1.0
C      1  0.5037230000000  0.4607280000000  0.5573630000000 1.0
C      1  0.5388160000000  0.5088790000000  0.4469180000000 1.0
C      1  0.4611840000000  0.4911210000000  0.5530820000000 1.0
C      1  0.5670760000000  0.4847000000000  0.5174440000000 1.0
C      1  0.4329240000000  0.5153000000000  0.4825560000000 1.0
C      1  0.5116240000000  0.5034250000000  0.5233070000000 1.0
C      1  0.4883760000000  0.4965750000000  0.4766930000000 1.0
C      1  0.5277110000000  0.5119130000000  0.4995010000000 1.0
C      1  0.4722890000000  0.4880870000000  0.5004990000000 1.0
C      1  0.5486290000000  0.5243500000000  0.5381390000000 1.0
C      1  0.4513710000000  0.4756500000000  0.4618610000000 1.0
C      1  0.5135430000000  0.4744090000000  0.5109350000000 1.0
C      1  0.4864570000000  0.5255910000000  0.4890650000000 1.0
C      1  0.4512630000000  0.5362900000000  0.4517040000000 1.0
C      1  0.5487370000000  0.4637100000000  0.5482960000000 1.0
C      1  0.4667470000000  0.5043880000000  0.5784760000000 1.0
C      1  0.5332530000000  0.4956120000000  0.4215240000000 1.0
C      1  0.4422740000000  0.4880810000000  0.4871030000000 1.0
C      1  0.5577260000000  0.5119190000000  0.5128970000000 1.0
C      1  0.4741520000000  0.4922380000000  0.4490870000000 1.0
C      1  0.5258480000000  0.5077620000000  0.5509130000000 1.0
C      1  0.4863630000000  0.5639120000000  0.5120790000000 1.0
C      1  0.5136370000000  0.4360880000000  0.4879210000000 1.0
C      1  0.5284640000000  0.4569380000000  0.4452580000000 1.0
C      1  0.4715360000000  0.5430620000000  0.5547420000000 1.0
END
