TITL C-237570-1-8 0.0654973250148753 125000 -476.359551823398 0 0 69 (C1) n - 1
REM
REM in /rds/project/t2_vol4/rds-t2-cs072/BORA/CARBON/from-Arr/AIRSS/Generating-Clusters/GAP-ML-2020/Higher-Symm/SD-CG/HFTN-CG
REM
REM
REM
REM
REM
REM ./C.cell (b20cbc046b6831c77cfcea5457e17084)
REM AIRSS Version 0.9.1 bugfix July 2018 build 013d7b7c2542+ Fri, 06 Jul 2018 19:26:36 +0100
REM compiler GCC version 9.3.0
REM options -cpp -mtune=generic -march=x86-64 -g -O0
REM seed 219181522 1264054588 981069107 1552684484 -553303372 -198174681 1681804078 1602987483 1320612066 2031849894 153010020 1651215580 1677945076 -1071878309 -1292335331 -533711721 1208420544 -853388399 1097240345 855743074 -1269440168 -1622344598 -824037131 -347069350 1151198666 2066940479 -1078804063 -337236032 138074394 19271958 1399576245 2128024571 1862299810
REM
CELL 1.54180   50.00000   50.00000   50.00000   90.00000   90.00000   90.00000
LATT -1
SFAC C  
C      1  0.4232110000000  0.5342110000000  0.4880010000000 1.0
C      1  0.4245210000000  0.5124940000000  0.4693740000000 1.0
C      1  0.4282260000000  0.4850810000000  0.4785790000000 1.0
C      1  0.4250230000000  0.4646600000000  0.4994750000000 1.0
C      1  0.4278670000000  0.4744570000000  0.5265870000000 1.0
C      1  0.4334570000000  0.5031460000000  0.5269900000000 1.0
C      1  0.4292210000000  0.5296310000000  0.5158470000000 1.0
C      1  0.4815890000000  0.5595300000000  0.4584760000000 1.0
C      1  0.4816290000000  0.4749570000000  0.4367420000000 1.0
C      1  0.4822810000000  0.4511870000000  0.4539300000000 1.0
C      1  0.4791940000000  0.4216880000000  0.5216820000000 1.0
C      1  0.4923350000000  0.4918530000000  0.5623400000000 1.0
C      1  0.4965050000000  0.5209060000000  0.5516350000000 1.0
C      1  0.4835890000000  0.5693250000000  0.4855580000000 1.0
C      1  0.5016950000000  0.4153090000000  0.5057550000000 1.0
C      1  0.5176900000000  0.4501810000000  0.5681650000000 1.0
C      1  0.5298890000000  0.5419140000000  0.5875910000000 1.0
C      1  0.5183780000000  0.5735440000000  0.5215730000000 1.0
C      1  0.5245480000000  0.5791430000000  0.4501870000000 1.0
C      1  0.5069370000000  0.5141970000000  0.4245540000000 1.0
C      1  0.5298280000000  0.4527920000000  0.4483390000000 1.0
C      1  0.5535370000000  0.4656490000000  0.4990610000000 1.0
C      1  0.5519780000000  0.4685280000000  0.5282860000000 1.0
C      1  0.5387690000000  0.4899440000000  0.5454750000000 1.0
C      1  0.5150040000000  0.5040280000000  0.5322220000000 1.0
C      1  0.5552520000000  0.5347080000000  0.5016820000000 1.0
C      1  0.5481270000000  0.5078190000000  0.4996310000000 1.0
C      1  0.5612600000000  0.4889770000000  0.4814830000000 1.0
C      1  0.4463760000000  0.5170730000000  0.4495620000000 1.0
C      1  0.4416660000000  0.4717560000000  0.4569080000000 1.0
C      1  0.4454110000000  0.4451090000000  0.4943810000000 1.0
C      1  0.4505630000000  0.4618670000000  0.5397570000000 1.0
C      1  0.4519980000000  0.5068740000000  0.5485750000000 1.0
C      1  0.4535640000000  0.5447280000000  0.5234880000000 1.0
C      1  0.4413770000000  0.5533170000000  0.4789450000000 1.0
C      1  0.5101870000000  0.5741310000000  0.4959180000000 1.0
C      1  0.5070490000000  0.5587880000000  0.4448640000000 1.0
C      1  0.5061230000000  0.4879580000000  0.4299510000000 1.0
C      1  0.5088290000000  0.4416150000000  0.4623190000000 1.0
C      1  0.5041360000000  0.4172700000000  0.5334120000000 1.0
C      1  0.5170370000000  0.4767310000000  0.5652890000000 1.0
C      1  0.5153080000000  0.5429170000000  0.5622220000000 1.0
C      1  0.5407490000000  0.5254650000000  0.4559140000000 1.0
C      1  0.5465360000000  0.4977290000000  0.4569580000000 1.0
C      1  0.5407050000000  0.4401130000000  0.5001000000000 1.0
C      1  0.5425830000000  0.4418190000000  0.5296000000000 1.0
C      1  0.5537280000000  0.5156890000000  0.5495160000000 1.0
C      1  0.5500460000000  0.5389640000000  0.5298070000000 1.0
C      1  0.5463960000000  0.5450210000000  0.4768110000000 1.0
C      1  0.5196830000000  0.5334100000000  0.4379580000000 1.0
C      1  0.5308210000000  0.4793930000000  0.4425330000000 1.0
C      1  0.5179100000000  0.4292080000000  0.4869840000000 1.0
C      1  0.5234390000000  0.4324820000000  0.5474120000000 1.0
C      1  0.5455290000000  0.5259790000000  0.5739320000000 1.0
C      1  0.5294930000000  0.5565720000000  0.5395700000000 1.0
C      1  0.5299440000000  0.5686180000000  0.4747910000000 1.0
C      1  0.4566370000000  0.5443600000000  0.4556230000000 1.0
C      1  0.4564150000000  0.4898770000000  0.4409690000000 1.0
C      1  0.4562460000000  0.4494860000000  0.4669750000000 1.0
C      1  0.4583920000000  0.4400870000000  0.5204770000000 1.0
C      1  0.4654230000000  0.4828750000000  0.5558240000000 1.0
C      1  0.4682730000000  0.5294990000000  0.5439700000000 1.0
C      1  0.4595680000000  0.5614330000000  0.4999670000000 1.0
C      1  0.5893180000000  0.4953260000000  0.4849040000000 1.0
C      1  0.6089140000000  0.5082360000000  0.4928130000000 1.0
C      1  0.4771860000000  0.4897690000000  0.4977150000000 1.0
C      1  0.5191460000000  0.5041820000000  0.5050960000000 1.0
C      1  0.4516870000000  0.4979320000000  0.4990320000000 1.0
C      1  0.4966720000000  0.5046600000000  0.4905910000000 1.0
END
