TITL C-234693-203-1 259.974774066751 125000 -343.088409364846 0 0 50 (C1) n - 1
REM
REM in /rds/project/t2_vol4/rds-t2-cs072/BORA/CARBON/from-Arr/AIRSS/Generating-Clusters/GAP-ML-2020/Higher-Symm/SD-CG/HFTN-CG
REM
REM
REM
REM
REM
REM ./C.cell (b20cbc046b6831c77cfcea5457e17084)
REM AIRSS Version 0.9.1 bugfix July 2018 build 013d7b7c2542+ Fri, 06 Jul 2018 19:26:36 +0100
REM compiler GCC version 9.3.0
REM options -cpp -mtune=generic -march=x86-64 -g -O0
REM seed 1014765074 190481283 640382199 -1856105977 -1858061475 -1757901580 -353620490 -613529816 938808234 -1472730979 -2078388073 1480003175 1541948424 1212568216 1798914575 -1210842021 1250022627 -358734430 -176192661 -750343626 -1075295290 652448179 749223097 -1309921212 -1128578461 958919890 -629260927 -550058998 -1728059103 -245769117 -992507647 -1451696637 1469462199
REM
CELL 1.54180   50.00000   50.00000   50.00000   90.00000   90.00000   90.00000
LATT -1
SFAC C  
C      1  0.4414590000000  0.4986260000000  0.5190640000000 1.0
C      1  0.5391660000000  0.5322040000000  0.5318780000000 1.0
C      1  0.5071450000000  0.4598750000000  0.5477960000000 1.0
C      1  0.4646550000000  0.4559700000000  0.5211200000000 1.0
C      1  0.5270910000000  0.5478390000000  0.4617670000000 1.0
C      1  0.4879880000000  0.5508700000000  0.4658380000000 1.0
C      1  0.5204300000000  0.5033630000000  0.5617070000000 1.0
C      1  0.4569210000000  0.4799230000000  0.5342430000000 1.0
C      1  0.5340330000000  0.4576620000000  0.5367870000000 1.0
C      1  0.5249590000000  0.5562800000000  0.4902730000000 1.0
C      1  0.5024510000000  0.5161270000000  0.4937840000000 1.0
C      1  0.5015480000000  0.4393620000000  0.4798370000000 1.0
C      1  0.4533880000000  0.5426460000000  0.5058620000000 1.0
C      1  0.5046440000000  0.4873480000000  0.4919970000000 1.0
C      1  0.4693490000000  0.5230410000000  0.5462660000000 1.0
C      1  0.5152490000000  0.5405240000000  0.5479140000000 1.0
C      1  0.5017270000000  0.5003600000000  0.5157100000000 1.0
C      1  0.4511380000000  0.5254810000000  0.4809590000000 1.0
C      1  0.4960960000000  0.4827380000000  0.4440830000000 1.0
C      1  0.4829530000000  0.4898840000000  0.4688030000000 1.0
C      1  0.5431530000000  0.5049060000000  0.5418930000000 1.0
C      1  0.4881540000000  0.5440110000000  0.5388160000000 1.0
C      1  0.4568920000000  0.5072860000000  0.4376740000000 1.0
C      1  0.5443040000000  0.5409750000000  0.5054490000000 1.0
C      1  0.5245170000000  0.4760430000000  0.4503620000000 1.0
C      1  0.5598260000000  0.4951120000000  0.4816140000000 1.0
C      1  0.4787970000000  0.5554350000000  0.5135200000000 1.0
C      1  0.4962300000000  0.5617560000000  0.4926040000000 1.0
C      1  0.4414980000000  0.4983790000000  0.4913670000000 1.0
C      1  0.4480690000000  0.5248160000000  0.5273500000000 1.0
C      1  0.5060110000000  0.4341760000000  0.5081540000000 1.0
C      1  0.5437080000000  0.4528640000000  0.4905960000000 1.0
C      1  0.4767550000000  0.4925240000000  0.4270300000000 1.0
C      1  0.4993920000000  0.4840270000000  0.5599090000000 1.0
C      1  0.5321710000000  0.4411900000000  0.5134260000000 1.0
C      1  0.4592540000000  0.4537320000000  0.4921030000000 1.0
C      1  0.5064660000000  0.5568930000000  0.4463280000000 1.0
C      1  0.4735760000000  0.4947250000000  0.5524740000000 1.0
C      1  0.5502170000000  0.4805630000000  0.5294150000000 1.0
C      1  0.4752070000000  0.4383120000000  0.4757560000000 1.0
C      1  0.5572080000000  0.4758550000000  0.5008410000000 1.0
C      1  0.4802710000000  0.5213170000000  0.4745270000000 1.0
C      1  0.5253460000000  0.4533060000000  0.4685840000000 1.0
C      1  0.4555520000000  0.4782970000000  0.4783160000000 1.0
C      1  0.5438570000000  0.4964050000000  0.4565050000000 1.0
C      1  0.5566800000000  0.5236100000000  0.4861860000000 1.0
C      1  0.5443430000000  0.5257990000000  0.4595340000000 1.0
C      1  0.5168070000000  0.5277650000000  0.5729660000000 1.0
C      1  0.4435840000000  0.5244590000000  0.4516300000000 1.0
C      1  0.4897680000000  0.4453380000000  0.5293790000000 1.0
END
