TITL C-234767-3950-1 -97.2027225368099 125000 -459.353959883616 0 0 69 (C1) n - 1
REM
REM in /rds/project/t2_vol4/rds-t2-cs072/BORA/CARBON/from-Arr/AIRSS/Generating-Clusters/GAP-ML-2020/Higher-Symm/SD-CG/HFTN-CG
REM
REM
REM
REM
REM
REM ./C.cell (b20cbc046b6831c77cfcea5457e17084)
REM AIRSS Version 0.9.1 bugfix July 2018 build 013d7b7c2542+ Fri, 06 Jul 2018 19:26:36 +0100
REM compiler GCC version 9.3.0
REM options -cpp -mtune=generic -march=x86-64 -g -O0
REM seed -1843654665 1812866665 -1511961437 -62647160 1806435818 1727312514 -1229802400 -1146451847 2117643143 -859692017 -1554443397 1982281343 2080346342 -629365560 -610603240 -373726125 2074648295 201150189 -349829921 -641393143 259133113 -518410574 -2045285591 222919430 82831184 944577874 -1419338063 1805926890 -461208638 -1854746946 1309650611 1405694029 -196336240
REM
CELL 1.54180   50.00000   50.00000   50.00000   90.00000   90.00000   90.00000
LATT -1
SFAC C  
C      1  0.4534100000000  0.5389520000000  0.4399130000000 1.0
C      1  0.5445250000000  0.4581000000000  0.5619050000000 1.0
C      1  0.4683870000000  0.5584410000000  0.5330670000000 1.0
C      1  0.5335370000000  0.4434150000000  0.4673400000000 1.0
C      1  0.5449020000000  0.4388940000000  0.5133350000000 1.0
C      1  0.4562410000000  0.5602490000000  0.4871300000000 1.0
C      1  0.4913000000000  0.4675100000000  0.4878210000000 1.0
C      1  0.5073020000000  0.5344000000000  0.5116920000000 1.0
C      1  0.5511100000000  0.5385550000000  0.4528840000000 1.0
C      1  0.4483390000000  0.4609100000000  0.5454190000000 1.0
C      1  0.4794440000000  0.5321560000000  0.4277840000000 1.0
C      1  0.5181740000000  0.4655950000000  0.5743540000000 1.0
C      1  0.4955980000000  0.5454670000000  0.4669760000000 1.0
C      1  0.5052030000000  0.4542520000000  0.5323220000000 1.0
C      1  0.4851810000000  0.5151620000000  0.5007260000000 1.0
C      1  0.5283730000000  0.4855520000000  0.5037970000000 1.0
C      1  0.4785540000000  0.4943470000000  0.5608360000000 1.0
C      1  0.5195660000000  0.5045320000000  0.4418620000000 1.0
C      1  0.5583810000000  0.5281730000000  0.4976260000000 1.0
C      1  0.4339460000000  0.4724940000000  0.5072480000000 1.0
C      1  0.4319680000000  0.4903880000000  0.4848430000000 1.0
C      1  0.5736190000000  0.5021070000000  0.5307540000000 1.0
C      1  0.4695260000000  0.4665380000000  0.5631180000000 1.0
C      1  0.5285560000000  0.5322900000000  0.4364600000000 1.0
C      1  0.5283310000000  0.5232380000000  0.5312190000000 1.0
C      1  0.4717520000000  0.4710830000000  0.4670870000000 1.0
C      1  0.5572450000000  0.5241160000000  0.5252100000000 1.0
C      1  0.4485950000000  0.4836680000000  0.4634250000000 1.0
C      1  0.4756600000000  0.5232630000000  0.4727160000000 1.0
C      1  0.5275520000000  0.4759010000000  0.5303770000000 1.0
C      1  0.5524980000000  0.4587330000000  0.5345490000000 1.0
C      1  0.4484120000000  0.5374890000000  0.4686400000000 1.0
C      1  0.5379070000000  0.4535310000000  0.4415670000000 1.0
C      1  0.4631860000000  0.5454350000000  0.5571700000000 1.0
C      1  0.4317400000000  0.5294560000000  0.5130730000000 1.0
C      1  0.5691030000000  0.4726590000000  0.4897130000000 1.0
C      1  0.4942730000000  0.5603030000000  0.5187690000000 1.0
C      1  0.5076500000000  0.4428500000000  0.4822620000000 1.0
C      1  0.5719510000000  0.4780090000000  0.5194330000000 1.0
C      1  0.4301890000000  0.5193140000000  0.4864830000000 1.0
C      1  0.5312760000000  0.5747330000000  0.4898070000000 1.0
C      1  0.4685820000000  0.4263690000000  0.5064480000000 1.0
C      1  0.5184740000000  0.5373850000000  0.4833640000000 1.0
C      1  0.4826120000000  0.4644620000000  0.5162810000000 1.0
C      1  0.4896550000000  0.5053010000000  0.4333880000000 1.0
C      1  0.5076750000000  0.4923060000000  0.5686800000000 1.0
C      1  0.5023310000000  0.5449170000000  0.4388560000000 1.0
C      1  0.4965930000000  0.4537930000000  0.5604580000000 1.0
C      1  0.4645500000000  0.5050630000000  0.5164890000000 1.0
C      1  0.5459800000000  0.5029240000000  0.4858690000000 1.0
C      1  0.5620440000000  0.4910460000000  0.4641490000000 1.0
C      1  0.4396500000000  0.5104560000000  0.5348320000000 1.0
C      1  0.4318530000000  0.4819750000000  0.5342610000000 1.0
C      1  0.5686500000000  0.5180560000000  0.4548330000000 1.0
C      1  0.5206450000000  0.5105510000000  0.4718490000000 1.0
C      1  0.4807900000000  0.4892390000000  0.5309280000000 1.0
C      1  0.4948750000000  0.4225160000000  0.4984760000000 1.0
C      1  0.5043700000000  0.5788090000000  0.4991470000000 1.0
C      1  0.5244750000000  0.5000620000000  0.5471240000000 1.0
C      1  0.4723140000000  0.4972600000000  0.4541430000000 1.0
C      1  0.5446360000000  0.5506980000000  0.4811530000000 1.0
C      1  0.4563170000000  0.4504630000000  0.5171010000000 1.0
C      1  0.4475340000000  0.5535840000000  0.5128350000000 1.0
C      1  0.5542640000000  0.4482190000000  0.4882210000000 1.0
C      1  0.4834380000000  0.5671880000000  0.4826490000000 1.0
C      1  0.5168990000000  0.4329760000000  0.5152970000000 1.0
C      1  0.4585840000000  0.5185490000000  0.5575660000000 1.0
C      1  0.5404280000000  0.4809270000000  0.4436810000000 1.0
C      1  0.5041480000000  0.4937390000000  0.4909340000000 1.0
END
