TITL C-234706-186-5 -0.117993626018742 125000 -739.781757561892 0 0 104 (Ci) n - 1
REM
REM in /rds/project/t2_vol4/rds-t2-cs072/BORA/CARBON/from-Arr/AIRSS/Generating-Clusters/GAP-ML-2020/Higher-Symm/SD-CG/HFTN-CG
REM
REM
REM
REM
REM
REM ./C.cell (b20cbc046b6831c77cfcea5457e17084)
REM AIRSS Version 0.9.1 bugfix July 2018 build 013d7b7c2542+ Fri, 06 Jul 2018 19:26:36 +0100
REM compiler GCC version 9.3.0
REM options -cpp -mtune=generic -march=x86-64 -g -O0
REM seed 876419859 1698869698 836314988 1404259010 732315707 -1490213926 1278713848 -352197949 253242731 2006773762 1342771950 1965505612 2055566480 -1744534762 -945905984 289716730 -1595684591 -802348562 -852243523 1136922592 -568240373 -1299970703 559929034 -613443172 1350572765 1719865423 -1824976586 -5117673 -660312316 -863514888 -399785706 1828296855 -756008107
REM
CELL 1.54180   50.00000   50.00000   50.00000   90.00000   90.00000   90.00000
LATT -1
SFAC C  
C      1  0.4403500000000  0.5573260000000  0.4974450000000 1.0
C      1  0.5596500000000  0.4426740000000  0.5025550000000 1.0
C      1  0.4341790000000  0.5315010000000  0.4657630000000 1.0
C      1  0.5658210000000  0.4684990000000  0.5342370000000 1.0
C      1  0.5079730000000  0.4174430000000  0.5315910000000 1.0
C      1  0.4920270000000  0.5825570000000  0.4684090000000 1.0
C      1  0.4254270000000  0.4958480000000  0.5539930000000 1.0
C      1  0.5745730000000  0.5041520000000  0.4460070000000 1.0
C      1  0.5495500000000  0.5060110000000  0.5685670000000 1.0
C      1  0.4504500000000  0.4939890000000  0.4314330000000 1.0
C      1  0.4771790000000  0.4694400000000  0.4890250000000 1.0
C      1  0.5228210000000  0.5305600000000  0.5109750000000 1.0
C      1  0.5747840000000  0.4796310000000  0.4619140000000 1.0
C      1  0.4252160000000  0.5203690000000  0.5380860000000 1.0
C      1  0.5671120000000  0.4927620000000  0.5480490000000 1.0
C      1  0.4328880000000  0.5072380000000  0.4519510000000 1.0
C      1  0.5312730000000  0.5404900000000  0.4191990000000 1.0
C      1  0.4687270000000  0.4595100000000  0.5808010000000 1.0
C      1  0.5562520000000  0.5336130000000  0.4100920000000 1.0
C      1  0.4437480000000  0.4663870000000  0.5899080000000 1.0
C      1  0.5343540000000  0.5545810000000  0.5708770000000 1.0
C      1  0.4656460000000  0.4454190000000  0.4291230000000 1.0
C      1  0.4730150000000  0.5667210000000  0.4549880000000 1.0
C      1  0.5269850000000  0.4332790000000  0.5450120000000 1.0
C      1  0.5717980000000  0.5152040000000  0.4204920000000 1.0
C      1  0.4282020000000  0.4847960000000  0.5795080000000 1.0
C      1  0.5368850000000  0.5278340000000  0.4642200000000 1.0
C      1  0.4631150000000  0.4721660000000  0.5357800000000 1.0
C      1  0.5835640000000  0.4845240000000  0.4892840000000 1.0
C      1  0.4164360000000  0.5154760000000  0.5107160000000 1.0
C      1  0.4641320000000  0.4200460000000  0.4409810000000 1.0
C      1  0.5358680000000  0.5799540000000  0.5590190000000 1.0
C      1  0.5775860000000  0.4645500000000  0.5081390000000 1.0
C      1  0.4224140000000  0.5354500000000  0.4918610000000 1.0
C      1  0.5083920000000  0.5452380000000  0.5781680000000 1.0
C      1  0.4916080000000  0.4547620000000  0.4218320000000 1.0
C      1  0.5352600000000  0.4631410000000  0.4366020000000 1.0
C      1  0.4647400000000  0.5368590000000  0.5633980000000 1.0
C      1  0.4910950000000  0.5757240000000  0.5447000000000 1.0
C      1  0.5089050000000  0.4242760000000  0.4553000000000 1.0
C      1  0.5844620000000  0.5105250000000  0.5024620000000 1.0
C      1  0.4155380000000  0.4894750000000  0.4975380000000 1.0
C      1  0.5181190000000  0.5851530000000  0.5387270000000 1.0
C      1  0.4818810000000  0.4148470000000  0.4612730000000 1.0
C      1  0.5130660000000  0.4882670000000  0.5340650000000 1.0
C      1  0.4869340000000  0.5117330000000  0.4659350000000 1.0
C      1  0.4780680000000  0.4149690000000  0.4899900000000 1.0
C      1  0.5219320000000  0.5850310000000  0.5100100000000 1.0
C      1  0.4965490000000  0.4819920000000  0.4172690000000 1.0
C      1  0.5034510000000  0.5180080000000  0.5827310000000 1.0
C      1  0.5660850000000  0.5262800000000  0.4621270000000 1.0
C      1  0.4339150000000  0.4737200000000  0.5378730000000 1.0
C      1  0.5204330000000  0.4860080000000  0.4887400000000 1.0
C      1  0.4795670000000  0.5139920000000  0.5112600000000 1.0
C      1  0.4775770000000  0.4824040000000  0.5634070000000 1.0
C      1  0.5224230000000  0.5175960000000  0.4365930000000 1.0
C      1  0.4917370000000  0.5220980000000  0.4382120000000 1.0
C      1  0.5082630000000  0.4779020000000  0.5617880000000 1.0
C      1  0.5644900000000  0.5551920000000  0.4995970000000 1.0
C      1  0.4355100000000  0.4448080000000  0.5004030000000 1.0
C      1  0.5776850000000  0.5337490000000  0.4868070000000 1.0
C      1  0.4223150000000  0.4662510000000  0.5131930000000 1.0
C      1  0.4839480000000  0.4248040000000  0.5460440000000 1.0
C      1  0.5160520000000  0.5751960000000  0.4539560000000 1.0
C      1  0.4507200000000  0.4547070000000  0.4793120000000 1.0
C      1  0.5492800000000  0.5452930000000  0.5206880000000 1.0
C      1  0.4954840000000  0.4857060000000  0.4738070000000 1.0
C      1  0.5045160000000  0.5142940000000  0.5261930000000 1.0
C      1  0.5535360000000  0.5336390000000  0.5653740000000 1.0
C      1  0.4464640000000  0.4663610000000  0.4346260000000 1.0
C      1  0.4690920000000  0.4883120000000  0.5110360000000 1.0
C      1  0.5309080000000  0.5116880000000  0.4889640000000 1.0
C      1  0.4865220000000  0.4375040000000  0.5716640000000 1.0
C      1  0.5134780000000  0.5624960000000  0.4283360000000 1.0
C      1  0.5243310000000  0.4245590000000  0.4784320000000 1.0
C      1  0.4756690000000  0.5754410000000  0.5215680000000 1.0
C      1  0.5180520000000  0.4693260000000  0.5133350000000 1.0
C      1  0.4819480000000  0.5306740000000  0.4866650000000 1.0
C      1  0.4770330000000  0.5117410000000  0.5726800000000 1.0
C      1  0.5229670000000  0.4882590000000  0.4273200000000 1.0
C      1  0.4328260000000  0.4639820000000  0.4595590000000 1.0
C      1  0.5671740000000  0.5360180000000  0.5404410000000 1.0
C      1  0.5491880000000  0.4385530000000  0.4770250000000 1.0
C      1  0.4508120000000  0.5614470000000  0.5229750000000 1.0
C      1  0.4719650000000  0.4432500000000  0.5268410000000 1.0
C      1  0.5280350000000  0.5567500000000  0.4731590000000 1.0
C      1  0.5122660000000  0.4480350000000  0.5655540000000 1.0
C      1  0.4877340000000  0.5519650000000  0.4344460000000 1.0
C      1  0.4954030000000  0.5781290000000  0.4986010000000 1.0
C      1  0.5045970000000  0.4218710000000  0.5013990000000 1.0
C      1  0.4569210000000  0.4274430000000  0.5066010000000 1.0
C      1  0.5430790000000  0.5725570000000  0.4933990000000 1.0
C      1  0.5055850000000  0.5488020000000  0.4928880000000 1.0
C      1  0.4944150000000  0.4511980000000  0.5071120000000 1.0
C      1  0.4441310000000  0.5415550000000  0.5437810000000 1.0
C      1  0.5558690000000  0.4584450000000  0.4562190000000 1.0
C      1  0.5431320000000  0.4498340000000  0.5267440000000 1.0
C      1  0.4568680000000  0.5501660000000  0.4732560000000 1.0
C      1  0.4211660000000  0.4875280000000  0.4691300000000 1.0
C      1  0.5788340000000  0.5124720000000  0.5308700000000 1.0
C      1  0.5232030000000  0.4984350000000  0.5779860000000 1.0
C      1  0.4767970000000  0.5015650000000  0.4220140000000 1.0
C      1  0.5143470000000  0.4436340000000  0.4350770000000 1.0
C      1  0.4856530000000  0.5563660000000  0.5649230000000 1.0
END
