TITL C-235481-3760-5 -0.12997287453534 125000 -417.067732651714 0 0 62 (C3) n - 1
REM
REM in /rds/project/t2_vol4/rds-t2-cs072/BORA/CARBON/from-Arr/AIRSS/Generating-Clusters/GAP-ML-2020/Higher-Symm/SD-CG/HFTN-CG
REM
REM
REM
REM
REM
REM ./C.cell (b20cbc046b6831c77cfcea5457e17084)
REM AIRSS Version 0.9.1 bugfix July 2018 build 013d7b7c2542+ Fri, 06 Jul 2018 19:26:36 +0100
REM compiler GCC version 9.3.0
REM options -cpp -mtune=generic -march=x86-64 -g -O0
REM seed 1889352666 1823086113 -648803104 986267049 803899888 -2054625172 -1366713316 -1774206888 -562471806 -1894508588 -1349336529 805565153 1213982712 -1781171627 1736136065 1383900045 -1458147261 884543691 1585014678 1882537427 85130239 448779347 -1288549561 -1147372562 -559491211 429483123 1589445042 -430919587 2034456905 1243392895 -347797849 371906883 -614786147
REM
CELL 1.54180   50.00000   50.00000   50.00000   90.00000   90.00000   90.00000
LATT -1
SFAC C  
C      1  0.4988910000000  0.4886570000000  0.4222800000000 1.0
C      1  0.4322210000000  0.4886370000000  0.5406010000000 1.0
C      1  0.5680250000000  0.4886480000000  0.5391790000000 1.0
C      1  0.4718980000000  0.4485420000000  0.4923490000000 1.0
C      1  0.5064080000000  0.4485400000000  0.5289380000000 1.0
C      1  0.5208400000000  0.4485480000000  0.4807570000000 1.0
C      1  0.4822030000000  0.4996880000000  0.4790620000000 1.0
C      1  0.4897370000000  0.4996830000000  0.5266630000000 1.0
C      1  0.5271940000000  0.4996890000000  0.4963380000000 1.0
C      1  0.5695650000000  0.5493450000000  0.5079390000000 1.0
C      1  0.4710520000000  0.5493460000000  0.4365730000000 1.0
C      1  0.4585040000000  0.5493290000000  0.5575700000000 1.0
C      1  0.5491530000000  0.4713580000000  0.5498620000000 1.0
C      1  0.5175830000000  0.4713700000000  0.4332800000000 1.0
C      1  0.4324050000000  0.4713520000000  0.5189110000000 1.0
C      1  0.5180810000000  0.4979150000000  0.5229960000000 1.0
C      1  0.5098460000000  0.4979200000000  0.4736250000000 1.0
C      1  0.4712070000000  0.4979130000000  0.5054420000000 1.0
C      1  0.5747210000000  0.4966020000000  0.5121780000000 1.0
C      1  0.4721580000000  0.4966040000000  0.4299820000000 1.0
C      1  0.4522560000000  0.4965860000000  0.5599020000000 1.0
C      1  0.4802170000000  0.4875270000000  0.5541130000000 1.0
C      1  0.5557280000000  0.4875420000000  0.4908560000000 1.0
C      1  0.4631910000000  0.4875380000000  0.4570900000000 1.0
C      1  0.5031260000000  0.4921670000000  0.5721010000000 1.0
C      1  0.5598510000000  0.4921860000000  0.4620230000000 1.0
C      1  0.4361590000000  0.4921750000000  0.4679360000000 1.0
C      1  0.4454330000000  0.5206650000000  0.5076420000000 1.0
C      1  0.5328680000000  0.5206670000000  0.5442200000000 1.0
C      1  0.5208280000000  0.5206780000000  0.4502100000000 1.0
C      1  0.4312090000000  0.5167700000000  0.5330590000000 1.0
C      1  0.5619930000000  0.5167790000000  0.5438290000000 1.0
C      1  0.5059280000000  0.5167900000000  0.4251820000000 1.0
C      1  0.5280870000000  0.4803750000000  0.5674540000000 1.0
C      1  0.5433490000000  0.4803920000000  0.4427280000000 1.0
C      1  0.4277020000000  0.4803770000000  0.4918740000000 1.0
C      1  0.5003650000000  0.5581680000000  0.5278640000000 1.0
C      1  0.5229050000000  0.5581750000000  0.4865400000000 1.0
C      1  0.4758480000000  0.5581710000000  0.4876820000000 1.0
C      1  0.4788980000000  0.4580320000000  0.5513800000000 1.0
C      1  0.5540280000000  0.4580460000000  0.4933610000000 1.0
C      1  0.4662170000000  0.4580430000000  0.4573060000000 1.0
C      1  0.5743230000000  0.5251040000000  0.5185670000000 1.0
C      1  0.4778830000000  0.5251080000000  0.4271350000000 1.0
C      1  0.4469210000000  0.5250890000000  0.5563710000000 1.0
C      1  0.4600710000000  0.5465120000000  0.5080020000000 1.0
C      1  0.5258550000000  0.5465150000000  0.5313650000000 1.0
C      1  0.5131960000000  0.5465230000000  0.4627130000000 1.0
C      1  0.4848450000000  0.5536890000000  0.4603600000000 1.0
C      1  0.4722070000000  0.5536780000000  0.5337320000000 1.0
C      1  0.5420680000000  0.5536870000000  0.5079920000000 1.0
C      1  0.5148760000000  0.4700160000000  0.4616520000000 1.0
C      1  0.4583300000000  0.4700050000000  0.5070690000000 1.0
C      1  0.5259350000000  0.4700070000000  0.5333310000000 1.0
C      1  0.4941550000000  0.4366830000000  0.5523320000000 1.0
C      1  0.5472290000000  0.4366960000000  0.4796700000000 1.0
C      1  0.4577650000000  0.4366900000000  0.4700380000000 1.0
C      1  0.5242610000000  0.5090510000000  0.5699430000000 1.0
C      1  0.5474110000000  0.5090690000000  0.4448000000000 1.0
C      1  0.4274590000000  0.5090540000000  0.4873230000000 1.0
C      1  0.4997160000000  0.4449910000000  0.5006810000000 1.0
C      1  0.4997060000000  0.5655250000000  0.5006960000000 1.0
END
