TITL C-233925-2146-3 310.819479690864 27000 -171.790883527749 0 0 27 (C1) n - 1
REM
REM in /rds/project/t2_vol4/rds-t2-cs072/BORA/CARBON/from-Arr/AIRSS/Generating-Clusters/GAP-ML-2020/Higher-Symm/SD-CG/HFTN-CG/Box-30A
REM
REM
REM
REM
REM
REM ./C.cell (13fc22856271072ba132eecf8fb47ea5)
REM AIRSS Version 0.9.1 bugfix July 2018 build 013d7b7c2542+ Fri, 06 Jul 2018 19:26:36 +0100
REM compiler GCC version 9.3.0
REM options -cpp -mtune=generic -march=x86-64 -g -O0
REM seed 599786441 -49335575 -2118562558 -1865320388 503284690 451083242 -704055123 706716393 1311443819 -723966121 -1756830584 440474394 -865690770 -2043358540 1944215956 -60612532 -372083935 -206804161 1323125169 -1971647097 2046558699 -1094290023 212547397 547124298 -614080988 -2104671199 87075411 1178793885 -1572034573 1364453012 -1735668537 -446992256 1460311336
REM
CELL 1.54180   30.00000   30.00000   30.00000   90.00000   90.00000   90.00000
LATT -1
SFAC C  
C      1  0.4296080000000  0.5749820000000  0.5215650000000 1.0
C      1  0.4867820000000  0.3994630000000  0.5301740000000 1.0
C      1  0.5770620000000  0.5211990000000  0.5435940000000 1.0
C      1  0.4299860000000  0.5724850000000  0.4734230000000 1.0
C      1  0.4608510000000  0.4212480000000  0.4450950000000 1.0
C      1  0.6150850000000  0.5191160000000  0.4644990000000 1.0
C      1  0.4407330000000  0.4093090000000  0.5338060000000 1.0
C      1  0.4764340000000  0.5948530000000  0.5209440000000 1.0
C      1  0.5775280000000  0.4780980000000  0.5407470000000 1.0
C      1  0.4249560000000  0.4428140000000  0.4605280000000 1.0
C      1  0.4741340000000  0.5973810000000  0.4726540000000 1.0
C      1  0.6129520000000  0.4704450000000  0.4667030000000 1.0
C      1  0.5703690000000  0.5203430000000  0.4499300000000 1.0
C      1  0.4524350000000  0.5332340000000  0.4537000000000 1.0
C      1  0.4892200000000  0.4563810000000  0.4578940000000 1.0
C      1  0.5310540000000  0.5274190000000  0.5199170000000 1.0
C      1  0.4487320000000  0.5345790000000  0.5411690000000 1.0
C      1  0.4986010000000  0.4433840000000  0.5448820000000 1.0
C      1  0.5692120000000  0.4714150000000  0.4502090000000 1.0
C      1  0.4518390000000  0.4883690000000  0.4741140000000 1.0
C      1  0.4957950000000  0.5579690000000  0.4527200000000 1.0
C      1  0.5319920000000  0.4716550000000  0.5208620000000 1.0
C      1  0.4517860000000  0.4533570000000  0.5473820000000 1.0
C      1  0.4940340000000  0.5530530000000  0.5401310000000 1.0
C      1  0.5323990000000  0.4541360000000  0.4750740000000 1.0
C      1  0.5356370000000  0.5413810000000  0.4731990000000 1.0
C      1  0.4407840000000  0.4919330000000  0.5220770000000 1.0
END
