TITL C-234705-249-9 0.00419046203181854 125000 -122.324869788239 0 0 19 (Cs) n - 1
REM
REM in /rds/project/t2_vol4/rds-t2-cs072/BORA/CARBON/from-Arr/AIRSS/Generating-Clusters/GAP-ML-2020/Higher-Symm/SD-CG/HFTN-CG
REM
REM
REM
REM
REM
REM ./C.cell (b20cbc046b6831c77cfcea5457e17084)
REM AIRSS Version 0.9.1 bugfix July 2018 build 013d7b7c2542+ Fri, 06 Jul 2018 19:26:36 +0100
REM compiler GCC version 9.3.0
REM options -cpp -mtune=generic -march=x86-64 -g -O0
REM seed -673112523 -362823729 816080088 572966697 1633093899 873139734 -596279905 430714281 -658974965 505229371 -1954200688 -881057111 -718707246 585823151 -841507316 1372689586 -1001729931 -1025475905 -40093257 1589242839 960756457 -1054927859 -587153975 -803712079 -1626142478 -2026137828 1119160857 162635638 1788261593 1722591294 1414489768 101518348 1016322415
REM
CELL 1.54180   50.00000   50.00000   50.00000   90.00000   90.00000   90.00000
LATT -1
SFAC C  
C      1  0.5269350000000  0.4964980000000  0.5393400000000 1.0
C      1  0.5178800000000  0.5302080000000  0.5172490000000 1.0
C      1  0.5171800000000  0.5212020000000  0.4724060000000 1.0
C      1  0.5257710000000  0.4815230000000  0.4647780000000 1.0
C      1  0.5312640000000  0.4632880000000  0.5071480000000 1.0
C      1  0.5006560000000  0.5252440000000  0.4951830000000 1.0
C      1  0.5127520000000  0.5022760000000  0.4526750000000 1.0
C      1  0.5124180000000  0.4680010000000  0.4853700000000 1.0
C      1  0.5130520000000  0.4761560000000  0.5259750000000 1.0
C      1  0.5141600000000  0.5203920000000  0.5428790000000 1.0
C      1  0.5528650000000  0.5010550000000  0.5239250000000 1.0
C      1  0.5457410000000  0.5255770000000  0.5088360000000 1.0
C      1  0.5453080000000  0.5200090000000  0.4811140000000 1.0
C      1  0.5521240000000  0.4915210000000  0.4764530000000 1.0
C      1  0.5530320000000  0.4807790000000  0.5032960000000 1.0
C      1  0.4799080000000  0.5046020000000  0.4996530000000 1.0
C      1  0.4283390000000  0.5115710000000  0.4990580000000 1.0
C      1  0.4940420000000  0.4808500000000  0.5042020000000 1.0
C      1  0.4533160000000  0.5074990000000  0.4994860000000 1.0
END
