TITL C-237543-9944-2 -15.2201013061298 125000 -341.472935970404 0 0 52 (C1) n - 1
REM
REM in /rds/project/t2_vol4/rds-t2-cs072/BORA/CARBON/from-Arr/AIRSS/Generating-Clusters/GAP-ML-2020/Higher-Symm/SD-CG/HFTN-CG
REM
REM
REM
REM
REM
REM ./C.cell (b20cbc046b6831c77cfcea5457e17084)
REM AIRSS Version 0.9.1 bugfix July 2018 build 013d7b7c2542+ Fri, 06 Jul 2018 19:26:36 +0100
REM compiler GCC version 9.3.0
REM options -cpp -mtune=generic -march=x86-64 -g -O0
REM seed 2097758893 2061422046 1650608195 1383811910 -190421313 -81723673 -1714982248 -2043670846 1213494963 1612420291 205590421 1803645043 -659565214 217157449 1057522931 81569696 -1984806461 -236869603 2042197658 175853328 176559599 -1147258488 -1192666303 -1770403828 1328414325 -403237852 250201117 1267257360 1658312472 -1191492818 908989950 735778608 -1897536893
REM
CELL 1.54180   50.00000   50.00000   50.00000   90.00000   90.00000   90.00000
LATT -1
SFAC C  
C      1  0.4868560000000  0.5100130000000  0.5209920000000 1.0
C      1  0.4834420000000  0.4736950000000  0.4905420000000 1.0
C      1  0.4644790000000  0.5200390000000  0.4821400000000 1.0
C      1  0.5145530000000  0.5068080000000  0.5309280000000 1.0
C      1  0.5127390000000  0.4623880000000  0.4956870000000 1.0
C      1  0.5197020000000  0.5091360000000  0.4784560000000 1.0
C      1  0.5256510000000  0.4552010000000  0.5220420000000 1.0
C      1  0.5260120000000  0.5144330000000  0.4494940000000 1.0
C      1  0.5318410000000  0.5296440000000  0.5277130000000 1.0
C      1  0.4660440000000  0.4616780000000  0.5142210000000 1.0
C      1  0.4716310000000  0.4975790000000  0.4450690000000 1.0
C      1  0.4728520000000  0.5365840000000  0.5283210000000 1.0
C      1  0.4697620000000  0.4785680000000  0.5542450000000 1.0
C      1  0.4792070000000  0.4566130000000  0.4420400000000 1.0
C      1  0.4769000000000  0.5631890000000  0.4949050000000 1.0
C      1  0.5213280000000  0.4706960000000  0.5610520000000 1.0
C      1  0.5283320000000  0.4684260000000  0.4537570000000 1.0
C      1  0.5299480000000  0.5557290000000  0.4935360000000 1.0
C      1  0.5204580000000  0.4401800000000  0.4578150000000 1.0
C      1  0.5181200000000  0.5683270000000  0.4710550000000 1.0
C      1  0.5117760000000  0.4917410000000  0.5775800000000 1.0
C      1  0.4921900000000  0.4352380000000  0.4549120000000 1.0
C      1  0.4897910000000  0.5650490000000  0.4695740000000 1.0
C      1  0.4834570000000  0.4954260000000  0.5727910000000 1.0
C      1  0.4600230000000  0.4397690000000  0.4945330000000 1.0
C      1  0.4671670000000  0.5245950000000  0.4538950000000 1.0
C      1  0.4621650000000  0.5319650000000  0.5550480000000 1.0
C      1  0.5434230000000  0.4352520000000  0.5064170000000 1.0
C      1  0.5336210000000  0.5395930000000  0.4417980000000 1.0
C      1  0.5449110000000  0.5242300000000  0.5550470000000 1.0
C      1  0.4885130000000  0.5631410000000  0.5216250000000 1.0
C      1  0.4730740000000  0.4520120000000  0.5429770000000 1.0
C      1  0.4860640000000  0.4803330000000  0.4250800000000 1.0
C      1  0.5234170000000  0.5590870000000  0.5214860000000 1.0
C      1  0.5121730000000  0.4462360000000  0.5489110000000 1.0
C      1  0.5242740000000  0.4887490000000  0.4334860000000 1.0
C      1  0.5346560000000  0.5280390000000  0.4967180000000 1.0
C      1  0.5296050000000  0.4815880000000  0.5360420000000 1.0
C      1  0.5275470000000  0.4805560000000  0.4781870000000 1.0
C      1  0.4600450000000  0.5408240000000  0.5004920000000 1.0
C      1  0.4655050000000  0.4890010000000  0.5282840000000 1.0
C      1  0.4701010000000  0.4743210000000  0.4628690000000 1.0
C      1  0.5306770000000  0.5131620000000  0.5730350000000 1.0
C      1  0.5289790000000  0.4349280000000  0.4842670000000 1.0
C      1  0.5326750000000  0.5646610000000  0.4465380000000 1.0
C      1  0.4690610000000  0.5200040000000  0.5763230000000 1.0
C      1  0.4736070000000  0.4278880000000  0.4763070000000 1.0
C      1  0.4769160000000  0.5501020000000  0.4486550000000 1.0
C      1  0.4888930000000  0.4320210000000  0.5542700000000 1.0
C      1  0.5081720000000  0.5793540000000  0.5330750000000 1.0
C      1  0.5091490000000  0.4833900000000  0.4102510000000 1.0
C      1  0.4875440000000  0.5040810000000  0.4917180000000 1.0
END
