TITL C-239809-2134-6 0.103533222255087 125000 -879.262376785828 0 0 126 (C1) n - 1
REM
REM in /rds/project/t2_vol4/rds-t2-cs072/BORA/CARBON/from-Arr/AIRSS/Generating-Clusters/GAP-ML-2020/Higher-Symm/SD-CG/HFTN-CG
REM
REM
REM
REM
REM
REM ./C.cell (b20cbc046b6831c77cfcea5457e17084)
REM AIRSS Version 0.9.1 bugfix July 2018 build 013d7b7c2542+ Fri, 06 Jul 2018 19:26:36 +0100
REM compiler GCC version 9.3.0
REM options -cpp -mtune=generic -march=x86-64 -g -O0
REM seed 321000053 -1687097265 -92104572 -450372278 161660570 -1250254763 871198417 1432758518 494580319 -563684927 2114852716 -1252839664 -1339935474 832944415 -134514145 898462461 251707137 -496200937 -1332868400 -889139170 499876458 -95128843 -573184011 12166822 851561483 -1737775989 851916438 415150117 2066632922 577302639 1238797504 -976187522 -1964203592
REM
CELL 1.54180   50.00000   50.00000   50.00000   90.00000   90.00000   90.00000
LATT -1
SFAC C  
C      1  0.4925890000000  0.5418230000000  0.5338330000000 1.0
C      1  0.4537690000000  0.4432530000000  0.4814900000000 1.0
C      1  0.4680090000000  0.4691020000000  0.5798170000000 1.0
C      1  0.4785470000000  0.4742690000000  0.5186160000000 1.0
C      1  0.5161520000000  0.5387960000000  0.4320350000000 1.0
C      1  0.5931420000000  0.4926740000000  0.4703090000000 1.0
C      1  0.4699700000000  0.4305960000000  0.5527020000000 1.0
C      1  0.5913100000000  0.5522090000000  0.5019300000000 1.0
C      1  0.5760760000000  0.5165820000000  0.4686470000000 1.0
C      1  0.5252190000000  0.4329150000000  0.5048350000000 1.0
C      1  0.5235950000000  0.5381260000000  0.5739530000000 1.0
C      1  0.4859320000000  0.5025660000000  0.4625880000000 1.0
C      1  0.4654810000000  0.5818120000000  0.5275220000000 1.0
C      1  0.4571070000000  0.5808630000000  0.4996220000000 1.0
C      1  0.4909910000000  0.5735470000000  0.5396110000000 1.0
C      1  0.5775520000000  0.4466010000000  0.4578350000000 1.0
C      1  0.4681540000000  0.4241640000000  0.4621600000000 1.0
C      1  0.3980960000000  0.4921740000000  0.5306540000000 1.0
C      1  0.4348300000000  0.4966110000000  0.5587370000000 1.0
C      1  0.5644570000000  0.5396740000000  0.4532310000000 1.0
C      1  0.5494880000000  0.5303250000000  0.5054570000000 1.0
C      1  0.4907430000000  0.4878440000000  0.5689930000000 1.0
C      1  0.5638640000000  0.4786680000000  0.4285200000000 1.0
C      1  0.5106640000000  0.5282010000000  0.4828430000000 1.0
C      1  0.4789800000000  0.5196520000000  0.4033510000000 1.0
C      1  0.5331940000000  0.4952850000000  0.4516640000000 1.0
C      1  0.4070340000000  0.4753280000000  0.5110300000000 1.0
C      1  0.5177920000000  0.4710630000000  0.4539000000000 1.0
C      1  0.4301530000000  0.5693950000000  0.5020430000000 1.0
C      1  0.4328420000000  0.4983020000000  0.4398620000000 1.0
C      1  0.5059150000000  0.4804180000000  0.5956260000000 1.0
C      1  0.5072180000000  0.5231470000000  0.4084350000000 1.0
C      1  0.4535980000000  0.4509350000000  0.5640560000000 1.0
C      1  0.4758460000000  0.5799580000000  0.4774340000000 1.0
C      1  0.4225530000000  0.4800280000000  0.4604620000000 1.0
C      1  0.4254710000000  0.4564340000000  0.5236920000000 1.0
C      1  0.5215670000000  0.4389740000000  0.5708690000000 1.0
C      1  0.5054300000000  0.5852570000000  0.4818430000000 1.0
C      1  0.5544320000000  0.4988510000000  0.5701420000000 1.0
C      1  0.5463640000000  0.5327340000000  0.4329970000000 1.0
C      1  0.5662620000000  0.5624390000000  0.4710830000000 1.0
C      1  0.5927850000000  0.5670120000000  0.4783360000000 1.0
C      1  0.5578860000000  0.4341820000000  0.4411740000000 1.0
C      1  0.4110340000000  0.5108950000000  0.5456400000000 1.0
C      1  0.4967840000000  0.5409530000000  0.5820210000000 1.0
C      1  0.5922380000000  0.4981440000000  0.5015760000000 1.0
C      1  0.5716900000000  0.5655200000000  0.5187870000000 1.0
C      1  0.4330110000000  0.4653060000000  0.5504380000000 1.0
C      1  0.4932970000000  0.4145760000000  0.4702570000000 1.0
C      1  0.5161110000000  0.5819140000000  0.4567500000000 1.0
C      1  0.4690690000000  0.5298390000000  0.5502640000000 1.0
C      1  0.5247820000000  0.5798370000000  0.5027920000000 1.0
C      1  0.4016380000000  0.5142850000000  0.4822350000000 1.0
C      1  0.5083490000000  0.5040000000000  0.5215930000000 1.0
C      1  0.5460300000000  0.5029500000000  0.4253090000000 1.0
C      1  0.4746650000000  0.5660730000000  0.4511140000000 1.0
C      1  0.5529820000000  0.4729530000000  0.5820700000000 1.0
C      1  0.5505380000000  0.4944040000000  0.5406410000000 1.0
C      1  0.4856330000000  0.4856730000000  0.6145980000000 1.0
C      1  0.5214850000000  0.5392410000000  0.5456170000000 1.0
C      1  0.4006470000000  0.5337760000000  0.5035060000000 1.0
C      1  0.4599280000000  0.4844380000000  0.6029300000000 1.0
C      1  0.4395930000000  0.5256860000000  0.4520000000000 1.0
C      1  0.5172340000000  0.4870960000000  0.4976210000000 1.0
C      1  0.4520860000000  0.5094530000000  0.5389500000000 1.0
C      1  0.5269160000000  0.4616710000000  0.5901660000000 1.0
C      1  0.5238750000000  0.5008740000000  0.4057140000000 1.0
C      1  0.5091220000000  0.5181140000000  0.4557560000000 1.0
C      1  0.5094040000000  0.4187760000000  0.5290920000000 1.0
C      1  0.4613640000000  0.4229110000000  0.5265350000000 1.0
C      1  0.5676480000000  0.5433100000000  0.5652410000000 1.0
C      1  0.5107560000000  0.4754900000000  0.4018680000000 1.0
C      1  0.4094850000000  0.5363680000000  0.5301920000000 1.0
C      1  0.5026100000000  0.5645730000000  0.4406470000000 1.0
C      1  0.5506150000000  0.5265030000000  0.5784860000000 1.0
C      1  0.4860030000000  0.4751410000000  0.3889010000000 1.0
C      1  0.5006860000000  0.4814790000000  0.5395740000000 1.0
C      1  0.4848200000000  0.5650820000000  0.5694790000000 1.0
C      1  0.4596220000000  0.4964500000000  0.5154790000000 1.0
C      1  0.5309290000000  0.4703370000000  0.5379020000000 1.0
C      1  0.5521060000000  0.4954010000000  0.4742640000000 1.0
C      1  0.5125370000000  0.4162720000000  0.4494900000000 1.0
C      1  0.5455210000000  0.4250900000000  0.4844990000000 1.0
C      1  0.4654880000000  0.5188000000000  0.4990660000000 1.0
C      1  0.5801040000000  0.5248260000000  0.4980830000000 1.0
C      1  0.5836280000000  0.4657960000000  0.5434250000000 1.0
C      1  0.5489860000000  0.5623840000000  0.4977480000000 1.0
C      1  0.4726010000000  0.4359460000000  0.4368750000000 1.0
C      1  0.5353850000000  0.5181840000000  0.5295980000000 1.0
C      1  0.4245820000000  0.5610810000000  0.5292910000000 1.0
C      1  0.4553680000000  0.5482610000000  0.4379100000000 1.0
C      1  0.4153580000000  0.5335570000000  0.4654310000000 1.0
C      1  0.5840310000000  0.4733830000000  0.4497430000000 1.0
C      1  0.5674370000000  0.4562920000000  0.5627150000000 1.0
C      1  0.4133890000000  0.5537490000000  0.4856360000000 1.0
C      1  0.4976920000000  0.4773760000000  0.4743520000000 1.0
C      1  0.5183140000000  0.5808270000000  0.5300950000000 1.0
C      1  0.4589200000000  0.5555890000000  0.5637110000000 1.0
C      1  0.5002740000000  0.4281150000000  0.5545680000000 1.0
C      1  0.4422960000000  0.4369510000000  0.5096570000000 1.0
C      1  0.4786400000000  0.5163030000000  0.5744340000000 1.0
C      1  0.4489570000000  0.4825110000000  0.4217750000000 1.0
C      1  0.4816540000000  0.4584060000000  0.4918220000000 1.0
C      1  0.5591520000000  0.4691820000000  0.4967980000000 1.0
C      1  0.4455810000000  0.5709360000000  0.5447760000000 1.0
C      1  0.4516570000000  0.5040210000000  0.5841010000000 1.0
C      1  0.4972110000000  0.4311120000000  0.4935270000000 1.0
C      1  0.4075610000000  0.4869700000000  0.4837580000000 1.0
C      1  0.5485900000000  0.4537800000000  0.4236080000000 1.0
C      1  0.4681790000000  0.4920090000000  0.4018820000000 1.0
C      1  0.5338980000000  0.5112320000000  0.4893660000000 1.0
C      1  0.4640440000000  0.5383160000000  0.4146530000000 1.0
C      1  0.4383880000000  0.4566340000000  0.4595220000000 1.0
C      1  0.5424080000000  0.4467970000000  0.5533400000000 1.0
C      1  0.5349640000000  0.5650320000000  0.5465600000000 1.0
C      1  0.5394380000000  0.4186300000000  0.4572500000000 1.0
C      1  0.5768210000000  0.4815810000000  0.5211810000000 1.0
C      1  0.5669390000000  0.4437360000000  0.4837870000000 1.0
C      1  0.5326440000000  0.4631720000000  0.5096860000000 1.0
C      1  0.5183270000000  0.4562800000000  0.4226830000000 1.0
C      1  0.4523450000000  0.4565880000000  0.4345000000000 1.0
C      1  0.4625730000000  0.5151620000000  0.4717410000000 1.0
C      1  0.5009100000000  0.4332320000000  0.4295590000000 1.0
C      1  0.4925300000000  0.5269690000000  0.5077150000000 1.0
C      1  0.5634660000000  0.5618790000000  0.5453990000000 1.0
C      1  0.4853650000000  0.4147690000000  0.5147440000000 1.0
END
