TITL C-234692-267-1 -18.0690553985585 125000 -726.536250651154 0 0 103 (C1) n - 1
REM
REM in /rds/project/t2_vol4/rds-t2-cs072/BORA/CARBON/from-Arr/AIRSS/Generating-Clusters/GAP-ML-2020/Higher-Symm/SD-CG/HFTN-CG
REM
REM
REM
REM
REM
REM ./C.cell (b20cbc046b6831c77cfcea5457e17084)
REM AIRSS Version 0.9.1 bugfix July 2018 build 013d7b7c2542+ Fri, 06 Jul 2018 19:26:36 +0100
REM compiler GCC version 9.3.0
REM options -cpp -mtune=generic -march=x86-64 -g -O0
REM seed -1554302501 2016868137 1885108381 -2013523501 193148570 764978871 -352174582 -300688724 -1559292265 1974586374 868106363 -1193469945 -587343317 1940882405 585568568 -903013883 2022194557 -1357981427 -299739058 -1158898768 244084269 1226375407 55699643 -549532304 -2007972719 -366453459 -2116456098 2119806616 153814821 1801706565 726023551 -761690240 -1761038633
REM
CELL 1.54180   50.00000   50.00000   50.00000   90.00000   90.00000   90.00000
LATT -1
SFAC C  
C      1  0.4106740000000  0.5042270000000  0.5013300000000 1.0
C      1  0.5860920000000  0.4921880000000  0.5028690000000 1.0
C      1  0.5576750000000  0.4537940000000  0.4830330000000 1.0
C      1  0.4451520000000  0.5460670000000  0.5171580000000 1.0
C      1  0.5150120000000  0.4606260000000  0.4159410000000 1.0
C      1  0.4847130000000  0.5392930000000  0.5835530000000 1.0
C      1  0.4306920000000  0.4861090000000  0.4583710000000 1.0
C      1  0.5684370000000  0.5104950000000  0.5442350000000 1.0
C      1  0.4258520000000  0.5099680000000  0.4779390000000 1.0
C      1  0.5786790000000  0.4878520000000  0.5286130000000 1.0
C      1  0.5522300000000  0.5716670000000  0.5008070000000 1.0
C      1  0.4495390000000  0.4252520000000  0.5013750000000 1.0
C      1  0.5104550000000  0.4591100000000  0.4906920000000 1.0
C      1  0.4912710000000  0.5286600000000  0.5045670000000 1.0
C      1  0.4575290000000  0.5079140000000  0.5431430000000 1.0
C      1  0.5434290000000  0.4896220000000  0.4533080000000 1.0
C      1  0.4801570000000  0.5865630000000  0.4961150000000 1.0
C      1  0.5218700000000  0.4138080000000  0.5052240000000 1.0
C      1  0.4287650000000  0.5388040000000  0.4713000000000 1.0
C      1  0.5691220000000  0.4609330000000  0.5322480000000 1.0
C      1  0.5044350000000  0.5188800000000  0.5871740000000 1.0
C      1  0.4944400000000  0.4802580000000  0.4121630000000 1.0
C      1  0.5260150000000  0.5241110000000  0.5677920000000 1.0
C      1  0.4738500000000  0.4741450000000  0.4328120000000 1.0
C      1  0.5562720000000  0.5626550000000  0.5275820000000 1.0
C      1  0.4455440000000  0.4358210000000  0.4747430000000 1.0
C      1  0.5208770000000  0.4884390000000  0.5246040000000 1.0
C      1  0.4740970000000  0.5151820000000  0.4634240000000 1.0
C      1  0.5168650000000  0.5866880000000  0.5259870000000 1.0
C      1  0.4852560000000  0.4157320000000  0.4760960000000 1.0
C      1  0.4956810000000  0.4926240000000  0.5803720000000 1.0
C      1  0.5018450000000  0.5073920000000  0.4171980000000 1.0
C      1  0.5377900000000  0.5260460000000  0.5097270000000 1.0
C      1  0.4624280000000  0.4790160000000  0.4910310000000 1.0
C      1  0.5433740000000  0.4245110000000  0.5206920000000 1.0
C      1  0.4565120000000  0.5759370000000  0.4816840000000 1.0
C      1  0.5494070000000  0.5049160000000  0.5653270000000 1.0
C      1  0.4488070000000  0.4918380000000  0.4375920000000 1.0
C      1  0.5120870000000  0.4270880000000  0.4802600000000 1.0
C      1  0.4882520000000  0.5855170000000  0.5245710000000 1.0
C      1  0.4910850000000  0.4911660000000  0.4556790000000 1.0
C      1  0.5092280000000  0.5103950000000  0.5419330000000 1.0
C      1  0.5177330000000  0.5056080000000  0.4433990000000 1.0
C      1  0.4842590000000  0.4956980000000  0.5516850000000 1.0
C      1  0.5639350000000  0.5522110000000  0.4828380000000 1.0
C      1  0.4369400000000  0.4430270000000  0.5202090000000 1.0
C      1  0.5047200000000  0.5884720000000  0.4806220000000 1.0
C      1  0.4980290000000  0.4061030000000  0.5195620000000 1.0
C      1  0.5790320000000  0.5338910000000  0.4987040000000 1.0
C      1  0.4224630000000  0.4616550000000  0.5042270000000 1.0
C      1  0.5501370000000  0.4430160000000  0.4562340000000 1.0
C      1  0.4538010000000  0.5555230000000  0.5427850000000 1.0
C      1  0.5039800000000  0.5804660000000  0.4533820000000 1.0
C      1  0.5002990000000  0.4037300000000  0.5466870000000 1.0
C      1  0.5058990000000  0.4396290000000  0.4335990000000 1.0
C      1  0.4953050000000  0.5602970000000  0.5668760000000 1.0
C      1  0.5613000000000  0.4438780000000  0.5097850000000 1.0
C      1  0.4379330000000  0.5567440000000  0.4921170000000 1.0
C      1  0.4773410000000  0.5712450000000  0.5465670000000 1.0
C      1  0.5247060000000  0.4304850000000  0.4540980000000 1.0
C      1  0.4813620000000  0.5274290000000  0.4194400000000 1.0
C      1  0.5135990000000  0.4703930000000  0.5792300000000 1.0
C      1  0.5378460000000  0.4756690000000  0.4815720000000 1.0
C      1  0.4619700000000  0.5220640000000  0.5133770000000 1.0
C      1  0.4190030000000  0.4857080000000  0.5188520000000 1.0
C      1  0.5822260000000  0.5101600000000  0.4836860000000 1.0
C      1  0.4961280000000  0.5298620000000  0.4764950000000 1.0
C      1  0.5075540000000  0.4641390000000  0.5201250000000 1.0
C      1  0.5147940000000  0.5574630000000  0.4387900000000 1.0
C      1  0.4726330000000  0.4507260000000  0.5562650000000 1.0
C      1  0.5345170000000  0.5714450000000  0.5435950000000 1.0
C      1  0.4671780000000  0.4285200000000  0.4580270000000 1.0
C      1  0.5513110000000  0.5359120000000  0.4623790000000 1.0
C      1  0.4477830000000  0.4572560000000  0.5434140000000 1.0
C      1  0.4425280000000  0.5447320000000  0.4477700000000 1.0
C      1  0.5531140000000  0.4547190000000  0.5553700000000 1.0
C      1  0.5131610000000  0.4244390000000  0.5597070000000 1.0
C      1  0.4798290000000  0.5749210000000  0.4389070000000 1.0
C      1  0.4849980000000  0.4686080000000  0.5380190000000 1.0
C      1  0.5220180000000  0.5336070000000  0.4550520000000 1.0
C      1  0.4379120000000  0.4849030000000  0.5406430000000 1.0
C      1  0.5636610000000  0.5107150000000  0.4610790000000 1.0
C      1  0.5389290000000  0.4307920000000  0.5485310000000 1.0
C      1  0.4573460000000  0.5688250000000  0.4536160000000 1.0
C      1  0.5416770000000  0.4760200000000  0.5716380000000 1.0
C      1  0.4583050000000  0.5209990000000  0.4371790000000 1.0
C      1  0.5647440000000  0.5336110000000  0.5250640000000 1.0
C      1  0.4361260000000  0.4634460000000  0.4776220000000 1.0
C      1  0.5118540000000  0.5329680000000  0.5229360000000 1.0
C      1  0.4906470000000  0.4784830000000  0.4824010000000 1.0
C      1  0.4746300000000  0.4106520000000  0.5016880000000 1.0
C      1  0.5272520000000  0.5865140000000  0.4993430000000 1.0
C      1  0.4524800000000  0.5330230000000  0.5604790000000 1.0
C      1  0.5504650000000  0.4646690000000  0.4372370000000 1.0
C      1  0.4783090000000  0.4449580000000  0.4381590000000 1.0
C      1  0.5227850000000  0.5547010000000  0.5631100000000 1.0
C      1  0.4576740000000  0.5370760000000  0.5869350000000 1.0
C      1  0.5418470000000  0.4616690000000  0.4116110000000 1.0
C      1  0.4911320000000  0.5531710000000  0.4227800000000 1.0
C      1  0.4985300000000  0.4470890000000  0.5699530000000 1.0
C      1  0.5313710000000  0.4989410000000  0.5008090000000 1.0
C      1  0.4555980000000  0.5069040000000  0.4875880000000 1.0
C      1  0.5037850000000  0.5031760000000  0.4930170000000 1.0
END
