TITL C-239806-2097-2 0.018108050871103 125000 -432.318197634001 0 0 64 (C1) n - 1
REM
REM in /rds/project/t2_vol4/rds-t2-cs072/BORA/CARBON/from-Arr/AIRSS/Generating-Clusters/GAP-ML-2020/Higher-Symm/SD-CG/HFTN-CG
REM
REM
REM
REM
REM
REM ./C.cell (b20cbc046b6831c77cfcea5457e17084)
REM AIRSS Version 0.9.1 bugfix July 2018 build 013d7b7c2542+ Fri, 06 Jul 2018 19:26:36 +0100
REM compiler GCC version 9.3.0
REM options -cpp -mtune=generic -march=x86-64 -g -O0
REM seed 440332522 474071713 -1447590678 883203292 -144392669 1896954211 1225688815 348551811 1353865896 1616146494 1480976766 -1132226289 -1476796502 -1986708952 812678429 844303044 -1501050153 -1583912580 629136222 1070006859 -776150187 -1847896914 -731536754 1325045556 1600306458 -1310075692 -864254216 695059412 -1666543684 -2077944793 -567890753 1901336228 -259192078
REM
CELL 1.54180   50.00000   50.00000   50.00000   90.00000   90.00000   90.00000
LATT -1
SFAC C  
C      1  0.5629630000000  0.5441610000000  0.5210120000000 1.0
C      1  0.5268100000000  0.5468690000000  0.4572880000000 1.0
C      1  0.4615470000000  0.5432600000000  0.4572110000000 1.0
C      1  0.4409030000000  0.5448010000000  0.5169820000000 1.0
C      1  0.4969950000000  0.5464370000000  0.5586840000000 1.0
C      1  0.4594300000000  0.4536810000000  0.4821940000000 1.0
C      1  0.4687570000000  0.4553620000000  0.5520130000000 1.0
C      1  0.5245800000000  0.4576740000000  0.5424780000000 1.0
C      1  0.5468950000000  0.4568070000000  0.4779070000000 1.0
C      1  0.5007210000000  0.4587260000000  0.4400300000000 1.0
C      1  0.4693160000000  0.5231390000000  0.4385890000000 1.0
C      1  0.4263310000000  0.5230720000000  0.5051040000000 1.0
C      1  0.4844860000000  0.5251220000000  0.5713900000000 1.0
C      1  0.5675060000000  0.5195880000000  0.5364540000000 1.0
C      1  0.5469560000000  0.5275770000000  0.4532460000000 1.0
C      1  0.4472840000000  0.5192330000000  0.4541460000000 1.0
C      1  0.4357810000000  0.5216800000000  0.5321810000000 1.0
C      1  0.5121380000000  0.5253830000000  0.5717900000000 1.0
C      1  0.5747060000000  0.5203400000000  0.5090300000000 1.0
C      1  0.5258450000000  0.5284460000000  0.4353550000000 1.0
C      1  0.5473260000000  0.4740760000000  0.4546360000000 1.0
C      1  0.4762480000000  0.4739460000000  0.4388910000000 1.0
C      1  0.4498970000000  0.4662100000000  0.5066170000000 1.0
C      1  0.4844300000000  0.4745600000000  0.5658350000000 1.0
C      1  0.5446560000000  0.4726400000000  0.5278390000000 1.0
C      1  0.4479810000000  0.4674250000000  0.5357750000000 1.0
C      1  0.5136300000000  0.4742140000000  0.5630810000000 1.0
C      1  0.5576630000000  0.4704070000000  0.5011070000000 1.0
C      1  0.5238370000000  0.4759520000000  0.4373080000000 1.0
C      1  0.4552360000000  0.4705460000000  0.4589590000000 1.0
C      1  0.4972350000000  0.4870420000000  0.4774100000000 1.0
C      1  0.4611420000000  0.4940240000000  0.5087950000000 1.0
C      1  0.5015640000000  0.5027000000000  0.5388120000000 1.0
C      1  0.5360450000000  0.4999370000000  0.5139480000000 1.0
C      1  0.5192450000000  0.4965180000000  0.4635350000000 1.0
C      1  0.5242630000000  0.4397100000000  0.4798490000000 1.0
C      1  0.5022800000000  0.4404250000000  0.4604860000000 1.0
C      1  0.4830790000000  0.4382920000000  0.4823100000000 1.0
C      1  0.4822450000000  0.4326130000000  0.5446960000000 1.0
C      1  0.5057620000000  0.4382370000000  0.5303570000000 1.0
C      1  0.5601090000000  0.4995780000000  0.4938720000000 1.0
C      1  0.5128640000000  0.5030760000000  0.4330510000000 1.0
C      1  0.4405120000000  0.4945220000000  0.4655160000000 1.0
C      1  0.4525620000000  0.4981270000000  0.5386070000000 1.0
C      1  0.5238040000000  0.5015440000000  0.5592520000000 1.0
C      1  0.5132510000000  0.5825800000000  0.4856350000000 1.0
C      1  0.4848830000000  0.5866430000000  0.4809950000000 1.0
C      1  0.4757230000000  0.5879860000000  0.5088590000000 1.0
C      1  0.5009920000000  0.5843850000000  0.5243220000000 1.0
C      1  0.5268710000000  0.5836130000000  0.5106820000000 1.0
C      1  0.4842560000000  0.5006950000000  0.4311460000000 1.0
C      1  0.4362360000000  0.4989760000000  0.4928040000000 1.0
C      1  0.4757810000000  0.5011490000000  0.5562930000000 1.0
C      1  0.5475930000000  0.4998440000000  0.5419850000000 1.0
C      1  0.5514600000000  0.5017410000000  0.4659420000000 1.0
C      1  0.4936080000000  0.5556510000000  0.5288960000000 1.0
C      1  0.5385760000000  0.5564280000000  0.5154480000000 1.0
C      1  0.5084030000000  0.5526380000000  0.4805780000000 1.0
C      1  0.4773630000000  0.5563660000000  0.4786360000000 1.0
C      1  0.4667800000000  0.5582570000000  0.5094850000000 1.0
C      1  0.5050960000000  0.4345730000000  0.5015210000000 1.0
C      1  0.5089810000000  0.5126480000000  0.5126840000000 1.0
C      1  0.4880600000000  0.5009830000000  0.4974940000000 1.0
C      1  0.5133500000000  0.5414940000000  0.5095130000000 1.0
END
