TITL C-234781-4362-5 30.0751990469548 125000 -338.84909609687 0 0 51 (C1) n - 1
REM
REM in /rds/project/t2_vol4/rds-t2-cs072/BORA/CARBON/from-Arr/AIRSS/Generating-Clusters/GAP-ML-2020/Higher-Symm/SD-CG/HFTN-CG
REM
REM
REM
REM
REM
REM ./C.cell (b20cbc046b6831c77cfcea5457e17084)
REM AIRSS Version 0.9.1 bugfix July 2018 build 013d7b7c2542+ Fri, 06 Jul 2018 19:26:36 +0100
REM compiler GCC version 9.3.0
REM options -cpp -mtune=generic -march=x86-64 -g -O0
REM seed 347732229 1509148904 442666201 1284699305 -409474578 -975202030 142260735 -655038395 -1686305197 -2015717393 -780848021 896446505 -1626560921 29107800 1349210614 -1280663033 -1203709671 449246253 1276236355 -699270763 -1524092802 708660570 35849349 -603103509 1033604780 -1549607644 -1629883405 -1335101460 -2001691198 -133610166 1545368656 1731178943 -332643212
REM
CELL 1.54180   50.00000   50.00000   50.00000   90.00000   90.00000   90.00000
LATT -1
SFAC C  
C      1  0.4170220000000  0.4866480000000  0.5263670000000 1.0
C      1  0.5721900000000  0.5069280000000  0.5127050000000 1.0
C      1  0.5823830000000  0.4863660000000  0.5264800000000 1.0
C      1  0.4280720000000  0.5062880000000  0.5127300000000 1.0
C      1  0.5589170000000  0.4727120000000  0.5290120000000 1.0
C      1  0.4422380000000  0.5275400000000  0.5264930000000 1.0
C      1  0.4413590000000  0.4730830000000  0.5291250000000 1.0
C      1  0.5590630000000  0.5284880000000  0.5272890000000 1.0
C      1  0.4488650000000  0.5164550000000  0.4653550000000 1.0
C      1  0.5502000000000  0.4873640000000  0.4660860000000 1.0
C      1  0.5508890000000  0.5152270000000  0.4643670000000 1.0
C      1  0.4488730000000  0.4881490000000  0.4658170000000 1.0
C      1  0.5336190000000  0.5149680000000  0.5360100000000 1.0
C      1  0.4649470000000  0.4837160000000  0.5437180000000 1.0
C      1  0.4685410000000  0.5123830000000  0.5345330000000 1.0
C      1  0.5330290000000  0.4833860000000  0.5390280000000 1.0
C      1  0.5517250000000  0.5473810000000  0.5083820000000 1.0
C      1  0.4466820000000  0.4539540000000  0.5096270000000 1.0
C      1  0.4489320000000  0.5467360000000  0.5082440000000 1.0
C      1  0.5550400000000  0.4537720000000  0.5095480000000 1.0
C      1  0.5139710000000  0.5157150000000  0.4398990000000 1.0
C      1  0.4852990000000  0.4860200000000  0.4389540000000 1.0
C      1  0.4856070000000  0.5163020000000  0.4387330000000 1.0
C      1  0.5140560000000  0.4857530000000  0.4399300000000 1.0
C      1  0.5281420000000  0.5558220000000  0.4991130000000 1.0
C      1  0.4707530000000  0.4452350000000  0.5009330000000 1.0
C      1  0.4722490000000  0.5560470000000  0.4990160000000 1.0
C      1  0.5281480000000  0.4503660000000  0.5023700000000 1.0
C      1  0.4864900000000  0.4579470000000  0.4787920000000 1.0
C      1  0.5147500000000  0.5505380000000  0.4738240000000 1.0
C      1  0.5155280000000  0.4510900000000  0.4749160000000 1.0
C      1  0.4859040000000  0.5507420000000  0.4737700000000 1.0
C      1  0.5152000000000  0.5351590000000  0.5450620000000 1.0
C      1  0.4846340000000  0.4638400000000  0.5465730000000 1.0
C      1  0.4858940000000  0.5341650000000  0.5443790000000 1.0
C      1  0.5140680000000  0.4631300000000  0.5471150000000 1.0
C      1  0.4745510000000  0.5042620000000  0.5050310000000 1.0
C      1  0.5189900000000  0.4794630000000  0.5115430000000 1.0
C      1  0.5262460000000  0.5074560000000  0.5042650000000 1.0
C      1  0.4930100000000  0.4828840000000  0.4983190000000 1.0
C      1  0.5285710000000  0.5313720000000  0.4571780000000 1.0
C      1  0.4706220000000  0.4719780000000  0.4578770000000 1.0
C      1  0.4716600000000  0.5315190000000  0.4572350000000 1.0
C      1  0.5287460000000  0.4707110000000  0.4584660000000 1.0
C      1  0.5132910000000  0.4418950000000  0.5260380000000 1.0
C      1  0.4862180000000  0.5555470000000  0.5239670000000 1.0
C      1  0.4855920000000  0.4435020000000  0.5249250000000 1.0
C      1  0.5143020000000  0.5558290000000  0.5239310000000 1.0
C      1  0.4483640000000  0.5026260000000  0.4910890000000 1.0
C      1  0.5530770000000  0.5048520000000  0.4908150000000 1.0
C      1  0.5001500000000  0.5092250000000  0.4896680000000 1.0
END
