TITL C-235493-3689-6 0.0221558459920338 125000 -145.689576586148 0 0 22 (Td) n - 1
REM
REM in /rds/project/t2_vol4/rds-t2-cs072/BORA/CARBON/from-Arr/AIRSS/Generating-Clusters/GAP-ML-2020/Higher-Symm/SD-CG/HFTN-CG
REM
REM
REM
REM
REM
REM ./C.cell (b20cbc046b6831c77cfcea5457e17084)
REM AIRSS Version 0.9.1 bugfix July 2018 build 013d7b7c2542+ Fri, 06 Jul 2018 19:26:36 +0100
REM compiler GCC version 9.3.0
REM options -cpp -mtune=generic -march=x86-64 -g -O0
REM seed 537644427 -1794593239 -835654264 -1007013730 -1501104603 1803394461 -1702503220 -928580270 -1556016157 1127053076 1566392637 -1945731497 1940499906 397767069 1609703220 1939406869 -1026648449 -2090105108 1974584801 -1820750125 2101328005 363217492 125395491 1386162596 -750453458 116992549 2080713586 345896439 -808206061 -1695767590 -865476199 1633538166 663298005
REM
CELL 1.54180   50.00000   50.00000   50.00000   90.00000   90.00000   90.00000
LATT -1
SFAC C  
C      1  0.5511590000000  0.5171760000000  0.4820710000000 1.0
C      1  0.4814560000000  0.5514120000000  0.5174910000000 1.0
C      1  0.5169000000000  0.4817330000000  0.5517510000000 1.0
C      1  0.4472070000000  0.5171410000000  0.5174840000000 1.0
C      1  0.5511650000000  0.4817460000000  0.5174960000000 1.0
C      1  0.4472230000000  0.4817160000000  0.4820540000000 1.0
C      1  0.5168890000000  0.5514250000000  0.4820690000000 1.0
C      1  0.4814930000000  0.4474670000000  0.4820560000000 1.0
C      1  0.5169160000000  0.4474750000000  0.5174890000000 1.0
C      1  0.4814880000000  0.4817290000000  0.4477990000000 1.0
C      1  0.5169040000000  0.5171680000000  0.4478060000000 1.0
C      1  0.4814620000000  0.5171490000000  0.5517490000000 1.0
C      1  0.4991970000000  0.4994490000000  0.4413720000000 1.0
C      1  0.4992060000000  0.4410400000000  0.4997720000000 1.0
C      1  0.4991800000000  0.4994410000000  0.5581810000000 1.0
C      1  0.4991700000000  0.5578490000000  0.4997800000000 1.0
C      1  0.4407840000000  0.4994270000000  0.4997680000000 1.0
C      1  0.5575930000000  0.4994630000000  0.4997850000000 1.0
C      1  0.4678910000000  0.5307160000000  0.5310570000000 1.0
C      1  0.5304770000000  0.4681690000000  0.5310620000000 1.0
C      1  0.5304660000000  0.5307400000000  0.4685000000000 1.0
C      1  0.4679190000000  0.4681540000000  0.4684860000000 1.0
END
