TITL C-239795-2269-6 -129.975618952679 125000 -1036.56949818749 0 0 149 (C1) n - 1
REM
REM in /rds/project/t2_vol4/rds-t2-cs072/BORA/CARBON/from-Arr/AIRSS/Generating-Clusters/GAP-ML-2020/Higher-Symm/SD-CG/HFTN-CG
REM
REM
REM
REM
REM
REM ./C.cell (b20cbc046b6831c77cfcea5457e17084)
REM AIRSS Version 0.9.1 bugfix July 2018 build 013d7b7c2542+ Fri, 06 Jul 2018 19:26:36 +0100
REM compiler GCC version 9.3.0
REM options -cpp -mtune=generic -march=x86-64 -g -O0
REM seed -1775111631 391848416 -1237929336 -830168726 -1271123541 -911797813 -1456598917 -1415497110 -2146647392 -572744539 1568910209 -1351484921 1077357441 -278887394 1497822455 -1977339222 330764182 1266884740 1822813365 -2083650781 1044834953 1783430780 899438778 804516018 977195942 -1809977143 1863479885 2051118828 -1464502641 1923339727 -1290344089 1745680563 -1250784950
REM
CELL 1.54180   50.00000   50.00000   50.00000   90.00000   90.00000   90.00000
LATT -1
SFAC C  
C      1  0.5661110000000  0.4326950000000  0.5383820000000 1.0
C      1  0.5701030000000  0.4314040000000  0.4716750000000 1.0
C      1  0.5206980000000  0.4318780000000  0.4266860000000 1.0
C      1  0.4546870000000  0.4333290000000  0.4368880000000 1.0
C      1  0.4215610000000  0.4345580000000  0.4946440000000 1.0
C      1  0.4468200000000  0.4359130000000  0.5572270000000 1.0
C      1  0.5107680000000  0.4353580000000  0.5761230000000 1.0
C      1  0.4960470000000  0.4639170000000  0.6074250000000 1.0
C      1  0.5814330000000  0.4624160000000  0.5691620000000 1.0
C      1  0.6043440000000  0.4600750000000  0.4790690000000 1.0
C      1  0.5484860000000  0.4608010000000  0.4055390000000 1.0
C      1  0.4561470000000  0.4626500000000  0.4022430000000 1.0
C      1  0.3956630000000  0.4640210000000  0.4716480000000 1.0
C      1  0.4132370000000  0.4651320000000  0.5647280000000 1.0
C      1  0.5524300000000  0.5168690000000  0.4233450000000 1.0
C      1  0.4735760000000  0.5184850000000  0.4106920000000 1.0
C      1  0.4138590000000  0.5209620000000  0.4641670000000 1.0
C      1  0.4130680000000  0.5210590000000  0.5418870000000 1.0
C      1  0.4885440000000  0.5205960000000  0.5957250000000 1.0
C      1  0.5646650000000  0.5187320000000  0.5675580000000 1.0
C      1  0.5932360000000  0.5173060000000  0.4921770000000 1.0
C      1  0.4842210000000  0.6087260000000  0.5290890000000 1.0
C      1  0.5118640000000  0.6076980000000  0.5306050000000 1.0
C      1  0.5305630000000  0.6122290000000  0.5107360000000 1.0
C      1  0.5282530000000  0.6145790000000  0.4832320000000 1.0
C      1  0.5046730000000  0.6153150000000  0.4685910000000 1.0
C      1  0.4788800000000  0.6157120000000  0.4786230000000 1.0
C      1  0.4708140000000  0.6136000000000  0.5051160000000 1.0
C      1  0.4235290000000  0.5604870000000  0.4849940000000 1.0
C      1  0.4385550000000  0.5571960000000  0.5507540000000 1.0
C      1  0.5060040000000  0.5555280000000  0.5732430000000 1.0
C      1  0.5659570000000  0.5581120000000  0.5426510000000 1.0
C      1  0.5757560000000  0.5569350000000  0.4765630000000 1.0
C      1  0.5303970000000  0.5569210000000  0.4273900000000 1.0
C      1  0.4633450000000  0.5584390000000  0.4305660000000 1.0
C      1  0.4743790000000  0.4504400000000  0.5996300000000 1.0
C      1  0.5607760000000  0.4500690000000  0.5808350000000 1.0
C      1  0.6010930000000  0.4470600000000  0.5020400000000 1.0
C      1  0.5639790000000  0.4471260000000  0.4221910000000 1.0
C      1  0.4786440000000  0.4486460000000  0.4006650000000 1.0
C      1  0.4085210000000  0.4500630000000  0.4531080000000 1.0
C      1  0.4064180000000  0.4518600000000  0.5422580000000 1.0
C      1  0.4228540000000  0.5635530000000  0.5282510000000 1.0
C      1  0.4786050000000  0.5611990000000  0.5767190000000 1.0
C      1  0.5458050000000  0.5585920000000  0.5615050000000 1.0
C      1  0.5823870000000  0.5601720000000  0.5032970000000 1.0
C      1  0.5554720000000  0.5593920000000  0.4387460000000 1.0
C      1  0.4884110000000  0.5605850000000  0.4193330000000 1.0
C      1  0.4309200000000  0.5627820000000  0.4584180000000 1.0
C      1  0.5756450000000  0.5294970000000  0.5396370000000 1.0
C      1  0.5782080000000  0.5282300000000  0.4674230000000 1.0
C      1  0.5242300000000  0.5285400000000  0.4193290000000 1.0
C      1  0.4524400000000  0.5303950000000  0.4297780000000 1.0
C      1  0.4160730000000  0.5323590000000  0.4924070000000 1.0
C      1  0.4327000000000  0.5304710000000  0.5595220000000 1.0
C      1  0.5154720000000  0.5297050000000  0.5829910000000 1.0
C      1  0.4063820000000  0.4725610000000  0.5228550000000 1.0
C      1  0.4610290000000  0.4728160000000  0.5883630000000 1.0
C      1  0.5432840000000  0.4723420000000  0.5840410000000 1.0
C      1  0.5932420000000  0.4696600000000  0.5175450000000 1.0
C      1  0.5710710000000  0.4692710000000  0.4386490000000 1.0
C      1  0.4962710000000  0.4704320000000  0.4057420000000 1.0
C      1  0.4232660000000  0.4722270000000  0.4429510000000 1.0
C      1  0.4569770000000  0.5079640000000  0.4519710000000 1.0
C      1  0.4364720000000  0.5098440000000  0.5035910000000 1.0
C      1  0.4565810000000  0.5110140000000  0.5596010000000 1.0
C      1  0.5194850000000  0.5089590000000  0.5616140000000 1.0
C      1  0.5605060000000  0.5068520000000  0.5229680000000 1.0
C      1  0.5550210000000  0.5061280000000  0.4684390000000 1.0
C      1  0.5099500000000  0.5065730000000  0.4375460000000 1.0
C      1  0.5927310000000  0.5359410000000  0.5138200000000 1.0
C      1  0.5694870000000  0.5347550000000  0.4373940000000 1.0
C      1  0.4956690000000  0.5359690000000  0.4071280000000 1.0
C      1  0.4253050000000  0.5384830000000  0.4448180000000 1.0
C      1  0.4076450000000  0.5401790000000  0.5212980000000 1.0
C      1  0.4714560000000  0.5419920000000  0.5948930000000 1.0
C      1  0.5471020000000  0.5371200000000  0.5793020000000 1.0
C      1  0.4811530000000  0.5774170000000  0.5265900000000 1.0
C      1  0.5118110000000  0.5767620000000  0.5270980000000 1.0
C      1  0.5351150000000  0.5807280000000  0.5078470000000 1.0
C      1  0.5320800000000  0.5830790000000  0.4779900000000 1.0
C      1  0.5049550000000  0.5835430000000  0.4628090000000 1.0
C      1  0.4753350000000  0.5838010000000  0.4731580000000 1.0
C      1  0.4643140000000  0.5830400000000  0.5020650000000 1.0
C      1  0.5766180000000  0.4616100000000  0.5400030000000 1.0
C      1  0.5778870000000  0.4604630000000  0.4654270000000 1.0
C      1  0.5211370000000  0.4611270000000  0.4174140000000 1.0
C      1  0.4479160000000  0.4627540000000  0.4307980000000 1.0
C      1  0.4122950000000  0.4637940000000  0.4961040000000 1.0
C      1  0.4425420000000  0.4645520000000  0.5669340000000 1.0
C      1  0.5151730000000  0.4646890000000  0.5849750000000 1.0
C      1  0.5190300000000  0.5571800000000  0.5475890000000 1.0
C      1  0.5622640000000  0.5729160000000  0.5189440000000 1.0
C      1  0.5560040000000  0.5724840000000  0.4639640000000 1.0
C      1  0.5085950000000  0.5727140000000  0.4353350000000 1.0
C      1  0.4563350000000  0.5742310000000  0.4526020000000 1.0
C      1  0.4355170000000  0.5755830000000  0.5052250000000 1.0
C      1  0.4677330000000  0.5597720000000  0.5485720000000 1.0
C      1  0.5516780000000  0.4820770000000  0.5380810000000 1.0
C      1  0.5609840000000  0.4808340000000  0.4840270000000 1.0
C      1  0.5250050000000  0.4808280000000  0.4427300000000 1.0
C      1  0.4701100000000  0.4820540000000  0.4436380000000 1.0
C      1  0.4365440000000  0.4842310000000  0.4870660000000 1.0
C      1  0.4472990000000  0.4861220000000  0.5439990000000 1.0
C      1  0.5010340000000  0.4858010000000  0.5650060000000 1.0
C      1  0.5162200000000  0.5269390000000  0.5322820000000 1.0
C      1  0.5346070000000  0.5194690000000  0.5105390000000 1.0
C      1  0.5288410000000  0.5182190000000  0.4822180000000 1.0
C      1  0.5041840000000  0.5186080000000  0.4664700000000 1.0
C      1  0.4765230000000  0.5199220000000  0.4737730000000 1.0
C      1  0.4668660000000  0.5226830000000  0.5002090000000 1.0
C      1  0.4735500000000  0.5300650000000  0.5451040000000 1.0
C      1  0.4665880000000  0.4744410000000  0.5209670000000 1.0
C      1  0.5023470000000  0.4742770000000  0.5368080000000 1.0
C      1  0.5275970000000  0.4723610000000  0.5225560000000 1.0
C      1  0.5325910000000  0.4718130000000  0.4934150000000 1.0
C      1  0.5136390000000  0.4720330000000  0.4708630000000 1.0
C      1  0.4840710000000  0.4726400000000  0.4700310000000 1.0
C      1  0.4641830000000  0.4732640000000  0.4920870000000 1.0
C      1  0.4978910000000  0.4129610000000  0.4671150000000 1.0
C      1  0.4718460000000  0.4140600000000  0.4800010000000 1.0
C      1  0.4657110000000  0.4152140000000  0.5083300000000 1.0
C      1  0.4842540000000  0.4159840000000  0.5307480000000 1.0
C      1  0.5133760000000  0.4146920000000  0.5305210000000 1.0
C      1  0.5312380000000  0.4132150000000  0.5077200000000 1.0
C      1  0.5243020000000  0.4125440000000  0.4794040000000 1.0
C      1  0.5471410000000  0.4190960000000  0.4620650000000 1.0
C      1  0.4986730000000  0.4197820000000  0.4384670000000 1.0
C      1  0.4501930000000  0.4210440000000  0.4613430000000 1.0
C      1  0.4377220000000  0.4225510000000  0.5138060000000 1.0
C      1  0.4714150000000  0.4231560000000  0.5560720000000 1.0
C      1  0.5252050000000  0.4220880000000  0.5564430000000 1.0
C      1  0.5591590000000  0.4197690000000  0.5147730000000 1.0
C      1  0.5462850000000  0.4264170000000  0.4350470000000 1.0
C      1  0.4772310000000  0.4277130000000  0.4222480000000 1.0
C      1  0.4243040000000  0.4291380000000  0.4678990000000 1.0
C      1  0.4272820000000  0.4308650000000  0.5385360000000 1.0
C      1  0.4841200000000  0.4301140000000  0.5800250000000 1.0
C      1  0.5518340000000  0.4288930000000  0.5615950000000 1.0
C      1  0.5796820000000  0.4265410000000  0.4969780000000 1.0
C      1  0.5526350000000  0.4928430000000  0.4409590000000 1.0
C      1  0.4867830000000  0.4940470000000  0.4215710000000 1.0
C      1  0.4297230000000  0.4960740000000  0.4602480000000 1.0
C      1  0.4229350000000  0.4966500000000  0.5296360000000 1.0
C      1  0.4754840000000  0.4977500000000  0.5801480000000 1.0
C      1  0.5466320000000  0.4948550000000  0.5648590000000 1.0
C      1  0.5801240000000  0.4931630000000  0.5039820000000 1.0
C      1  0.4884380000000  0.4909180000000  0.5196610000000 1.0
C      1  0.4873950000000  0.5198230000000  0.5226180000000 1.0
END
