TITL C-234787-5944-2 -35.6955722168874 125000 -629.95421999302 0 0 90 (C1) n - 1
REM
REM in /rds/project/t2_vol4/rds-t2-cs072/BORA/CARBON/from-Arr/AIRSS/Generating-Clusters/GAP-ML-2020/Higher-Symm/SD-CG/HFTN-CG
REM
REM
REM
REM
REM
REM ./C.cell (b20cbc046b6831c77cfcea5457e17084)
REM AIRSS Version 0.9.1 bugfix July 2018 build 013d7b7c2542+ Fri, 06 Jul 2018 19:26:36 +0100
REM compiler GCC version 9.3.0
REM options -cpp -mtune=generic -march=x86-64 -g -O0
REM seed 1041870427 -747352282 -1909139382 -545138764 2014231395 -381143723 -1941454872 -652478986 228660026 -2114171417 -2046616345 672102561 -314504609 -1457121557 -170209083 309149761 -169795287 -911652315 -700972246 -1915069054 2111752449 1096994225 -213838736 707350217 -56696796 185432206 1871042191 199758543 -886300904 -1422480947 -513646184 -1512567219 1983372295
REM
CELL 1.54180   50.00000   50.00000   50.00000   90.00000   90.00000   90.00000
LATT -1
SFAC C  
C      1  0.5360080000000  0.4376960000000  0.4566680000000 1.0
C      1  0.5368300000000  0.4239920000000  0.5060620000000 1.0
C      1  0.5361880000000  0.4463660000000  0.5528760000000 1.0
C      1  0.5347900000000  0.4930800000000  0.5742550000000 1.0
C      1  0.5328890000000  0.5433430000000  0.5626560000000 1.0
C      1  0.5315870000000  0.5765530000000  0.5204710000000 1.0
C      1  0.5306270000000  0.5722100000000  0.4667670000000 1.0
C      1  0.5315320000000  0.5333790000000  0.4299440000000 1.0
C      1  0.5338580000000  0.4800330000000  0.4271310000000 1.0
C      1  0.5021380000000  0.5740000000000  0.4657710000000 1.0
C      1  0.5032120000000  0.5340060000000  0.4278190000000 1.0
C      1  0.5052700000000  0.4781100000000  0.4258260000000 1.0
C      1  0.5072510000000  0.4352690000000  0.4555680000000 1.0
C      1  0.5080430000000  0.4219350000000  0.5061250000000 1.0
C      1  0.5076670000000  0.4445660000000  0.5531300000000 1.0
C      1  0.5067260000000  0.4925040000000  0.5766260000000 1.0
C      1  0.5047160000000  0.5448270000000  0.5658360000000 1.0
C      1  0.5030180000000  0.5782130000000  0.5214920000000 1.0
C      1  0.5431840000000  0.5061930000000  0.4361520000000 1.0
C      1  0.5472290000000  0.4616010000000  0.4447860000000 1.0
C      1  0.5493970000000  0.4345920000000  0.4822450000000 1.0
C      1  0.5488820000000  0.4380540000000  0.5283710000000 1.0
C      1  0.5489280000000  0.4715090000000  0.5602930000000 1.0
C      1  0.5460200000000  0.5176500000000  0.5641960000000 1.0
C      1  0.5433600000000  0.5545240000000  0.5375280000000 1.0
C      1  0.5425880000000  0.5678020000000  0.4942690000000 1.0
C      1  0.5411400000000  0.5491530000000  0.4522460000000 1.0
C      1  0.5679770000000  0.5453790000000  0.4975800000000 1.0
C      1  0.5652540000000  0.5286300000000  0.4736650000000 1.0
C      1  0.5683650000000  0.5044360000000  0.4573820000000 1.0
C      1  0.5621500000000  0.4764310000000  0.4664570000000 1.0
C      1  0.5678020000000  0.4567260000000  0.4882300000000 1.0
C      1  0.5622990000000  0.4622430000000  0.5170140000000 1.0
C      1  0.5673770000000  0.4815180000000  0.5396440000000 1.0
C      1  0.5619810000000  0.5114450000000  0.5392530000000 1.0
C      1  0.5673360000000  0.5385140000000  0.5249730000000 1.0
C      1  0.4318790000000  0.4919380000000  0.5433020000000 1.0
C      1  0.4312940000000  0.5196760000000  0.5353810000000 1.0
C      1  0.4316130000000  0.5353670000000  0.5112080000000 1.0
C      1  0.4305570000000  0.5338980000000  0.4824180000000 1.0
C      1  0.4305990000000  0.5140310000000  0.4615240000000 1.0
C      1  0.4316520000000  0.4851700000000  0.4589900000000 1.0
C      1  0.4331250000000  0.4619090000000  0.4762370000000 1.0
C      1  0.4332670000000  0.4542040000000  0.5041070000000 1.0
C      1  0.4324300000000  0.4656800000000  0.5309550000000 1.0
C      1  0.4890710000000  0.5524710000000  0.4485140000000 1.0
C      1  0.4901160000000  0.5057710000000  0.4284450000000 1.0
C      1  0.4929940000000  0.4547510000000  0.4379610000000 1.0
C      1  0.4941910000000  0.4239690000000  0.4797700000000 1.0
C      1  0.4947530000000  0.4302530000000  0.5312170000000 1.0
C      1  0.4926260000000  0.4684550000000  0.5644790000000 1.0
C      1  0.4919500000000  0.5182190000000  0.5696420000000 1.0
C      1  0.4896180000000  0.5595480000000  0.5423800000000 1.0
C      1  0.4883400000000  0.5733940000000  0.4937550000000 1.0
C      1  0.4460550000000  0.5571010000000  0.4727240000000 1.0
C      1  0.4474920000000  0.5249300000000  0.4402410000000 1.0
C      1  0.4497670000000  0.4799210000000  0.4361660000000 1.0
C      1  0.4518410000000  0.4435680000000  0.4626750000000 1.0
C      1  0.4526930000000  0.4320810000000  0.5059030000000 1.0
C      1  0.4515610000000  0.4499770000000  0.5470910000000 1.0
C      1  0.4498590000000  0.4907930000000  0.5664540000000 1.0
C      1  0.4476870000000  0.5349930000000  0.5549280000000 1.0
C      1  0.4477510000000  0.5594810000000  0.5174250000000 1.0
C      1  0.4843900000000  0.5129280000000  0.5391920000000 1.0
C      1  0.4940860000000  0.5346380000000  0.5242260000000 1.0
C      1  0.4939170000000  0.5430150000000  0.4953000000000 1.0
C      1  0.4850760000000  0.5314860000000  0.4712660000000 1.0
C      1  0.4945680000000  0.5071230000000  0.4610840000000 1.0
C      1  0.4775580000000  0.4897600000000  0.4735770000000 1.0
C      1  0.4888120000000  0.4752770000000  0.4922010000000 1.0
C      1  0.4751230000000  0.4771090000000  0.5147580000000 1.0
C      1  0.4919770000000  0.4869460000000  0.5335720000000 1.0
C      1  0.4596350000000  0.5493940000000  0.4489520000000 1.0
C      1  0.4610580000000  0.5040900000000  0.4266560000000 1.0
C      1  0.4644560000000  0.4560440000000  0.4405520000000 1.0
C      1  0.4658610000000  0.4269970000000  0.4811990000000 1.0
C      1  0.4661250000000  0.4319180000000  0.5307870000000 1.0
C      1  0.4638170000000  0.4660060000000  0.5671040000000 1.0
C      1  0.4623780000000  0.5162140000000  0.5705800000000 1.0
C      1  0.4601660000000  0.5574470000000  0.5427370000000 1.0
C      1  0.4589570000000  0.5707320000000  0.4940500000000 1.0
C      1  0.5327840000000  0.4817130000000  0.4743860000000 1.0
C      1  0.5157240000000  0.4685770000000  0.4906050000000 1.0
C      1  0.5315250000000  0.4699470000000  0.5122940000000 1.0
C      1  0.5198240000000  0.4874260000000  0.5286240000000 1.0
C      1  0.5351830000000  0.5090450000000  0.5281980000000 1.0
C      1  0.5240810000000  0.5328600000000  0.5224510000000 1.0
C      1  0.5243350000000  0.5416240000000  0.4951330000000 1.0
C      1  0.5363350000000  0.5284670000000  0.4738370000000 1.0
C      1  0.5238500000000  0.5051900000000  0.4634780000000 1.0
END
