TITL C-235478-3639-3 39.5937546981338 125000 -550.586199378085 0 0 81 (C1) n - 1
REM
REM in /rds/project/t2_vol4/rds-t2-cs072/BORA/CARBON/from-Arr/AIRSS/Generating-Clusters/GAP-ML-2020/Higher-Symm/SD-CG/HFTN-CG
REM
REM
REM
REM
REM
REM ./C.cell (b20cbc046b6831c77cfcea5457e17084)
REM AIRSS Version 0.9.1 bugfix July 2018 build 013d7b7c2542+ Fri, 06 Jul 2018 19:26:36 +0100
REM compiler GCC version 9.3.0
REM options -cpp -mtune=generic -march=x86-64 -g -O0
REM seed 1908617469 -1322422482 694940522 523710920 1103903958 369753497 1820002600 -1638726207 -1977880448 -782812310 1865600600 269988721 -659343358 -1013768904 475358617 -1857523361 -1673812687 607227915 1729101094 -891045878 1690851330 -969721912 1474687026 775476173 2091861756 -1631123865 -1123033759 -305540775 1346658029 2115573391 -1184350393 -1405195122 859343854
REM
CELL 1.54180   50.00000   50.00000   50.00000   90.00000   90.00000   90.00000
LATT -1
SFAC C  
C      1  0.4668260000000  0.5015360000000  0.5221790000000 1.0
C      1  0.4790810000000  0.5272330000000  0.5248390000000 1.0
C      1  0.5074160000000  0.5337860000000  0.5222360000000 1.0
C      1  0.5303890000000  0.5158920000000  0.5249720000000 1.0
C      1  0.5282530000000  0.4871470000000  0.5265250000000 1.0
C      1  0.5062960000000  0.4733360000000  0.5137640000000 1.0
C      1  0.4797580000000  0.4791780000000  0.5100570000000 1.0
C      1  0.4750770000000  0.4883380000000  0.4821020000000 1.0
C      1  0.4587760000000  0.5104030000000  0.4923030000000 1.0
C      1  0.4735980000000  0.5361520000000  0.4952230000000 1.0
C      1  0.5037000000000  0.5409320000000  0.4923950000000 1.0
C      1  0.5425750000000  0.5113270000000  0.4979470000000 1.0
C      1  0.5417610000000  0.4817350000000  0.4967770000000 1.0
C      1  0.5160490000000  0.4734110000000  0.4864890000000 1.0
C      1  0.5824680000000  0.4788600000000  0.4927460000000 1.0
C      1  0.5318840000000  0.4263120000000  0.4944160000000 1.0
C      1  0.4626180000000  0.4301290000000  0.4965370000000 1.0
C      1  0.4192960000000  0.4829430000000  0.4974410000000 1.0
C      1  0.4342430000000  0.5530070000000  0.4933980000000 1.0
C      1  0.5031790000000  0.5734510000000  0.4938820000000 1.0
C      1  0.5658760000000  0.5501010000000  0.4977500000000 1.0
C      1  0.4831300000000  0.4242980000000  0.5172460000000 1.0
C      1  0.4288690000000  0.4632560000000  0.5173320000000 1.0
C      1  0.4270600000000  0.5343740000000  0.5147420000000 1.0
C      1  0.4809510000000  0.5759030000000  0.5146810000000 1.0
C      1  0.5490340000000  0.5643670000000  0.5178630000000 1.0
C      1  0.5821610000000  0.4965810000000  0.5166340000000 1.0
C      1  0.5467740000000  0.4384710000000  0.5159510000000 1.0
C      1  0.4649310000000  0.4557020000000  0.5527690000000 1.0
C      1  0.4463720000000  0.4992650000000  0.5462020000000 1.0
C      1  0.4647160000000  0.5426320000000  0.5476840000000 1.0
C      1  0.5097780000000  0.5544560000000  0.5474580000000 1.0
C      1  0.5446530000000  0.5278620000000  0.5485570000000 1.0
C      1  0.5474760000000  0.4746010000000  0.5477420000000 1.0
C      1  0.5111630000000  0.4445170000000  0.5536400000000 1.0
C      1  0.4393040000000  0.4733060000000  0.4517550000000 1.0
C      1  0.4456300000000  0.5274390000000  0.4487310000000 1.0
C      1  0.4860390000000  0.5612960000000  0.4477060000000 1.0
C      1  0.5375990000000  0.5516020000000  0.4516720000000 1.0
C      1  0.5586980000000  0.5016700000000  0.4529310000000 1.0
C      1  0.5376400000000  0.4537170000000  0.4495480000000 1.0
C      1  0.4853300000000  0.4428970000000  0.4518160000000 1.0
C      1  0.5281430000000  0.5156060000000  0.5682970000000 1.0
C      1  0.5290160000000  0.4867980000000  0.5679650000000 1.0
C      1  0.5070850000000  0.4682040000000  0.5694890000000 1.0
C      1  0.4787390000000  0.4745450000000  0.5692900000000 1.0
C      1  0.4662800000000  0.5004160000000  0.5676190000000 1.0
C      1  0.4781510000000  0.5262040000000  0.5680270000000 1.0
C      1  0.5056240000000  0.5329160000000  0.5676900000000 1.0
C      1  0.5780990000000  0.5014680000000  0.4748700000000 1.0
C      1  0.5464730000000  0.4409190000000  0.4741090000000 1.0
C      1  0.4834840000000  0.4282260000000  0.4761760000000 1.0
C      1  0.4290110000000  0.4650430000000  0.4763930000000 1.0
C      1  0.4294130000000  0.5326450000000  0.4725750000000 1.0
C      1  0.4817520000000  0.5744010000000  0.4732040000000 1.0
C      1  0.5487190000000  0.5620100000000  0.4768830000000 1.0
C      1  0.5607140000000  0.4584960000000  0.4952480000000 1.0
C      1  0.5037160000000  0.4206590000000  0.4962000000000 1.0
C      1  0.4388160000000  0.4453410000000  0.4958340000000 1.0
C      1  0.4265490000000  0.5114920000000  0.4939690000000 1.0
C      1  0.4616380000000  0.5640860000000  0.4938090000000 1.0
C      1  0.5327430000000  0.5766190000000  0.4961180000000 1.0
C      1  0.5716610000000  0.5200240000000  0.4974880000000 1.0
C      1  0.5515550000000  0.4771210000000  0.4451230000000 1.0
C      1  0.5094380000000  0.4560120000000  0.4424450000000 1.0
C      1  0.4635900000000  0.4594640000000  0.4427530000000 1.0
C      1  0.4491080000000  0.4993110000000  0.4413480000000 1.0
C      1  0.4645330000000  0.5453670000000  0.4414460000000 1.0
C      1  0.5135120000000  0.5610980000000  0.4432600000000 1.0
C      1  0.5394440000000  0.5235260000000  0.4535910000000 1.0
C      1  0.4411200000000  0.4690360000000  0.5420090000000 1.0
C      1  0.4380300000000  0.5293350000000  0.5399340000000 1.0
C      1  0.4824900000000  0.5670760000000  0.5409670000000 1.0
C      1  0.5392870000000  0.5566200000000  0.5431840000000 1.0
C      1  0.5726770000000  0.4858210000000  0.5390660000000 1.0
C      1  0.5375220000000  0.4456780000000  0.5412610000000 1.0
C      1  0.4849240000000  0.4358710000000  0.5434960000000 1.0
C      1  0.5206370000000  0.5193260000000  0.4770380000000 1.0
C      1  0.5001690000000  0.4837790000000  0.4407800000000 1.0
C      1  0.5030900000000  0.4939340000000  0.4697030000000 1.0
C      1  0.4728350000000  0.4850140000000  0.4322510000000 1.0
END
