TITL C-234771-3003-1 -0.0234408361681156 125000 -991.650158735785 0 0 148 (Ci) n - 1
REM
REM in /rds/project/t2_vol4/rds-t2-cs072/BORA/CARBON/from-Arr/AIRSS/Generating-Clusters/GAP-ML-2020/Higher-Symm/SD-CG/HFTN-CG
REM
REM
REM
REM
REM
REM ./C.cell (b20cbc046b6831c77cfcea5457e17084)
REM AIRSS Version 0.9.1 bugfix July 2018 build 013d7b7c2542+ Fri, 06 Jul 2018 19:26:36 +0100
REM compiler GCC version 9.3.0
REM options -cpp -mtune=generic -march=x86-64 -g -O0
REM seed 1094615772 704356891 184888973 -561114279 145974645 -2068264362 1890242094 133200919 -889962508 1626338431 -1525220753 983432793 -1610073891 -1967045435 1107710504 -1540122924 -2112606620 -790875387 -1447789748 -1233835301 -1052739216 1626694244 -1973803941 1562981329 -1443967150 -1122960807 -921545840 464547156 -1137306804 -1778197675 -1622024376 -1343602145 1152301345
REM
CELL 1.54180   50.00000   50.00000   50.00000   90.00000   90.00000   90.00000
LATT -1
SFAC C  
C      1  0.5729280000000  0.5518890000000  0.4481300000000 1.0
C      1  0.5728760000000  0.4471460000000  0.4475520000000 1.0
C      1  0.5737250000000  0.4490160000000  0.5529920000000 1.0
C      1  0.5741440000000  0.5530410000000  0.5510210000000 1.0
C      1  0.4265250000000  0.5509840000000  0.4470080000000 1.0
C      1  0.4261060000000  0.4469590000000  0.4489790000000 1.0
C      1  0.4273220000000  0.4481110000000  0.5518700000000 1.0
C      1  0.4273740000000  0.5528540000000  0.5524480000000 1.0
C      1  0.5293090000000  0.4226560000000  0.4399070000000 1.0
C      1  0.5298530000000  0.4493990000000  0.5723490000000 1.0
C      1  0.5296260000000  0.5714060000000  0.5505430000000 1.0
C      1  0.5289530000000  0.5578640000000  0.4246510000000 1.0
C      1  0.4706240000000  0.4285940000000  0.4494570000000 1.0
C      1  0.4712970000000  0.4421360000000  0.5753490000000 1.0
C      1  0.4709410000000  0.5773440000000  0.5600930000000 1.0
C      1  0.4703980000000  0.5506010000000  0.4276510000000 1.0
C      1  0.4827930000000  0.5702330000000  0.4474070000000 1.0
C      1  0.4824360000000  0.4473790000000  0.4289810000000 1.0
C      1  0.4878770000000  0.4361940000000  0.5506980000000 1.0
C      1  0.4875810000000  0.5528240000000  0.5670030000000 1.0
C      1  0.5123740000000  0.5638060000000  0.4493020000000 1.0
C      1  0.5126690000000  0.4471760000000  0.4329970000000 1.0
C      1  0.5174580000000  0.4297670000000  0.5525930000000 1.0
C      1  0.5178150000000  0.5526210000000  0.5710190000000 1.0
C      1  0.5949820000000  0.4599000000000  0.4892880000000 1.0
C      1  0.5960570000000  0.4897200000000  0.5393940000000 1.0
C      1  0.5958330000000  0.5389430000000  0.5098470000000 1.0
C      1  0.5943250000000  0.5099750000000  0.4604310000000 1.0
C      1  0.4044180000000  0.4610570000000  0.4901530000000 1.0
C      1  0.4059260000000  0.4900250000000  0.5395690000000 1.0
C      1  0.4052690000000  0.5401000000000  0.5107120000000 1.0
C      1  0.4041940000000  0.5102800000000  0.4606060000000 1.0
C      1  0.4698790000000  0.5270880000000  0.5699150000000 1.0
C      1  0.4692970000000  0.5699350000000  0.4732090000000 1.0
C      1  0.4685330000000  0.4740410000000  0.4299090000000 1.0
C      1  0.4703420000000  0.4324960000000  0.5242500000000 1.0
C      1  0.5317170000000  0.5259590000000  0.5700910000000 1.0
C      1  0.5299080000000  0.5675040000000  0.4757500000000 1.0
C      1  0.5303720000000  0.4729120000000  0.4300850000000 1.0
C      1  0.5309530000000  0.4300650000000  0.5267910000000 1.0
C      1  0.4533310000000  0.5250890000000  0.4690210000000 1.0
C      1  0.4527550000000  0.4699910000000  0.4741550000000 1.0
C      1  0.4526100000000  0.4778050000000  0.5272100000000 1.0
C      1  0.4514220000000  0.5276020000000  0.5228100000000 1.0
C      1  0.5476400000000  0.5221950000000  0.4727900000000 1.0
C      1  0.5488280000000  0.4723980000000  0.4771900000000 1.0
C      1  0.5469200000000  0.4749110000000  0.5309790000000 1.0
C      1  0.5474960000000  0.5300090000000  0.5258450000000 1.0
C      1  0.4445630000000  0.4684370000000  0.4461280000000 1.0
C      1  0.4466140000000  0.4489100000000  0.5312320000000 1.0
C      1  0.4458370000000  0.5307860000000  0.5526740000000 1.0
C      1  0.4452080000000  0.5535600000000  0.4686420000000 1.0
C      1  0.5544130000000  0.4692140000000  0.4473260000000 1.0
C      1  0.5550420000000  0.4464400000000  0.5313580000000 1.0
C      1  0.5556870000000  0.5315630000000  0.5538720000000 1.0
C      1  0.5536360000000  0.5510900000000  0.4687680000000 1.0
C      1  0.4861030000000  0.4057430000000  0.4576840000000 1.0
C      1  0.4860150000000  0.4565250000000  0.5952460000000 1.0
C      1  0.4861440000000  0.5951420000000  0.5438540000000 1.0
C      1  0.4860610000000  0.5423620000000  0.4048690000000 1.0
C      1  0.5141070000000  0.4048580000000  0.4561460000000 1.0
C      1  0.5141900000000  0.4576380000000  0.5951310000000 1.0
C      1  0.5141470000000  0.5942570000000  0.5423160000000 1.0
C      1  0.5142360000000  0.5434750000000  0.4047540000000 1.0
C      1  0.5955880000000  0.5391720000000  0.4616350000000 1.0
C      1  0.5954930000000  0.4608640000000  0.4599830000000 1.0
C      1  0.5963490000000  0.4606110000000  0.5375790000000 1.0
C      1  0.5967290000000  0.5377230000000  0.5389020000000 1.0
C      1  0.4039010000000  0.5393890000000  0.4624210000000 1.0
C      1  0.4035220000000  0.4622770000000  0.4610980000000 1.0
C      1  0.4046620000000  0.4608280000000  0.5383650000000 1.0
C      1  0.4047570000000  0.5391360000000  0.5400170000000 1.0
C      1  0.5270030000000  0.5099380000000  0.5218910000000 1.0
C      1  0.5260270000000  0.5196030000000  0.4926270000000 1.0
C      1  0.5259660000000  0.4907990000000  0.4823710000000 1.0
C      1  0.5259740000000  0.4796810000000  0.5117190000000 1.0
C      1  0.4742840000000  0.5092010000000  0.5176290000000 1.0
C      1  0.4742770000000  0.5203190000000  0.4882810000000 1.0
C      1  0.4732470000000  0.4900620000000  0.4781090000000 1.0
C      1  0.4742240000000  0.4803970000000  0.5073730000000 1.0
C      1  0.4846120000000  0.4862080000000  0.6002490000000 1.0
C      1  0.4843250000000  0.6003020000000  0.5144140000000 1.0
C      1  0.4852290000000  0.5137670000000  0.3987210000000 1.0
C      1  0.4854780000000  0.3995150000000  0.4862310000000 1.0
C      1  0.5150210000000  0.4862330000000  0.6012790000000 1.0
C      1  0.5147720000000  0.6004850000000  0.5137690000000 1.0
C      1  0.5156390000000  0.5137920000000  0.3997510000000 1.0
C      1  0.5159260000000  0.3996980000000  0.4855860000000 1.0
C      1  0.5477500000000  0.4246170000000  0.4820090000000 1.0
C      1  0.5554190000000  0.4830370000000  0.5892200000000 1.0
C      1  0.5549040000000  0.5884970000000  0.5164110000000 1.0
C      1  0.5475200000000  0.5160410000000  0.4256120000000 1.0
C      1  0.4453460000000  0.4115030000000  0.4835890000000 1.0
C      1  0.4527300000000  0.4839590000000  0.5743880000000 1.0
C      1  0.4525010000000  0.5753830000000  0.5179910000000 1.0
C      1  0.4448320000000  0.5169630000000  0.4107800000000 1.0
C      1  0.4269560000000  0.5206890000000  0.5070700000000 1.0
C      1  0.4275650000000  0.5087080000000  0.4785690000000 1.0
C      1  0.4273940000000  0.4795260000000  0.4908180000000 1.0
C      1  0.4273220000000  0.4922680000000  0.5197030000000 1.0
C      1  0.5728560000000  0.5204740000000  0.5091820000000 1.0
C      1  0.5729280000000  0.5077320000000  0.4802970000000 1.0
C      1  0.5732940000000  0.4793110000000  0.4929300000000 1.0
C      1  0.5726850000000  0.4912920000000  0.5214310000000 1.0
C      1  0.5143770000000  0.5484240000000  0.4954120000000 1.0
C      1  0.5138420000000  0.4878910000000  0.4536340000000 1.0
C      1  0.5157030000000  0.4514060000000  0.5076870000000 1.0
C      1  0.5155310000000  0.5063770000000  0.5500080000000 1.0
C      1  0.4845470000000  0.5485940000000  0.4923130000000 1.0
C      1  0.4847200000000  0.4936230000000  0.4499920000000 1.0
C      1  0.4858730000000  0.4515760000000  0.5045880000000 1.0
C      1  0.4864090000000  0.5121090000000  0.5463660000000 1.0
C      1  0.5580520000000  0.5751990000000  0.5413360000000 1.0
C      1  0.5543080000000  0.5446370000000  0.4284110000000 1.0
C      1  0.5551910000000  0.4259210000000  0.4537170000000 1.0
C      1  0.5583320000000  0.4582030000000  0.5755850000000 1.0
C      1  0.4450590000000  0.5740790000000  0.5462830000000 1.0
C      1  0.4419180000000  0.5417970000000  0.4244150000000 1.0
C      1  0.4421980000000  0.4248010000000  0.4586640000000 1.0
C      1  0.4459420000000  0.4553630000000  0.5715890000000 1.0
C      1  0.4634430000000  0.4969560000000  0.4081020000000 1.0
C      1  0.4643630000000  0.4095070000000  0.5034310000000 1.0
C      1  0.4650720000000  0.5042340000000  0.5902320000000 1.0
C      1  0.4644370000000  0.5902140000000  0.4966100000000 1.0
C      1  0.5351790000000  0.4957660000000  0.4097680000000 1.0
C      1  0.5358130000000  0.4097860000000  0.5033900000000 1.0
C      1  0.5368080000000  0.5030440000000  0.5918980000000 1.0
C      1  0.5358880000000  0.5904930000000  0.4965690000000 1.0
C      1  0.4703490000000  0.5514240000000  0.5184810000000 1.0
C      1  0.4787510000000  0.5237220000000  0.4477510000000 1.0
C      1  0.4794540000000  0.4504020000000  0.4743920000000 1.0
C      1  0.4708220000000  0.4842810000000  0.5508230000000 1.0
C      1  0.5207970000000  0.5495980000000  0.5256080000000 1.0
C      1  0.5294280000000  0.5157190000000  0.4491770000000 1.0
C      1  0.5299020000000  0.4485760000000  0.4815190000000 1.0
C      1  0.5214990000000  0.4762780000000  0.5522490000000 1.0
C      1  0.3955860000000  0.5497450000000  0.4869030000000 1.0
C      1  0.3937330000000  0.4863650000000  0.4513150000000 1.0
C      1  0.3945840000000  0.4514960000000  0.5142440000000 1.0
C      1  0.3973600000000  0.5141210000000  0.5495380000000 1.0
C      1  0.6056660000000  0.5485040000000  0.4857560000000 1.0
C      1  0.6028910000000  0.4858790000000  0.4504620000000 1.0
C      1  0.6046650000000  0.4502550000000  0.5130970000000 1.0
C      1  0.6065170000000  0.5136350000000  0.5486850000000 1.0
C      1  0.4932630000000  0.4660100000000  0.5494490000000 1.0
C      1  0.4925170000000  0.5441050000000  0.5375000000000 1.0
C      1  0.5069870000000  0.5339900000000  0.4505510000000 1.0
C      1  0.5077330000000  0.4558950000000  0.4625000000000 1.0
END
