TITL C-239817-2079-6 -0.054894516912191 125000 -75.8378021589772 0 0 13 (C1) n - 1
REM
REM in /rds/project/t2_vol4/rds-t2-cs072/BORA/CARBON/from-Arr/AIRSS/Generating-Clusters/GAP-ML-2020/Higher-Symm/SD-CG/HFTN-CG
REM
REM
REM
REM
REM
REM ./C.cell (b20cbc046b6831c77cfcea5457e17084)
REM AIRSS Version 0.9.1 bugfix July 2018 build 013d7b7c2542+ Fri, 06 Jul 2018 19:26:36 +0100
REM compiler GCC version 9.3.0
REM options -cpp -mtune=generic -march=x86-64 -g -O0
REM seed 396828258 -48629759 -1565686456 -1946038567 -238508365 -1869633530 1838577256 2071134818 552341313 -926904498 -1993575599 -1798329962 -1340464469 -727358868 -1597736883 -926139911 1118449820 1187127617 -119830030 1225812560 -1899487016 53670774 -1569077553 -1756260851 1070562204 -1256890721 -570461978 2046717128 1936159248 1777426969 -2110687932 -1025773201 -575165408
REM
CELL 1.54180   50.00000   50.00000   50.00000   90.00000   90.00000   90.00000
LATT -1
SFAC C  
C      1  0.4826510000000  0.5235680000000  0.4880320000000 1.0
C      1  0.4778140000000  0.5391950000000  0.5132290000000 1.0
C      1  0.5041550000000  0.5341550000000  0.5239820000000 1.0
C      1  0.5184200000000  0.5185990000000  0.5024690000000 1.0
C      1  0.5066600000000  0.5388240000000  0.4855740000000 1.0
C      1  0.4836920000000  0.4800260000000  0.5155150000000 1.0
C      1  0.4823000000000  0.4590610000000  0.4957210000000 1.0
C      1  0.5026620000000  0.4739750000000  0.4823820000000 1.0
C      1  0.5225740000000  0.4591900000000  0.4992820000000 1.0
C      1  0.5084690000000  0.4650040000000  0.5237720000000 1.0
C      1  0.5008230000000  0.4417220000000  0.5086290000000 1.0
C      1  0.5002970000000  0.5568550000000  0.5066340000000 1.0
C      1  0.4961620000000  0.4990410000000  0.4949860000000 1.0
END
