TITL C-234792-6770-6 -557.577483353037 125000 -343.206589484274 0 0 53 (C1) n - 1
REM
REM in /rds/project/t2_vol4/rds-t2-cs072/BORA/CARBON/from-Arr/AIRSS/Generating-Clusters/GAP-ML-2020/Higher-Symm/SD-CG/HFTN-CG
REM
REM
REM
REM
REM
REM ./C.cell (b20cbc046b6831c77cfcea5457e17084)
REM AIRSS Version 0.9.1 bugfix July 2018 build 013d7b7c2542+ Fri, 06 Jul 2018 19:26:36 +0100
REM compiler GCC version 9.3.0
REM options -cpp -mtune=generic -march=x86-64 -g -O0
REM seed -1441842631 -277877432 -1766926797 -69375783 -1490465373 -727821725 -632422443 -1516783422 -1711429301 -1280143754 268277099 -2001529025 -405050049 -2114527685 1515048317 1646872110 194899075 1128189175 1760508230 2031514897 -609727079 -1724969835 302237839 -851001462 688157331 -1794084149 -377017253 1678320128 -969581218 1796618104 -69578126 421900582 1351938391
REM
CELL 1.54180   50.00000   50.00000   50.00000   90.00000   90.00000   90.00000
LATT -1
SFAC C  
C      1  0.4821220000000  0.5605100000000  0.5142280000000 1.0
C      1  0.5271910000000  0.5564460000000  0.5118910000000 1.0
C      1  0.5028930000000  0.5590430000000  0.4732220000000 1.0
C      1  0.4760260000000  0.4427010000000  0.4873570000000 1.0
C      1  0.5225310000000  0.4413270000000  0.4916660000000 1.0
C      1  0.4969730000000  0.4443260000000  0.5273720000000 1.0
C      1  0.5520230000000  0.5083920000000  0.4566130000000 1.0
C      1  0.4454420000000  0.5033310000000  0.4752540000000 1.0
C      1  0.5004590000000  0.5056030000000  0.5546620000000 1.0
C      1  0.5474480000000  0.5004590000000  0.5342010000000 1.0
C      1  0.4343670000000  0.4913870000000  0.5241320000000 1.0
C      1  0.5050180000000  0.4986990000000  0.4406290000000 1.0
C      1  0.4835570000000  0.5251140000000  0.5640580000000 1.0
C      1  0.5667880000000  0.5263230000000  0.4727140000000 1.0
C      1  0.4462770000000  0.5256970000000  0.4580540000000 1.0
C      1  0.4896100000000  0.4766030000000  0.4324590000000 1.0
C      1  0.5646390000000  0.4820070000000  0.5184590000000 1.0
C      1  0.4437160000000  0.4725060000000  0.5431330000000 1.0
C      1  0.4665690000000  0.5605280000000  0.5354700000000 1.0
C      1  0.5538010000000  0.5495520000000  0.5195530000000 1.0
C      1  0.4946950000000  0.5544930000000  0.4465570000000 1.0
C      1  0.4561620000000  0.4476480000000  0.4677300000000 1.0
C      1  0.5487030000000  0.4417170000000  0.4938860000000 1.0
C      1  0.4934430000000  0.4511580000000  0.5543340000000 1.0
C      1  0.5311680000000  0.4900380000000  0.4851730000000 1.0
C      1  0.4720210000000  0.4903040000000  0.4722820000000 1.0
C      1  0.4853320000000  0.4915370000000  0.5337200000000 1.0
C      1  0.5362670000000  0.5095300000000  0.5062070000000 1.0
C      1  0.4707190000000  0.5115450000000  0.5183610000000 1.0
C      1  0.4895170000000  0.5119560000000  0.4622880000000 1.0
C      1  0.5556520000000  0.5298840000000  0.5390830000000 1.0
C      1  0.5162830000000  0.5401950000000  0.4365020000000 1.0
C      1  0.4464000000000  0.5177160000000  0.5309860000000 1.0
C      1  0.5538580000000  0.4829020000000  0.4699860000000 1.0
C      1  0.5147260000000  0.4681200000000  0.5620930000000 1.0
C      1  0.4366090000000  0.4614960000000  0.4819500000000 1.0
C      1  0.4986800000000  0.4718890000000  0.5163540000000 1.0
C      1  0.5130510000000  0.4691110000000  0.4904430000000 1.0
C      1  0.4842320000000  0.4703350000000  0.4909640000000 1.0
C      1  0.5014400000000  0.5312860000000  0.4820780000000 1.0
C      1  0.5157260000000  0.5298020000000  0.5081380000000 1.0
C      1  0.4863760000000  0.5326020000000  0.5069920000000 1.0
C      1  0.4701700000000  0.4694680000000  0.4497300000000 1.0
C      1  0.4696830000000  0.4709170000000  0.5494670000000 1.0
C      1  0.5606530000000  0.4683060000000  0.4943110000000 1.0
C      1  0.4627750000000  0.5346900000000  0.5480290000000 1.0
C      1  0.4713130000000  0.5330550000000  0.4503160000000 1.0
C      1  0.5589940000000  0.5289500000000  0.4978050000000 1.0
C      1  0.5288000000000  0.5156570000000  0.4381480000000 1.0
C      1  0.5264010000000  0.4919470000000  0.5561100000000 1.0
C      1  0.4312250000000  0.4854140000000  0.4942180000000 1.0
C      1  0.5068780000000  0.5719650000000  0.4989870000000 1.0
C      1  0.4963980000000  0.4293860000000  0.5032320000000 1.0
END
