TITL C-234772-2974-6 76.1349301244133 125000 -809.54391233421 0 0 111 (C1) n - 1
REM
REM in /rds/project/t2_vol4/rds-t2-cs072/BORA/CARBON/from-Arr/AIRSS/Generating-Clusters/GAP-ML-2020/Higher-Symm/SD-CG/HFTN-CG
REM
REM
REM
REM
REM
REM ./C.cell (b20cbc046b6831c77cfcea5457e17084)
REM AIRSS Version 0.9.1 bugfix July 2018 build 013d7b7c2542+ Fri, 06 Jul 2018 19:26:36 +0100
REM compiler GCC version 9.3.0
REM options -cpp -mtune=generic -march=x86-64 -g -O0
REM seed 412387458 528040817 808857988 -1426189031 264536066 467097662 785815059 253070088 1208957202 1760552838 -1338596183 -1053937420 -873050375 181785924 -455468106 -1487972204 -1068782213 -276598074 617817718 134789151 707334922 1812883452 -1079869065 1232386318 698024710 1887884768 775202734 -1429682978 2019680799 -119927523 -1620663993 1102253972 836791890
REM
CELL 1.54180   50.00000   50.00000   50.00000   90.00000   90.00000   90.00000
LATT -1
SFAC C  
C      1  0.5701900000000  0.4918820000000  0.5658760000000 1.0
C      1  0.5712170000000  0.5452150000000  0.5443540000000 1.0
C      1  0.5700330000000  0.5635520000000  0.4827620000000 1.0
C      1  0.5705950000000  0.5302590000000  0.4367620000000 1.0
C      1  0.5717120000000  0.4759800000000  0.4428300000000 1.0
C      1  0.5676170000000  0.4466620000000  0.4879060000000 1.0
C      1  0.5811450000000  0.4520400000000  0.5322410000000 1.0
C      1  0.4865330000000  0.5399700000000  0.5834950000000 1.0
C      1  0.4844490000000  0.5867440000000  0.5193520000000 1.0
C      1  0.4809140000000  0.5675920000000  0.4427460000000 1.0
C      1  0.4841940000000  0.4971490000000  0.4065250000000 1.0
C      1  0.4821600000000  0.4286170000000  0.4443780000000 1.0
C      1  0.4769800000000  0.4142380000000  0.5216160000000 1.0
C      1  0.4817280000000  0.4613210000000  0.5852170000000 1.0
C      1  0.4311330000000  0.5375890000000  0.5117610000000 1.0
C      1  0.4280420000000  0.5197700000000  0.4608370000000 1.0
C      1  0.4295450000000  0.4920680000000  0.4512210000000 1.0
C      1  0.4301470000000  0.4696360000000  0.4698120000000 1.0
C      1  0.4326940000000  0.4719100000000  0.5222590000000 1.0
C      1  0.4330500000000  0.4932890000000  0.5424440000000 1.0
C      1  0.4343050000000  0.5227320000000  0.5372810000000 1.0
C      1  0.5635040000000  0.5665040000000  0.5296260000000 1.0
C      1  0.5581520000000  0.5698050000000  0.4597630000000 1.0
C      1  0.5649500000000  0.5135330000000  0.4161270000000 1.0
C      1  0.5596500000000  0.4526000000000  0.4461240000000 1.0
C      1  0.5673700000000  0.4349310000000  0.5134140000000 1.0
C      1  0.5608260000000  0.4478160000000  0.5526600000000 1.0
C      1  0.5607890000000  0.5144710000000  0.5775270000000 1.0
C      1  0.5522810000000  0.5526650000000  0.4399370000000 1.0
C      1  0.5549760000000  0.4889450000000  0.4226820000000 1.0
C      1  0.5516210000000  0.4362010000000  0.4658450000000 1.0
C      1  0.5479720000000  0.4277730000000  0.5345780000000 1.0
C      1  0.5532380000000  0.4689780000000  0.5703370000000 1.0
C      1  0.5558110000000  0.5393260000000  0.5678660000000 1.0
C      1  0.5552930000000  0.5748460000000  0.5054420000000 1.0
C      1  0.4947710000000  0.5056270000000  0.5347390000000 1.0
C      1  0.4919940000000  0.5274740000000  0.5162500000000 1.0
C      1  0.4924710000000  0.5277210000000  0.4873900000000 1.0
C      1  0.4814000000000  0.5113790000000  0.4695560000000 1.0
C      1  0.4878370000000  0.4853120000000  0.4705540000000 1.0
C      1  0.4907720000000  0.4696040000000  0.5124640000000 1.0
C      1  0.4843350000000  0.4811690000000  0.5355930000000 1.0
C      1  0.5090820000000  0.5836410000000  0.4798280000000 1.0
C      1  0.5076370000000  0.5366690000000  0.4198340000000 1.0
C      1  0.5102280000000  0.4602540000000  0.4205290000000 1.0
C      1  0.5054460000000  0.4152050000000  0.4822090000000 1.0
C      1  0.5039230000000  0.4293720000000  0.5565270000000 1.0
C      1  0.5119110000000  0.4978560000000  0.5895180000000 1.0
C      1  0.5124030000000  0.5682070000000  0.5558910000000 1.0
C      1  0.5371530000000  0.4853450000000  0.5175820000000 1.0
C      1  0.5251620000000  0.5059380000000  0.5317290000000 1.0
C      1  0.5236480000000  0.5290830000000  0.5151970000000 1.0
C      1  0.5226940000000  0.5275230000000  0.4865800000000 1.0
C      1  0.5349380000000  0.5042000000000  0.4764450000000 1.0
C      1  0.5166900000000  0.4820670000000  0.4760130000000 1.0
C      1  0.5179530000000  0.4706000000000  0.5027130000000 1.0
C      1  0.4576380000000  0.5737500000000  0.4837770000000 1.0
C      1  0.4571830000000  0.5336940000000  0.4233630000000 1.0
C      1  0.4590780000000  0.4634110000000  0.4223560000000 1.0
C      1  0.4543240000000  0.4256020000000  0.4812810000000 1.0
C      1  0.4544950000000  0.4389090000000  0.5527820000000 1.0
C      1  0.4602580000000  0.5005990000000  0.5851250000000 1.0
C      1  0.4612270000000  0.5628660000000  0.5532380000000 1.0
C      1  0.5120930000000  0.5277440000000  0.5854980000000 1.0
C      1  0.5109660000000  0.5823590000000  0.5288290000000 1.0
C      1  0.5075250000000  0.5727910000000  0.4522610000000 1.0
C      1  0.5096120000000  0.5082160000000  0.4118370000000 1.0
C      1  0.5088030000000  0.4368380000000  0.4388840000000 1.0
C      1  0.5035530000000  0.4124700000000  0.5111710000000 1.0
C      1  0.5065030000000  0.4512010000000  0.5761360000000 1.0
C      1  0.4420840000000  0.5405180000000  0.4468230000000 1.0
C      1  0.4440600000000  0.4872750000000  0.4272310000000 1.0
C      1  0.4415330000000  0.4436660000000  0.4623100000000 1.0
C      1  0.4415920000000  0.4444360000000  0.5280960000000 1.0
C      1  0.4444360000000  0.4842270000000  0.5677980000000 1.0
C      1  0.4474200000000  0.5382440000000  0.5577540000000 1.0
C      1  0.4449750000000  0.5628710000000  0.5077830000000 1.0
C      1  0.5265730000000  0.4724860000000  0.5809360000000 1.0
C      1  0.5288010000000  0.5476840000000  0.5712280000000 1.0
C      1  0.5271140000000  0.5829850000000  0.5039030000000 1.0
C      1  0.5242920000000  0.5548090000000  0.4352000000000 1.0
C      1  0.5271150000000  0.4846380000000  0.4173450000000 1.0
C      1  0.5243890000000  0.4263270000000  0.4620750000000 1.0
C      1  0.5207450000000  0.4201230000000  0.5342990000000 1.0
C      1  0.5833590000000  0.5194670000000  0.4599510000000 1.0
C      1  0.5845020000000  0.4902480000000  0.4638580000000 1.0
C      1  0.5780420000000  0.4754500000000  0.4903740000000 1.0
C      1  0.5887200000000  0.4758330000000  0.5211510000000 1.0
C      1  0.5848550000000  0.4964820000000  0.5413820000000 1.0
C      1  0.5827420000000  0.5227270000000  0.5310250000000 1.0
C      1  0.5815870000000  0.5368980000000  0.4825400000000 1.0
C      1  0.4775400000000  0.4229830000000  0.5484880000000 1.0
C      1  0.4848750000000  0.4881890000000  0.5928560000000 1.0
C      1  0.4865740000000  0.5626360000000  0.5666100000000 1.0
C      1  0.4828620000000  0.5864310000000  0.4912620000000 1.0
C      1  0.4815750000000  0.5480090000000  0.4224170000000 1.0
C      1  0.4845700000000  0.4694210000000  0.4117350000000 1.0
C      1  0.4796960000000  0.4175580000000  0.4701100000000 1.0
C      1  0.4561180000000  0.5640510000000  0.4573850000000 1.0
C      1  0.4589000000000  0.5077350000000  0.4143230000000 1.0
C      1  0.4573330000000  0.4416550000000  0.4388970000000 1.0
C      1  0.4534720000000  0.4256010000000  0.5092330000000 1.0
C      1  0.4565200000000  0.4586250000000  0.5717290000000 1.0
C      1  0.4613720000000  0.5272490000000  0.5799160000000 1.0
C      1  0.4600130000000  0.5750860000000  0.5287700000000 1.0
C      1  0.4722260000000  0.4744360000000  0.4919280000000 1.0
C      1  0.4180240000000  0.5243190000000  0.4884730000000 1.0
C      1  0.3961620000000  0.5083520000000  0.4970410000000 1.0
C      1  0.4411210000000  0.4759410000000  0.4954950000000 1.0
C      1  0.5771180000000  0.5200710000000  0.5039020000000 1.0
C      1  0.5571200000000  0.4962060000000  0.4970720000000 1.0
END
