TITL C-234701-221-3 26.3424992324356 125000 -652.845300591056 0 0 96 (C1) n - 1
REM
REM in /rds/project/t2_vol4/rds-t2-cs072/BORA/CARBON/from-Arr/AIRSS/Generating-Clusters/GAP-ML-2020/Higher-Symm/SD-CG/HFTN-CG
REM
REM
REM
REM
REM
REM ./C.cell (b20cbc046b6831c77cfcea5457e17084)
REM AIRSS Version 0.9.1 bugfix July 2018 build 013d7b7c2542+ Fri, 06 Jul 2018 19:26:36 +0100
REM compiler GCC version 9.3.0
REM options -cpp -mtune=generic -march=x86-64 -g -O0
REM seed 1449987187 1761529087 -1362614290 711257577 822748528 293477128 317125548 -2108877240 -560739130 175811638 203918498 -919152722 -438587780 -268652593 222543128 1471017593 -527137215 -940439480 -126664918 -971494801 743870768 -802456187 758587789 -1771633320 387961229 355223880 -383651466 -1458667429 -1478601108 -1415888356 435214080 -1394172148 -970022369
REM
CELL 1.54180   50.00000   50.00000   50.00000   90.00000   90.00000   90.00000
LATT -1
SFAC C  
C      1  0.5088400000000  0.4492800000000  0.5295290000000 1.0
C      1  0.5082210000000  0.5043980000000  0.5513690000000 1.0
C      1  0.5099570000000  0.5533970000000  0.5373330000000 1.0
C      1  0.5103620000000  0.5657060000000  0.4882430000000 1.0
C      1  0.5122220000000  0.5307940000000  0.4508420000000 1.0
C      1  0.5108460000000  0.4671180000000  0.4449150000000 1.0
C      1  0.5102640000000  0.4300670000000  0.4820340000000 1.0
C      1  0.5032940000000  0.4886810000000  0.4248610000000 1.0
C      1  0.5018350000000  0.4224940000000  0.4544750000000 1.0
C      1  0.5033960000000  0.4192590000000  0.5258670000000 1.0
C      1  0.5073180000000  0.4781370000000  0.5669880000000 1.0
C      1  0.5036920000000  0.5483510000000  0.5664530000000 1.0
C      1  0.4979320000000  0.5863520000000  0.5065720000000 1.0
C      1  0.5081300000000  0.5592180000000  0.4434530000000 1.0
C      1  0.4399230000000  0.4609110000000  0.4969290000000 1.0
C      1  0.4562740000000  0.4729980000000  0.5207930000000 1.0
C      1  0.4559970000000  0.5035090000000  0.5318180000000 1.0
C      1  0.4386080000000  0.5292870000000  0.5232800000000 1.0
C      1  0.4275830000000  0.5367540000000  0.4978050000000 1.0
C      1  0.4563700000000  0.5179260000000  0.4593630000000 1.0
C      1  0.4349050000000  0.4733170000000  0.4720640000000 1.0
C      1  0.4591480000000  0.4694520000000  0.4262890000000 1.0
C      1  0.4580640000000  0.4159920000000  0.4767760000000 1.0
C      1  0.4630990000000  0.4297380000000  0.5497360000000 1.0
C      1  0.4666560000000  0.4960600000000  0.5834550000000 1.0
C      1  0.4594300000000  0.5642820000000  0.5567660000000 1.0
C      1  0.4566180000000  0.5791470000000  0.4830220000000 1.0
C      1  0.4598450000000  0.5463290000000  0.4309390000000 1.0
C      1  0.5458690000000  0.4346080000000  0.4381730000000 1.0
C      1  0.5443920000000  0.4047640000000  0.5079580000000 1.0
C      1  0.5496640000000  0.4540070000000  0.5523540000000 1.0
C      1  0.5464350000000  0.5253920000000  0.5721210000000 1.0
C      1  0.5406840000000  0.5874470000000  0.5249450000000 1.0
C      1  0.5511510000000  0.5730540000000  0.4653490000000 1.0
C      1  0.5467380000000  0.5095250000000  0.4245440000000 1.0
C      1  0.5182710000000  0.4095360000000  0.5043380000000 1.0
C      1  0.5205650000000  0.4566590000000  0.5551720000000 1.0
C      1  0.5178700000000  0.5252220000000  0.5725610000000 1.0
C      1  0.5147330000000  0.5822330000000  0.5285930000000 1.0
C      1  0.5230380000000  0.5740430000000  0.4617660000000 1.0
C      1  0.5198400000000  0.5117230000000  0.4279860000000 1.0
C      1  0.5193630000000  0.4372890000000  0.4376040000000 1.0
C      1  0.4752100000000  0.4928320000000  0.4200600000000 1.0
C      1  0.4734320000000  0.4224390000000  0.4522270000000 1.0
C      1  0.4760030000000  0.4140420000000  0.5287850000000 1.0
C      1  0.4824790000000  0.4724490000000  0.5788120000000 1.0
C      1  0.4766240000000  0.5487560000000  0.5739020000000 1.0
C      1  0.4695060000000  0.5864070000000  0.5083510000000 1.0
C      1  0.4800610000000  0.5654700000000  0.4401170000000 1.0
C      1  0.4433110000000  0.4326410000000  0.4942300000000 1.0
C      1  0.4509980000000  0.4543910000000  0.5442030000000 1.0
C      1  0.4506440000000  0.5060440000000  0.5626520000000 1.0
C      1  0.4427860000000  0.5529780000000  0.5374410000000 1.0
C      1  0.4374840000000  0.5574110000000  0.4787420000000 1.0
C      1  0.4427860000000  0.5448230000000  0.4543320000000 1.0
C      1  0.4418550000000  0.4616420000000  0.4466140000000 1.0
C      1  0.5340820000000  0.5377840000000  0.5256230000000 1.0
C      1  0.5340860000000  0.5459330000000  0.4964360000000 1.0
C      1  0.5338660000000  0.5253280000000  0.4738370000000 1.0
C      1  0.5332100000000  0.4739760000000  0.4654680000000 1.0
C      1  0.5331410000000  0.4500870000000  0.4837270000000 1.0
C      1  0.5327590000000  0.4597570000000  0.5122680000000 1.0
C      1  0.5329870000000  0.5072870000000  0.5333220000000 1.0
C      1  0.4606690000000  0.4430420000000  0.4372680000000 1.0
C      1  0.4607930000000  0.4128800000000  0.5047580000000 1.0
C      1  0.4673340000000  0.4508040000000  0.5672630000000 1.0
C      1  0.4640070000000  0.5234320000000  0.5809140000000 1.0
C      1  0.4568410000000  0.5777770000000  0.5322730000000 1.0
C      1  0.4710420000000  0.5827540000000  0.4594900000000 1.0
C      1  0.4637220000000  0.5171790000000  0.4295100000000 1.0
C      1  0.4898840000000  0.4715570000000  0.4682910000000 1.0
C      1  0.4895140000000  0.4521270000000  0.4880430000000 1.0
C      1  0.4849750000000  0.4613320000000  0.5144790000000 1.0
C      1  0.4850400000000  0.5127100000000  0.5323460000000 1.0
C      1  0.4912140000000  0.5371960000000  0.5203060000000 1.0
C      1  0.4909340000000  0.5423030000000  0.4925980000000 1.0
C      1  0.4862130000000  0.5227130000000  0.4716710000000 1.0
C      1  0.5548910000000  0.4461580000000  0.5255490000000 1.0
C      1  0.5529150000000  0.5010160000000  0.5571170000000 1.0
C      1  0.5584550000000  0.5531970000000  0.5372760000000 1.0
C      1  0.5593450000000  0.5624290000000  0.4911960000000 1.0
C      1  0.5607120000000  0.5250290000000  0.4608910000000 1.0
C      1  0.5604960000000  0.4757610000000  0.4546540000000 1.0
C      1  0.5603430000000  0.4377670000000  0.4806100000000 1.0
C      1  0.5660180000000  0.4469870000000  0.4539250000000 1.0
C      1  0.5630600000000  0.4256670000000  0.5064960000000 1.0
C      1  0.5620630000000  0.4765490000000  0.5629220000000 1.0
C      1  0.5602620000000  0.5478080000000  0.5633990000000 1.0
C      1  0.5631230000000  0.5739540000000  0.5171220000000 1.0
C      1  0.5693390000000  0.5514270000000  0.4646570000000 1.0
C      1  0.5648750000000  0.5017850000000  0.4438500000000 1.0
C      1  0.4333880000000  0.5016280000000  0.4717360000000 1.0
C      1  0.5344810000000  0.4895860000000  0.5102910000000 1.0
C      1  0.4950230000000  0.4968170000000  0.4804080000000 1.0
C      1  0.5254160000000  0.4976630000000  0.4838800000000 1.0
C      1  0.4148260000000  0.5147330000000  0.4868350000000 1.0
END
