TITL C-234682-220-8 -1022.07478812651 125000 -1006.06931675638 0 0 141 (C1) n - 1
REM
REM in /rds/project/t2_vol4/rds-t2-cs072/BORA/CARBON/from-Arr/AIRSS/Generating-Clusters/GAP-ML-2020/Higher-Symm/SD-CG/HFTN-CG
REM
REM
REM
REM
REM
REM ./C.cell (b20cbc046b6831c77cfcea5457e17084)
REM AIRSS Version 0.9.1 bugfix July 2018 build 013d7b7c2542+ Fri, 06 Jul 2018 19:26:36 +0100
REM compiler GCC version 9.3.0
REM options -cpp -mtune=generic -march=x86-64 -g -O0
REM seed -1079187003 -990277363 612600654 1963365085 -1050693300 -1099966713 -946404931 -759612454 1055187205 -693651580 1445718436 -1100194618 -1343080556 -661872417 -146417031 108000447 -2023382939 -2045791545 410825935 -786609618 1094531098 1765330854 1255117373 1468641147 2110963674 -345157257 1341034118 1108300042 -1908606470 -1787689943 -361354511 -646195726 -686347107
REM
CELL 1.54180   50.00000   50.00000   50.00000   90.00000   90.00000   90.00000
LATT -1
SFAC C  
C      1  0.5319330000000  0.4189440000000  0.5610990000000 1.0
C      1  0.5315040000000  0.4172240000000  0.4420110000000 1.0
C      1  0.5314720000000  0.5299760000000  0.4031050000000 1.0
C      1  0.5319930000000  0.6022800000000  0.4978130000000 1.0
C      1  0.5312220000000  0.5329790000000  0.5949370000000 1.0
C      1  0.4453380000000  0.5226370000000  0.5153260000000 1.0
C      1  0.4454720000000  0.4781900000000  0.5253730000000 1.0
C      1  0.4450990000000  0.4665190000000  0.4990150000000 1.0
C      1  0.4458330000000  0.5041020000000  0.4732930000000 1.0
C      1  0.4455010000000  0.5322590000000  0.4856390000000 1.0
C      1  0.5507210000000  0.5437010000000  0.5770380000000 1.0
C      1  0.5512500000000  0.4396380000000  0.5655430000000 1.0
C      1  0.5509350000000  0.4192620000000  0.4628730000000 1.0
C      1  0.5508610000000  0.5106830000000  0.4113830000000 1.0
C      1  0.5513680000000  0.5883080000000  0.4819770000000 1.0
C      1  0.4488200000000  0.4170840000000  0.5135530000000 1.0
C      1  0.4484510000000  0.4624470000000  0.4255950000000 1.0
C      1  0.4491170000000  0.5602400000000  0.4407670000000 1.0
C      1  0.4490700000000  0.5740230000000  0.5364730000000 1.0
C      1  0.4486990000000  0.4860470000000  0.5824720000000 1.0
C      1  0.4401860000000  0.4908850000000  0.4206230000000 1.0
C      1  0.4402020000000  0.5762900000000  0.4646910000000 1.0
C      1  0.4405010000000  0.5542230000000  0.5575570000000 1.0
C      1  0.4401160000000  0.4596820000000  0.5714570000000 1.0
C      1  0.4402930000000  0.4198100000000  0.4844570000000 1.0
C      1  0.5729380000000  0.5738460000000  0.4953450000000 1.0
C      1  0.5726250000000  0.5267970000000  0.5679860000000 1.0
C      1  0.5729270000000  0.4434450000000  0.5463290000000 1.0
C      1  0.5727200000000  0.4384780000000  0.4603310000000 1.0
C      1  0.5727160000000  0.5189880000000  0.4287580000000 1.0
C      1  0.5795400000000  0.4706860000000  0.5418110000000 1.0
C      1  0.5795800000000  0.4511610000000  0.4847290000000 1.0
C      1  0.5795740000000  0.4996280000000  0.4482970000000 1.0
C      1  0.5796830000000  0.5491840000000  0.4829530000000 1.0
C      1  0.5796580000000  0.5311170000000  0.5408800000000 1.0
C      1  0.5426560000000  0.5527710000000  0.4148720000000 1.0
C      1  0.5426820000000  0.5971320000000  0.5231670000000 1.0
C      1  0.5423590000000  0.5076170000000  0.5988420000000 1.0
C      1  0.5427840000000  0.4080230000000  0.5377310000000 1.0
C      1  0.5423810000000  0.4358870000000  0.4242250000000 1.0
C      1  0.4886620000000  0.5228870000000  0.4658360000000 1.0
C      1  0.4886840000000  0.5400870000000  0.5093870000000 1.0
C      1  0.4868770000000  0.5028440000000  0.5390720000000 1.0
C      1  0.4889900000000  0.4624220000000  0.5145290000000 1.0
C      1  0.4867780000000  0.4753420000000  0.4691110000000 1.0
C      1  0.5202250000000  0.4913540000000  0.6027600000000 1.0
C      1  0.5205110000000  0.3992250000000  0.5236740000000 1.0
C      1  0.5200400000000  0.4468130000000  0.4119330000000 1.0
C      1  0.5205690000000  0.5683960000000  0.4210660000000 1.0
C      1  0.5202670000000  0.5955820000000  0.5394760000000 1.0
C      1  0.4840900000000  0.5954060000000  0.4775930000000 1.0
C      1  0.4834320000000  0.5490030000000  0.5807560000000 1.0
C      1  0.4838330000000  0.4363500000000  0.5728650000000 1.0
C      1  0.4837370000000  0.4115550000000  0.4626690000000 1.0
C      1  0.4835760000000  0.5088610000000  0.4050090000000 1.0
C      1  0.4573980000000  0.5883450000000  0.4843940000000 1.0
C      1  0.4567070000000  0.5405360000000  0.5768040000000 1.0
C      1  0.4570720000000  0.4376610000000  0.5633930000000 1.0
C      1  0.4569050000000  0.4207600000000  0.4611040000000 1.0
C      1  0.4570620000000  0.5133060000000  0.4138150000000 1.0
C      1  0.5019650000000  0.5305860000000  0.4049960000000 1.0
C      1  0.5023480000000  0.6012890000000  0.4986240000000 1.0
C      1  0.5017520000000  0.5313470000000  0.5934700000000 1.0
C      1  0.5023030000000  0.4192340000000  0.5596470000000 1.0
C      1  0.5019740000000  0.4189630000000  0.4421770000000 1.0
C      1  0.5632190000000  0.4260260000000  0.5266000000000 1.0
C      1  0.5630580000000  0.4518560000000  0.4376410000000 1.0
C      1  0.5633100000000  0.5448380000000  0.4342450000000 1.0
C      1  0.5632460000000  0.5761740000000  0.5215620000000 1.0
C      1  0.5630370000000  0.5026460000000  0.5785670000000 1.0
C      1  0.4413810000000  0.4416900000000  0.4461730000000 1.0
C      1  0.4421650000000  0.5340750000000  0.4290190000000 1.0
C      1  0.4421430000000  0.5790080000000  0.5082380000000 1.0
C      1  0.4417350000000  0.5144980000000  0.5766920000000 1.0
C      1  0.4413790000000  0.4295580000000  0.5396080000000 1.0
C      1  0.5132480000000  0.5003410000000  0.5261980000000 1.0
C      1  0.5136130000000  0.4755350000000  0.5072890000000 1.0
C      1  0.5132710000000  0.4851100000000  0.4778400000000 1.0
C      1  0.5137230000000  0.5161590000000  0.4785180000000 1.0
C      1  0.5136830000000  0.5253930000000  0.5081520000000 1.0
C      1  0.4918030000000  0.4598870000000  0.5868500000000 1.0
C      1  0.4916760000000  0.4052360000000  0.4892790000000 1.0
C      1  0.4915220000000  0.4815660000000  0.4070700000000 1.0
C      1  0.4920840000000  0.5845920000000  0.4523550000000 1.0
C      1  0.4915080000000  0.5699700000000  0.5632440000000 1.0
C      1  0.5565910000000  0.5488820000000  0.5312780000000 1.0
C      1  0.5562210000000  0.4849060000000  0.5557600000000 1.0
C      1  0.5562930000000  0.4424640000000  0.5027690000000 1.0
C      1  0.5564280000000  0.4797080000000  0.4455440000000 1.0
C      1  0.5565460000000  0.5460350000000  0.4631000000000 1.0
C      1  0.4949470000000  0.4380150000000  0.4217200000000 1.0
C      1  0.4952940000000  0.5563820000000  0.4159840000000 1.0
C      1  0.4951700000000  0.5974940000000  0.5263540000000 1.0
C      1  0.4950110000000  0.5040430000000  0.5997250000000 1.0
C      1  0.4953280000000  0.4055060000000  0.5352450000000 1.0
C      1  0.3969650000000  0.4997980000000  0.4756230000000 1.0
C      1  0.3972560000000  0.5236460000000  0.4911330000000 1.0
C      1  0.3970440000000  0.5150320000000  0.5186420000000 1.0
C      1  0.3974560000000  0.4862360000000  0.5201070000000 1.0
C      1  0.3974690000000  0.4767880000000  0.4931550000000 1.0
C      1  0.5432060000000  0.4735850000000  0.5053250000000 1.0
C      1  0.5430850000000  0.4864580000000  0.4756510000000 1.0
C      1  0.5433140000000  0.5189030000000  0.4791600000000 1.0
C      1  0.5433790000000  0.5254770000000  0.5108560000000 1.0
C      1  0.5430010000000  0.4974820000000  0.5272710000000 1.0
C      1  0.5193270000000  0.4674030000000  0.5890630000000 1.0
C      1  0.5193270000000  0.4052430000000  0.4967560000000 1.0
C      1  0.5190940000000  0.4742100000000  0.4090110000000 1.0
C      1  0.5197170000000  0.5799180000000  0.4461620000000 1.0
C      1  0.5191300000000  0.5747830000000  0.5575770000000 1.0
C      1  0.4192290000000  0.5273500000000  0.5312870000000 1.0
C      1  0.4174840000000  0.4750920000000  0.5371010000000 1.0
C      1  0.4182460000000  0.4577440000000  0.4891700000000 1.0
C      1  0.4190890000000  0.4994240000000  0.4578710000000 1.0
C      1  0.4165110000000  0.5428480000000  0.4823710000000 1.0
C      1  0.4221910000000  0.4508830000000  0.5496770000000 1.0
C      1  0.4233570000000  0.4391000000000  0.4694420000000 1.0
C      1  0.4232610000000  0.5113160000000  0.4333680000000 1.0
C      1  0.4228550000000  0.5692340000000  0.4876100000000 1.0
C      1  0.4243980000000  0.5296390000000  0.5583330000000 1.0
C      1  0.4735850000000  0.4606720000000  0.4905530000000 1.0
C      1  0.4728080000000  0.4989850000000  0.4615900000000 1.0
C      1  0.4749770000000  0.5401870000000  0.4837400000000 1.0
C      1  0.4725240000000  0.5258940000000  0.5279060000000 1.0
C      1  0.4741270000000  0.4779630000000  0.5343970000000 1.0
C      1  0.5910530000000  0.5009240000000  0.4748670000000 1.0
C      1  0.5910520000000  0.5242240000000  0.4925100000000 1.0
C      1  0.5911390000000  0.5145050000000  0.5201330000000 1.0
C      1  0.5910350000000  0.4852820000000  0.5195520000000 1.0
C      1  0.5910500000000  0.4768800000000  0.4915560000000 1.0
C      1  0.5410730000000  0.5571810000000  0.5558860000000 1.0
C      1  0.5411640000000  0.4638370000000  0.5715510000000 1.0
C      1  0.5409960000000  0.4210210000000  0.4877960000000 1.0
C      1  0.5411000000000  0.4874060000000  0.4206080000000 1.0
C      1  0.5415950000000  0.5724660000000  0.4625200000000 1.0
C      1  0.4757050000000  0.4833160000000  0.5922880000000 1.0
C      1  0.4757590000000  0.4068080000000  0.5134340000000 1.0
C      1  0.4755250000000  0.4592110000000  0.4160800000000 1.0
C      1  0.4760210000000  0.5685660000000  0.4342780000000 1.0
C      1  0.4757130000000  0.5831250000000  0.5429400000000 1.0
C      1  0.4452590000000  0.4965580000000  0.5017060000000 1.0
END
