TITL C-234764-2909-2 -0.0108568549706789 125000 -326.800574172745 0 0 50 (C1) n - 1
REM
REM in /rds/project/t2_vol4/rds-t2-cs072/BORA/CARBON/from-Arr/AIRSS/Generating-Clusters/GAP-ML-2020/Higher-Symm/SD-CG/HFTN-CG
REM
REM
REM
REM
REM
REM ./C.cell (b20cbc046b6831c77cfcea5457e17084)
REM AIRSS Version 0.9.1 bugfix July 2018 build 013d7b7c2542+ Fri, 06 Jul 2018 19:26:36 +0100
REM compiler GCC version 9.3.0
REM options -cpp -mtune=generic -march=x86-64 -g -O0
REM seed 800086554 -1856478111 1512467019 -95861956 -1062867535 -1192042896 596038826 21264134 1210660633 -80281110 1072890220 -1877279353 1346549248 -561828030 1756140327 -1313236270 -1434938418 592447549 -1832907092 1840340412 -804373332 26254308 -1823476170 1088644533 1837831062 260011526 -1972901872 515434891 -954427666 -1661845705 2012460551 -822236776 460391893
REM
CELL 1.54180   50.00000   50.00000   50.00000   90.00000   90.00000   90.00000
LATT -1
SFAC C  
C      1  0.5011440000000  0.5506410000000  0.5450690000000 1.0
C      1  0.5594100000000  0.4960010000000  0.5363320000000 1.0
C      1  0.4985800000000  0.4516090000000  0.5435240000000 1.0
C      1  0.4398610000000  0.5029620000000  0.5396870000000 1.0
C      1  0.5044480000000  0.4369210000000  0.4656720000000 1.0
C      1  0.5498000000000  0.5007100000000  0.4617730000000 1.0
C      1  0.5067930000000  0.5761970000000  0.4605150000000 1.0
C      1  0.4519940000000  0.4948800000000  0.4617600000000 1.0
C      1  0.4641610000000  0.4523590000000  0.4897530000000 1.0
C      1  0.4539120000000  0.5385800000000  0.4878010000000 1.0
C      1  0.5296050000000  0.5416700000000  0.4892870000000 1.0
C      1  0.5463250000000  0.4559440000000  0.4899810000000 1.0
C      1  0.4595350000000  0.5449860000000  0.5158830000000 1.0
C      1  0.4558020000000  0.4629460000000  0.5148200000000 1.0
C      1  0.5406010000000  0.4493280000000  0.5169850000000 1.0
C      1  0.5432960000000  0.5383000000000  0.5173560000000 1.0
C      1  0.4862970000000  0.4338400000000  0.4878520000000 1.0
C      1  0.4406780000000  0.5130400000000  0.4809860000000 1.0
C      1  0.5157270000000  0.5681650000000  0.4862030000000 1.0
C      1  0.5529180000000  0.4846810000000  0.4870190000000 1.0
C      1  0.4835510000000  0.5597700000000  0.5234550000000 1.0
C      1  0.4372460000000  0.4847600000000  0.5174600000000 1.0
C      1  0.5159480000000  0.4377300000000  0.5250850000000 1.0
C      1  0.5626330000000  0.5181980000000  0.5185550000000 1.0
C      1  0.4601370000000  0.5129470000000  0.5561610000000 1.0
C      1  0.5077170000000  0.5252180000000  0.5563960000000 1.0
C      1  0.5693540000000  0.4763690000000  0.5525150000000 1.0
C      1  0.4898870000000  0.4756480000000  0.5551440000000 1.0
C      1  0.4756650000000  0.4862800000000  0.4493200000000 1.0
C      1  0.5129910000000  0.4590300000000  0.4513460000000 1.0
C      1  0.5254490000000  0.5051850000000  0.4481060000000 1.0
C      1  0.4831740000000  0.5651790000000  0.4550570000000 1.0
C      1  0.4482080000000  0.5296780000000  0.5362520000000 1.0
C      1  0.5269310000000  0.5406160000000  0.5412340000000 1.0
C      1  0.5516890000000  0.4671800000000  0.5349280000000 1.0
C      1  0.4729360000000  0.4600750000000  0.5374710000000 1.0
C      1  0.4607100000000  0.4692150000000  0.4669680000000 1.0
C      1  0.5304790000000  0.4464420000000  0.4694250000000 1.0
C      1  0.5382190000000  0.5260650000000  0.4639960000000 1.0
C      1  0.4646140000000  0.5524970000000  0.4668680000000 1.0
C      1  0.5720920000000  0.4994200000000  0.5010930000000 1.0
C      1  0.4998950000000  0.4221250000000  0.5084220000000 1.0
C      1  0.4234620000000  0.4989480000000  0.4974910000000 1.0
C      1  0.4983100000000  0.5752810000000  0.5066940000000 1.0
C      1  0.5125630000000  0.5204840000000  0.4995620000000 1.0
C      1  0.5263930000000  0.4932420000000  0.5025480000000 1.0
C      1  0.5016540000000  0.4812530000000  0.4944880000000 1.0
C      1  0.4879120000000  0.5064130000000  0.4986870000000 1.0
C      1  0.4886660000000  0.5040650000000  0.5589700000000 1.0
C      1  0.5040020000000  0.4861850000000  0.4451290000000 1.0
END
