TITL C-234791-5382-2 -0.170039195275562 125000 -769.320672513108 0 0 107 (C1) n - 1
REM
REM in /rds/project/t2_vol4/rds-t2-cs072/BORA/CARBON/from-Arr/AIRSS/Generating-Clusters/GAP-ML-2020/Higher-Symm/SD-CG/HFTN-CG
REM
REM
REM
REM
REM
REM ./C.cell (b20cbc046b6831c77cfcea5457e17084)
REM AIRSS Version 0.9.1 bugfix July 2018 build 013d7b7c2542+ Fri, 06 Jul 2018 19:26:36 +0100
REM compiler GCC version 9.3.0
REM options -cpp -mtune=generic -march=x86-64 -g -O0
REM seed -1333725290 1843290719 -2059103466 -891600896 -1513321108 564339559 2037295270 1779568105 -213599063 -1651439458 -284010009 1810873760 -1160716686 -1488147825 -1439566761 -665419836 961115008 -731143681 371871152 1424799874 1540140103 -282259897 -337970414 -2049453719 1430744546 -1294181884 255405425 -2032770045 722005516 -1711789988 -1584025702 -336453382 1715329356
REM
CELL 1.54180   50.00000   50.00000   50.00000   90.00000   90.00000   90.00000
LATT -1
SFAC C  
C      1  0.5172210000000  0.5270230000000  0.4829700000000 1.0
C      1  0.5210990000000  0.4790890000000  0.4837270000000 1.0
C      1  0.4995340000000  0.4634760000000  0.4901200000000 1.0
C      1  0.4833300000000  0.5054530000000  0.4636470000000 1.0
C      1  0.4892290000000  0.5329520000000  0.4807750000000 1.0
C      1  0.5807550000000  0.4583510000000  0.4817290000000 1.0
C      1  0.4838670000000  0.4072680000000  0.4793850000000 1.0
C      1  0.4085850000000  0.4858550000000  0.4801290000000 1.0
C      1  0.4574690000000  0.5820900000000  0.4821080000000 1.0
C      1  0.5653650000000  0.5657430000000  0.4784040000000 1.0
C      1  0.4825290000000  0.4052010000000  0.5079350000000 1.0
C      1  0.4075550000000  0.4854740000000  0.5087440000000 1.0
C      1  0.4575640000000  0.5814810000000  0.5110850000000 1.0
C      1  0.5683200000000  0.5679480000000  0.5066040000000 1.0
C      1  0.5813930000000  0.4581460000000  0.5105440000000 1.0
C      1  0.4999130000000  0.5892630000000  0.4966880000000 1.0
C      1  0.5871210000000  0.5283680000000  0.4953240000000 1.0
C      1  0.5512300000000  0.4264420000000  0.4967450000000 1.0
C      1  0.4449350000000  0.4262060000000  0.4958520000000 1.0
C      1  0.4135470000000  0.5282060000000  0.4967270000000 1.0
C      1  0.5002690000000  0.4320830000000  0.4341670000000 1.0
C      1  0.4351700000000  0.4788130000000  0.4332200000000 1.0
C      1  0.4592000000000  0.5550180000000  0.4331070000000 1.0
C      1  0.5374060000000  0.5553120000000  0.4328720000000 1.0
C      1  0.5628450000000  0.4787460000000  0.4353620000000 1.0
C      1  0.5120010000000  0.4097200000000  0.4730270000000 1.0
C      1  0.4191200000000  0.4604260000000  0.4730220000000 1.0
C      1  0.4362270000000  0.5650790000000  0.4738670000000 1.0
C      1  0.5410210000000  0.5795990000000  0.4721070000000 1.0
C      1  0.5877730000000  0.4848360000000  0.4735430000000 1.0
C      1  0.4952580000000  0.5258140000000  0.4237270000000 1.0
C      1  0.5213670000000  0.5133820000000  0.4227140000000 1.0
C      1  0.5178960000000  0.4831560000000  0.4234190000000 1.0
C      1  0.4901020000000  0.4770680000000  0.4257630000000 1.0
C      1  0.4759590000000  0.5034170000000  0.4330710000000 1.0
C      1  0.5606960000000  0.4397070000000  0.4720760000000 1.0
C      1  0.4605790000000  0.4219910000000  0.4710950000000 1.0
C      1  0.4134900000000  0.5131270000000  0.4717590000000 1.0
C      1  0.4844960000000  0.5854990000000  0.4719800000000 1.0
C      1  0.5762630000000  0.5402100000000  0.4705350000000 1.0
C      1  0.5645090000000  0.5415550000000  0.5439480000000 1.0
C      1  0.5425160000000  0.4521590000000  0.5394430000000 1.0
C      1  0.4698970000000  0.4322870000000  0.5436500000000 1.0
C      1  0.4364490000000  0.5041440000000  0.5411000000000 1.0
C      1  0.4907660000000  0.5606770000000  0.5393790000000 1.0
C      1  0.5453670000000  0.5300220000000  0.4304330000000 1.0
C      1  0.5405120000000  0.4651790000000  0.4311300000000 1.0
C      1  0.4806020000000  0.4500910000000  0.4325980000000 1.0
C      1  0.4448910000000  0.5034240000000  0.4329840000000 1.0
C      1  0.4858790000000  0.5533820000000  0.4303720000000 1.0
C      1  0.4293670000000  0.5220820000000  0.4493920000000 1.0
C      1  0.4974860000000  0.5748710000000  0.4478060000000 1.0
C      1  0.5679660000000  0.5237080000000  0.4482440000000 1.0
C      1  0.5434910000000  0.4411180000000  0.4485340000000 1.0
C      1  0.4580730000000  0.4407230000000  0.4491340000000 1.0
C      1  0.5216500000000  0.4413920000000  0.5568610000000 1.0
C      1  0.4554290000000  0.4550450000000  0.5566410000000 1.0
C      1  0.4383200000000  0.5291540000000  0.5597950000000 1.0
C      1  0.5152280000000  0.5592100000000  0.5558340000000 1.0
C      1  0.5656480000000  0.5150160000000  0.5573160000000 1.0
C      1  0.5611210000000  0.4409260000000  0.5199450000000 1.0
C      1  0.4607180000000  0.4189670000000  0.5193400000000 1.0
C      1  0.4151590000000  0.5098330000000  0.5193160000000 1.0
C      1  0.4840890000000  0.5815680000000  0.5202280000000 1.0
C      1  0.5788130000000  0.5447850000000  0.5184710000000 1.0
C      1  0.4253740000000  0.4459990000000  0.4970360000000 1.0
C      1  0.4236840000000  0.5544040000000  0.4971980000000 1.0
C      1  0.5280910000000  0.5865370000000  0.4969180000000 1.0
C      1  0.5930800000000  0.5007930000000  0.4965640000000 1.0
C      1  0.5267030000000  0.4119980000000  0.4978040000000 1.0
C      1  0.4815920000000  0.5375720000000  0.5833390000000 1.0
C      1  0.5283700000000  0.5245640000000  0.5891710000000 1.0
C      1  0.5393270000000  0.4791000000000  0.5820340000000 1.0
C      1  0.4933860000000  0.4641120000000  0.5892160000000 1.0
C      1  0.4593110000000  0.4957100000000  0.5839540000000 1.0
C      1  0.5188030000000  0.4600540000000  0.5798400000000 1.0
C      1  0.4683730000000  0.4704410000000  0.5799150000000 1.0
C      1  0.4585390000000  0.5232280000000  0.5818090000000 1.0
C      1  0.5086950000000  0.5415400000000  0.5796020000000 1.0
C      1  0.5459030000000  0.5057950000000  0.5795440000000 1.0
C      1  0.5112580000000  0.5180130000000  0.5292390000000 1.0
C      1  0.5334230000000  0.4772930000000  0.5301700000000 1.0
C      1  0.4834570000000  0.4839520000000  0.5296470000000 1.0
C      1  0.4667940000000  0.5069710000000  0.5358500000000 1.0
C      1  0.4842530000000  0.5304260000000  0.5288710000000 1.0
C      1  0.4350210000000  0.4706690000000  0.5432840000000 1.0
C      1  0.4368710000000  0.5522770000000  0.5459410000000 1.0
C      1  0.5418020000000  0.5619970000000  0.5440470000000 1.0
C      1  0.5780260000000  0.4951000000000  0.5435510000000 1.0
C      1  0.5001350000000  0.4266560000000  0.5442400000000 1.0
C      1  0.4728230000000  0.5241480000000  0.5021790000000 1.0
C      1  0.5294010000000  0.5186370000000  0.5066820000000 1.0
C      1  0.5370610000000  0.4902480000000  0.5045760000000 1.0
C      1  0.4782010000000  0.4751640000000  0.5024360000000 1.0
C      1  0.4674310000000  0.4974870000000  0.4881050000000 1.0
C      1  0.5450440000000  0.5772370000000  0.5192410000000 1.0
C      1  0.5880950000000  0.4846550000000  0.5208340000000 1.0
C      1  0.5069330000000  0.4106680000000  0.5202590000000 1.0
C      1  0.4201000000000  0.4629950000000  0.5204200000000 1.0
C      1  0.4367950000000  0.5643830000000  0.5217370000000 1.0
C      1  0.5206320000000  0.4239290000000  0.4496330000000 1.0
C      1  0.4347740000000  0.4571000000000  0.4493340000000 1.0
C      1  0.4388760000000  0.5491880000000  0.4499260000000 1.0
C      1  0.5259320000000  0.5742700000000  0.4482580000000 1.0
C      1  0.5764430000000  0.4964420000000  0.4500500000000 1.0
C      1  0.5128760000000  0.5011830000000  0.4673870000000 1.0
C      1  0.5096800000000  0.4909570000000  0.5372870000000 1.0
END
