TITL C-234684-167-8 0.0147747461514627 125000 -403.912353526985 0 0 60 (C4) n - 1
REM
REM in /rds/project/t2_vol4/rds-t2-cs072/BORA/CARBON/from-Arr/AIRSS/Generating-Clusters/GAP-ML-2020/Higher-Symm/SD-CG/HFTN-CG
REM
REM
REM
REM
REM
REM ./C.cell (b20cbc046b6831c77cfcea5457e17084)
REM AIRSS Version 0.9.1 bugfix July 2018 build 013d7b7c2542+ Fri, 06 Jul 2018 19:26:36 +0100
REM compiler GCC version 9.3.0
REM options -cpp -mtune=generic -march=x86-64 -g -O0
REM seed -465729030 -1951859592 -193009983 943692608 1328030820 -1703653965 1598557761 639088850 -2058783828 866162394 -776664040 -109056497 1508892207 437497380 1315999046 1407947294 272440259 -1591230109 1967321764 556550206 -1267651950 -2102784821 -64885419 -1001386052 631332990 223642945 -1363482438 529582225 -447809857 146681511 -712872897 730155005 2061781302
REM
CELL 1.54180   50.00000   50.00000   50.00000   90.00000   90.00000   90.00000
LATT -1
SFAC C  
C      1  0.4946560000000  0.5419290000000  0.5075840000000 1.0
C      1  0.4583820000000  0.4949300000000  0.5094910000000 1.0
C      1  0.5054190000000  0.4586730000000  0.5106150000000 1.0
C      1  0.5416930000000  0.5056720000000  0.5087080000000 1.0
C      1  0.5199120000000  0.5428470000000  0.4903660000000 1.0
C      1  0.5431680000000  0.4797240000000  0.4925940000000 1.0
C      1  0.4800060000000  0.4564940000000  0.4937450000000 1.0
C      1  0.4567500000000  0.5196170000000  0.4915170000000 1.0
C      1  0.4459280000000  0.5320630000000  0.5470860000000 1.0
C      1  0.4698820000000  0.4474910000000  0.5501040000000 1.0
C      1  0.5545060000000  0.4714150000000  0.5488280000000 1.0
C      1  0.5305520000000  0.5559860000000  0.5458100000000 1.0
C      1  0.5497520000000  0.5194170000000  0.4640370000000 1.0
C      1  0.5206030000000  0.4487830000000  0.4667850000000 1.0
C      1  0.4499160000000  0.4779250000000  0.4660330000000 1.0
C      1  0.4790650000000  0.5485590000000  0.4632850000000 1.0
C      1  0.4837300000000  0.4901660000000  0.5680130000000 1.0
C      1  0.5126140000000  0.4858930000000  0.5680380000000 1.0
C      1  0.5168840000000  0.5147570000000  0.5669500000000 1.0
C      1  0.4880010000000  0.5190290000000  0.5669250000000 1.0
C      1  0.5145550000000  0.4830500000000  0.4319790000000 1.0
C      1  0.4852920000000  0.4825680000000  0.4321320000000 1.0
C      1  0.4848040000000  0.5118110000000  0.4310520000000 1.0
C      1  0.5140670000000  0.5122940000000  0.4308990000000 1.0
C      1  0.4295830000000  0.5126200000000  0.5370700000000 1.0
C      1  0.4888910000000  0.4308050000000  0.5398230000000 1.0
C      1  0.5707510000000  0.4900590000000  0.5372530000000 1.0
C      1  0.5114440000000  0.5718740000000  0.5344990000000 1.0
C      1  0.5718330000000  0.5014740000000  0.4648620000000 1.0
C      1  0.5026430000000  0.4267300000000  0.4679470000000 1.0
C      1  0.4278370000000  0.4958870000000  0.4657340000000 1.0
C      1  0.4970280000000  0.5706310000000  0.4626490000000 1.0
C      1  0.4492050000000  0.5141460000000  0.4647300000000 1.0
C      1  0.4843590000000  0.4480800000000  0.4670120000000 1.0
C      1  0.5504630000000  0.4831980000000  0.4654080000000 1.0
C      1  0.5153100000000  0.5492640000000  0.4631260000000 1.0
C      1  0.5505740000000  0.5108800000000  0.5343030000000 1.0
C      1  0.5097970000000  0.4508700000000  0.5367120000000 1.0
C      1  0.4497390000000  0.4916310000000  0.5354810000000 1.0
C      1  0.4905170000000  0.5516400000000  0.5330720000000 1.0
C      1  0.4998710000000  0.5833260000000  0.4885080000000 1.0
C      1  0.4162280000000  0.4995830000000  0.4919930000000 1.0
C      1  0.5000420000000  0.4159820000000  0.4946990000000 1.0
C      1  0.5836850000000  0.4997250000000  0.4912140000000 1.0
C      1  0.5085750000000  0.5915720000000  0.5110780000000 1.0
C      1  0.5911960000000  0.4919780000000  0.5143810000000 1.0
C      1  0.4915500000000  0.4094290000000  0.5178960000000 1.0
C      1  0.4089290000000  0.5090230000000  0.5145920000000 1.0
C      1  0.5360660000000  0.5289290000000  0.5515560000000 1.0
C      1  0.4732010000000  0.5377230000000  0.5515210000000 1.0
C      1  0.4644120000000  0.4749020000000  0.5538850000000 1.0
C      1  0.5272770000000  0.4661070000000  0.5539210000000 1.0
C      1  0.4681470000000  0.5276410000000  0.4471450000000 1.0
C      1  0.5293670000000  0.5296270000000  0.4467890000000 1.0
C      1  0.5313650000000  0.4684470000000  0.4490430000000 1.0
C      1  0.4701440000000  0.4664610000000  0.4494000000000 1.0
C      1  0.5267830000000  0.4580230000000  0.4933310000000 1.0
C      1  0.4731330000000  0.5413080000000  0.4904970000000 1.0
C      1  0.4582920000000  0.4728660000000  0.4930980000000 1.0
C      1  0.5416240000000  0.5264650000000  0.4907300000000 1.0
END
