TITL C-234774-3429-2 32.308267557222 125000 -72.2993858456485 0 0 12 (Cs) n - 1
REM
REM in /rds/project/t2_vol4/rds-t2-cs072/BORA/CARBON/from-Arr/AIRSS/Generating-Clusters/GAP-ML-2020/Higher-Symm/SD-CG/HFTN-CG
REM
REM
REM
REM
REM
REM ./C.cell (b20cbc046b6831c77cfcea5457e17084)
REM AIRSS Version 0.9.1 bugfix July 2018 build 013d7b7c2542+ Fri, 06 Jul 2018 19:26:36 +0100
REM compiler GCC version 9.3.0
REM options -cpp -mtune=generic -march=x86-64 -g -O0
REM seed 944368108 -835082696 -1016947916 -1076624176 828074201 1791584220 1814028056 -2016353173 1944719981 -442045897 -962633820 1719529267 -1839880121 -197525806 -1690790234 758120709 -73392140 1996477272 -84841743 -309845647 -760082267 807096741 -356568121 -771719191 1961331825 1215572727 -341601858 -1677027659 -1806657670 2126538382 864231834 1057557525 874107754
REM
CELL 1.54180   50.00000   50.00000   50.00000   90.00000   90.00000   90.00000
LATT -1
SFAC C  
C      1  0.5427470000000  0.4604080000000  0.4976360000000 1.0
C      1  0.5449990000000  0.5142170000000  0.4977140000000 1.0
C      1  0.5045720000000  0.5493930000000  0.4889070000000 1.0
C      1  0.4361590000000  0.5035290000000  0.5089990000000 1.0
C      1  0.4975300000000  0.4346720000000  0.5021960000000 1.0
C      1  0.5073020000000  0.5492360000000  0.5150890000000 1.0
C      1  0.4601320000000  0.4965790000000  0.5064580000000 1.0
C      1  0.4865520000000  0.4569960000000  0.5034690000000 1.0
C      1  0.5348500000000  0.4860070000000  0.4986060000000 1.0
C      1  0.5181500000000  0.5240770000000  0.5005720000000 1.0
C      1  0.4840820000000  0.4838300000000  0.5038850000000 1.0
C      1  0.5089780000000  0.4970870000000  0.5013670000000 1.0
END
