TITL C-237571-9926-3 -0.278849383713831 125000 -732.840757002741 0 0 101 (C1) n - 1
REM
REM in /rds/project/t2_vol4/rds-t2-cs072/BORA/CARBON/from-Arr/AIRSS/Generating-Clusters/GAP-ML-2020/Higher-Symm/SD-CG/HFTN-CG
REM
REM
REM
REM
REM
REM ./C.cell (b20cbc046b6831c77cfcea5457e17084)
REM AIRSS Version 0.9.1 bugfix July 2018 build 013d7b7c2542+ Fri, 06 Jul 2018 19:26:36 +0100
REM compiler GCC version 9.3.0
REM options -cpp -mtune=generic -march=x86-64 -g -O0
REM seed 1845166456 1058378850 -1923479097 1884192134 -451517016 -970187796 1703939816 -1371581503 -1061292232 196654964 -605019884 2027892304 -1284840970 -1548498504 -460568111 1214212894 -1713335096 -1723430062 -135140687 1682627671 436774751 -419538877 24805374 -238560571 -168196571 -598048974 -44894183 3955909 -280465104 -2008108052 1240776133 -639747715 -1699416635
REM
CELL 1.54180   50.00000   50.00000   50.00000   90.00000   90.00000   90.00000
LATT -1
SFAC C  
C      1  0.5290940000000  0.5376530000000  0.4375430000000 1.0
C      1  0.5321610000000  0.4528060000000  0.4463220000000 1.0
C      1  0.5317670000000  0.4344890000000  0.5299140000000 1.0
C      1  0.5281070000000  0.5079090000000  0.5725860000000 1.0
C      1  0.5278740000000  0.5722460000000  0.5159340000000 1.0
C      1  0.5800820000000  0.4622050000000  0.5189320000000 1.0
C      1  0.5787850000000  0.5068690000000  0.5453260000000 1.0
C      1  0.5788830000000  0.5460310000000  0.5105890000000 1.0
C      1  0.5800090000000  0.5250220000000  0.4626420000000 1.0
C      1  0.5809840000000  0.4730770000000  0.4680730000000 1.0
C      1  0.5128970000000  0.5695100000000  0.5400000000000 1.0
C      1  0.5134190000000  0.5592080000000  0.4470910000000 1.0
C      1  0.5166240000000  0.4681120000000  0.4283050000000 1.0
C      1  0.5182500000000  0.4213070000000  0.5088570000000 1.0
C      1  0.5136240000000  0.4840630000000  0.5779100000000 1.0
C      1  0.4091950000000  0.4890880000000  0.5344430000000 1.0
C      1  0.4072280000000  0.5390060000000  0.5221690000000 1.0
C      1  0.4069210000000  0.5260860000000  0.4725370000000 1.0
C      1  0.4083540000000  0.4796430000000  0.4617390000000 1.0
C      1  0.4112940000000  0.4480750000000  0.5023170000000 1.0
C      1  0.5511680000000  0.4571260000000  0.5205210000000 1.0
C      1  0.5498350000000  0.5065650000000  0.5496740000000 1.0
C      1  0.5500120000000  0.5503450000000  0.5111160000000 1.0
C      1  0.5512570000000  0.5268350000000  0.4577510000000 1.0
C      1  0.5523010000000  0.4691490000000  0.4639920000000 1.0
C      1  0.5264300000000  0.5673640000000  0.4707250000000 1.0
C      1  0.5287100000000  0.4935370000000  0.4285290000000 1.0
C      1  0.5306950000000  0.4305800000000  0.4853660000000 1.0
C      1  0.5276630000000  0.4649740000000  0.5628330000000 1.0
C      1  0.5259270000000  0.5492180000000  0.5543740000000 1.0
C      1  0.5941440000000  0.4988630000000  0.4612450000000 1.0
C      1  0.5941060000000  0.4636710000000  0.4928760000000 1.0
C      1  0.5929140000000  0.4825870000000  0.5361050000000 1.0
C      1  0.5922480000000  0.5296210000000  0.5314900000000 1.0
C      1  0.5929340000000  0.5398150000000  0.4850920000000 1.0
C      1  0.4462580000000  0.5590970000000  0.4792770000000 1.0
C      1  0.4484150000000  0.4957330000000  0.4367130000000 1.0
C      1  0.4509550000000  0.4322470000000  0.4805470000000 1.0
C      1  0.4474540000000  0.4608100000000  0.5518760000000 1.0
C      1  0.4463070000000  0.5382400000000  0.5513840000000 1.0
C      1  0.4854110000000  0.5319940000000  0.5745070000000 1.0
C      1  0.4857170000000  0.5808790000000  0.4917110000000 1.0
C      1  0.4873810000000  0.5163700000000  0.4209350000000 1.0
C      1  0.4912490000000  0.4279490000000  0.4584890000000 1.0
C      1  0.4887950000000  0.4389810000000  0.5543610000000 1.0
C      1  0.5174920000000  0.5178200000000  0.5181870000000 1.0
C      1  0.5181130000000  0.5240860000000  0.4902220000000 1.0
C      1  0.5185650000000  0.4994140000000  0.4757170000000 1.0
C      1  0.5165220000000  0.4772070000000  0.4947030000000 1.0
C      1  0.5156660000000  0.4886550000000  0.5210430000000 1.0
C      1  0.5396360000000  0.5434690000000  0.4819530000000 1.0
C      1  0.5409350000000  0.4971100000000  0.4552280000000 1.0
C      1  0.5404790000000  0.4578040000000  0.4910420000000 1.0
C      1  0.5388900000000  0.4789370000000  0.5392970000000 1.0
C      1  0.5389760000000  0.5318260000000  0.5344370000000 1.0
C      1  0.4843300000000  0.5590610000000  0.4462210000000 1.0
C      1  0.4876010000000  0.4661370000000  0.4267930000000 1.0
C      1  0.4894540000000  0.4183780000000  0.5084000000000 1.0
C      1  0.4844930000000  0.4825400000000  0.5788200000000 1.0
C      1  0.4840570000000  0.5698690000000  0.5407480000000 1.0
C      1  0.4710830000000  0.5760280000000  0.5159370000000 1.0
C      1  0.4716230000000  0.5369480000000  0.4331760000000 1.0
C      1  0.4750910000000  0.4457230000000  0.4425680000000 1.0
C      1  0.4752720000000  0.4277940000000  0.5317200000000 1.0
C      1  0.4705140000000  0.5073090000000  0.5766110000000 1.0
C      1  0.4768570000000  0.4211690000000  0.4826070000000 1.0
C      1  0.4722340000000  0.4596690000000  0.5661450000000 1.0
C      1  0.4710570000000  0.5505720000000  0.5580820000000 1.0
C      1  0.4710110000000  0.5697570000000  0.4693490000000 1.0
C      1  0.4737340000000  0.4910690000000  0.4239100000000 1.0
C      1  0.5172450000000  0.4406710000000  0.5535510000000 1.0
C      1  0.5137490000000  0.5321520000000  0.5732320000000 1.0
C      1  0.5140200000000  0.5801830000000  0.4924110000000 1.0
C      1  0.5157730000000  0.5176670000000  0.4223180000000 1.0
C      1  0.5192770000000  0.4313370000000  0.4596550000000 1.0
C      1  0.4323990000000  0.5494340000000  0.5290170000000 1.0
C      1  0.4323170000000  0.5382450000000  0.4642390000000 1.0
C      1  0.4344360000000  0.4736310000000  0.4497280000000 1.0
C      1  0.4363010000000  0.4362930000000  0.5049200000000 1.0
C      1  0.4324520000000  0.4861570000000  0.5515240000000 1.0
C      1  0.4458100000000  0.5101510000000  0.5622790000000 1.0
C      1  0.4463810000000  0.5640290000000  0.5086780000000 1.0
C      1  0.4471430000000  0.5250630000000  0.4429070000000 1.0
C      1  0.4497840000000  0.4491480000000  0.4555600000000 1.0
C      1  0.4495840000000  0.4395060000000  0.5304520000000 1.0
C      1  0.4016090000000  0.4710550000000  0.5142970000000 1.0
C      1  0.3978060000000  0.5132330000000  0.5244060000000 1.0
C      1  0.3966610000000  0.5275550000000  0.4994060000000 1.0
C      1  0.3975090000000  0.5046050000000  0.4581210000000 1.0
C      1  0.3995370000000  0.4672270000000  0.4861930000000 1.0
C      1  0.6179860000000  0.4792630000000  0.4965680000000 1.0
C      1  0.6172050000000  0.4909350000000  0.5231430000000 1.0
C      1  0.6168440000000  0.5198280000000  0.5202830000000 1.0
C      1  0.6172260000000  0.5260240000000  0.4918360000000 1.0
C      1  0.6179840000000  0.5009450000000  0.4771950000000 1.0
C      1  0.4851740000000  0.4917630000000  0.5243850000000 1.0
C      1  0.4869720000000  0.5188820000000  0.5173660000000 1.0
C      1  0.4871520000000  0.5233350000000  0.4898590000000 1.0
C      1  0.4880070000000  0.5001870000000  0.4742400000000 1.0
C      1  0.4861560000000  0.4759390000000  0.4885400000000 1.0
C      1  0.4672820000000  0.4800890000000  0.5075480000000 1.0
END
