TITL C-237550-13-8 313.988468263202 125000 -918.600263591073 0 0 130 (D2d) n - 1
REM
REM in /rds/project/t2_vol4/rds-t2-cs072/BORA/CARBON/from-Arr/AIRSS/Generating-Clusters/GAP-ML-2020/Higher-Symm/SD-CG/HFTN-CG
REM
REM
REM
REM
REM
REM ./C.cell (b20cbc046b6831c77cfcea5457e17084)
REM AIRSS Version 0.9.1 bugfix July 2018 build 013d7b7c2542+ Fri, 06 Jul 2018 19:26:36 +0100
REM compiler GCC version 9.3.0
REM options -cpp -mtune=generic -march=x86-64 -g -O0
REM seed -599982663 -1346682442 153764694 734423792 -1680304454 -565518474 -94094299 -236764207 1124720830 1461997795 378996769 910040554 708124855 -1145623183 -1329601910 -1986864608 599774246 64771875 2139093287 359001953 -415412416 1509967050 1104475866 -2105656159 -398126491 1192870870 -1040043310 425723981 -1776708486 -1815994452 -673200835 667320574 1020289053
REM
CELL 1.54180   50.00000   50.00000   50.00000   90.00000   90.00000   90.00000
LATT -1
SFAC C  
C      1  0.5122990000000  0.5938670000000  0.5060940000000 1.0
C      1  0.4877000000000  0.4061350000000  0.5061170000000 1.0
C      1  0.4877270000000  0.5938690000000  0.4925560000000 1.0
C      1  0.5122740000000  0.4061300000000  0.4925830000000 1.0
C      1  0.5938690000000  0.5122750000000  0.5061120000000 1.0
C      1  0.4061300000000  0.4877270000000  0.5060990000000 1.0
C      1  0.5938670000000  0.4877000000000  0.4925800000000 1.0
C      1  0.4061340000000  0.5122990000000  0.4925590000000 1.0
C      1  0.5838130000000  0.4905670000000  0.5494790000000 1.0
C      1  0.4161780000000  0.5094460000000  0.5494610000000 1.0
C      1  0.4161850000000  0.4905770000000  0.4491980000000 1.0
C      1  0.5838240000000  0.5094100000000  0.4492110000000 1.0
C      1  0.4905790000000  0.5838260000000  0.5494580000000 1.0
C      1  0.5094120000000  0.4161870000000  0.5494820000000 1.0
C      1  0.4905650000000  0.4161760000000  0.4492150000000 1.0
C      1  0.5094440000000  0.5838110000000  0.4491950000000 1.0
C      1  0.4526530000000  0.4739680000000  0.5507320000000 1.0
C      1  0.5473370000000  0.5260460000000  0.5507340000000 1.0
C      1  0.5473390000000  0.4739410000000  0.4479500000000 1.0
C      1  0.4526700000000  0.5260450000000  0.4479340000000 1.0
C      1  0.4739440000000  0.4526720000000  0.5507370000000 1.0
C      1  0.5260470000000  0.5473420000000  0.5507290000000 1.0
C      1  0.4739660000000  0.5473350000000  0.4479330000000 1.0
C      1  0.5260430000000  0.4526510000000  0.4479500000000 1.0
C      1  0.4985050000000  0.4490150000000  0.4071640000000 1.0
C      1  0.5015110000000  0.5509600000000  0.4071500000000 1.0
C      1  0.5014810000000  0.4490390000000  0.5915250000000 1.0
C      1  0.4985030000000  0.5509850000000  0.5915110000000 1.0
C      1  0.4490350000000  0.4984990000000  0.4071520000000 1.0
C      1  0.5509810000000  0.5014770000000  0.4071610000000 1.0
C      1  0.4490190000000  0.5015150000000  0.5915130000000 1.0
C      1  0.5509640000000  0.4985090000000  0.5915230000000 1.0
C      1  0.5312300000000  0.5524200000000  0.4828530000000 1.0
C      1  0.4687730000000  0.4475760000000  0.4828620000000 1.0
C      1  0.4687840000000  0.5524330000000  0.5158080000000 1.0
C      1  0.5312130000000  0.4475720000000  0.5158270000000 1.0
C      1  0.5524320000000  0.5312120000000  0.4828580000000 1.0
C      1  0.4475710000000  0.4687840000000  0.4828570000000 1.0
C      1  0.5524200000000  0.4687740000000  0.5158260000000 1.0
C      1  0.4475770000000  0.5312310000000  0.5158080000000 1.0
C      1  0.4105520000000  0.5134320000000  0.4645860000000 1.0
C      1  0.5894540000000  0.4865590000000  0.4646060000000 1.0
C      1  0.5894520000000  0.5134170000000  0.5340850000000 1.0
C      1  0.4105420000000  0.4865920000000  0.5340730000000 1.0
C      1  0.5134150000000  0.4105400000000  0.4646090000000 1.0
C      1  0.4865910000000  0.5894500000000  0.4645830000000 1.0
C      1  0.5134340000000  0.5894560000000  0.5340680000000 1.0
C      1  0.4865600000000  0.4105530000000  0.5340900000000 1.0
C      1  0.4728330000000  0.4938920000000  0.5372140000000 1.0
C      1  0.5271610000000  0.5061180000000  0.5372170000000 1.0
C      1  0.5271660000000  0.4938740000000  0.4614630000000 1.0
C      1  0.4728410000000  0.5061160000000  0.4614560000000 1.0
C      1  0.4938760000000  0.4728430000000  0.5372180000000 1.0
C      1  0.5061170000000  0.5271670000000  0.5372120000000 1.0
C      1  0.4938900000000  0.5271590000000  0.4614550000000 1.0
C      1  0.5061170000000  0.4728310000000  0.4614640000000 1.0
C      1  0.4558780000000  0.4761370000000  0.5806330000000 1.0
C      1  0.5441080000000  0.5238840000000  0.5806340000000 1.0
C      1  0.5441160000000  0.4761030000000  0.4180490000000 1.0
C      1  0.4558990000000  0.5238750000000  0.4180340000000 1.0
C      1  0.4761070000000  0.4559020000000  0.5806370000000 1.0
C      1  0.5238780000000  0.5441190000000  0.5806300000000 1.0
C      1  0.4761340000000  0.5441040000000  0.4180330000000 1.0
C      1  0.5238810000000  0.4558740000000  0.4180490000000 1.0
C      1  0.4470710000000  0.5728390000000  0.4820590000000 1.0
C      1  0.5529320000000  0.4271570000000  0.4820880000000 1.0
C      1  0.5529490000000  0.5728290000000  0.5165970000000 1.0
C      1  0.4470480000000  0.4271760000000  0.5166060000000 1.0
C      1  0.5728280000000  0.4470470000000  0.4820870000000 1.0
C      1  0.4271750000000  0.5529480000000  0.4820600000000 1.0
C      1  0.5728400000000  0.5529330000000  0.5166010000000 1.0
C      1  0.4271570000000  0.4470720000000  0.5166020000000 1.0
C      1  0.4678250000000  0.5085810000000  0.5120340000000 1.0
C      1  0.5321720000000  0.4914220000000  0.5120420000000 1.0
C      1  0.5321770000000  0.5085690000000  0.4866390000000 1.0
C      1  0.4678250000000  0.4914280000000  0.4866350000000 1.0
C      1  0.5085690000000  0.4678260000000  0.5120430000000 1.0
C      1  0.4914280000000  0.5321780000000  0.5120330000000 1.0
C      1  0.5085800000000  0.5321720000000  0.4866330000000 1.0
C      1  0.4914220000000  0.4678250000000  0.4866400000000 1.0
C      1  0.4240200000000  0.4659170000000  0.4633430000000 1.0
C      1  0.5759870000000  0.5340740000000  0.4633480000000 1.0
C      1  0.5759710000000  0.4659050000000  0.5353410000000 1.0
C      1  0.4240220000000  0.5341040000000  0.5353180000000 1.0
C      1  0.4659040000000  0.4240210000000  0.4633520000000 1.0
C      1  0.5341030000000  0.5759690000000  0.4633380000000 1.0
C      1  0.4659180000000  0.5759880000000  0.5353170000000 1.0
C      1  0.5340750000000  0.4240210000000  0.5353430000000 1.0
C      1  0.4358270000000  0.5440870000000  0.5608280000000 1.0
C      1  0.5641620000000  0.4559300000000  0.5608520000000 1.0
C      1  0.5641850000000  0.5440530000000  0.4378350000000 1.0
C      1  0.4358260000000  0.4559310000000  0.4378350000000 1.0
C      1  0.5440550000000  0.4358280000000  0.5608530000000 1.0
C      1  0.4559340000000  0.5641880000000  0.5608280000000 1.0
C      1  0.5440840000000  0.5641600000000  0.4378300000000 1.0
C      1  0.4559270000000  0.4358240000000  0.4378390000000 1.0
C      1  0.5174310000000  0.5681350000000  0.4260130000000 1.0
C      1  0.4825820000000  0.4318450000000  0.4260280000000 1.0
C      1  0.4825880000000  0.5681600000000  0.5726440000000 1.0
C      1  0.5173990000000  0.4318600000000  0.5726650000000 1.0
C      1  0.5681560000000  0.5173960000000  0.4260240000000 1.0
C      1  0.4318570000000  0.4825850000000  0.4260160000000 1.0
C      1  0.5681380000000  0.4825860000000  0.5726630000000 1.0
C      1  0.4318480000000  0.5174340000000  0.5726460000000 1.0
C      1  0.4271940000000  0.4644500000000  0.5389310000000 1.0
C      1  0.5727990000000  0.5355610000000  0.5389350000000 1.0
C      1  0.5727960000000  0.4644190000000  0.4597530000000 1.0
C      1  0.4272110000000  0.5355700000000  0.4597300000000 1.0
C      1  0.4644210000000  0.4272130000000  0.5389400000000 1.0
C      1  0.5355720000000  0.5727980000000  0.5389270000000 1.0
C      1  0.4644480000000  0.5727970000000  0.4597290000000 1.0
C      1  0.5355590000000  0.4271920000000  0.4597550000000 1.0
C      1  0.5809560000000  0.4643220000000  0.5040650000000 1.0
C      1  0.4190430000000  0.5356790000000  0.5040410000000 1.0
C      1  0.4190340000000  0.4643430000000  0.4946200000000 1.0
C      1  0.5809670000000  0.5356560000000  0.4946250000000 1.0
C      1  0.4643430000000  0.5809670000000  0.5040390000000 1.0
C      1  0.5356560000000  0.4190340000000  0.5040670000000 1.0
C      1  0.4643220000000  0.4190430000000  0.4946300000000 1.0
C      1  0.5356790000000  0.5809560000000  0.4946150000000 1.0
C      1  0.4672300000000  0.5150170000000  0.6079270000000 1.0
C      1  0.5327500000000  0.4850120000000  0.6079370000000 1.0
C      1  0.5327740000000  0.5149790000000  0.3907440000000 1.0
C      1  0.4672450000000  0.4849920000000  0.3907420000000 1.0
C      1  0.5149830000000  0.4672500000000  0.6079380000000 1.0
C      1  0.4849970000000  0.5327790000000  0.6079270000000 1.0
C      1  0.5150120000000  0.5327460000000  0.3907400000000 1.0
C      1  0.4850080000000  0.4672250000000  0.3907460000000 1.0
C      1  0.5000050000000  0.4999930000000  0.4484580000000 1.0
C      1  0.4999950000000  0.5000070000000  0.5502170000000 1.0
END
