TITL C-235508-3651-12 -164.06368104444 125000 -657.311078639775 0 0 92 (C1) n - 1
REM
REM in /rds/project/t2_vol4/rds-t2-cs072/BORA/CARBON/from-Arr/AIRSS/Generating-Clusters/GAP-ML-2020/Higher-Symm/SD-CG/HFTN-CG
REM
REM
REM
REM
REM
REM ./C.cell (b20cbc046b6831c77cfcea5457e17084)
REM AIRSS Version 0.9.1 bugfix July 2018 build 013d7b7c2542+ Fri, 06 Jul 2018 19:26:36 +0100
REM compiler GCC version 9.3.0
REM options -cpp -mtune=generic -march=x86-64 -g -O0
REM seed -469383980 1679481272 2129926355 1451155760 -1316068549 40129276 -1291135629 1097031904 1185389961 1821009675 770963797 301212187 -1731797992 -398765031 -152721121 -1723806970 -787948900 227458919 365116569 437597972 1612575772 196312009 -1874859832 1793041628 -1933778418 1946566823 -783689578 1768669513 665995222 541642457 1113392603 1766328455 -360067558
REM
CELL 1.54180   50.00000   50.00000   50.00000   90.00000   90.00000   90.00000
LATT -1
SFAC C  
C      1  0.4655740000000  0.5608780000000  0.4591880000000 1.0
C      1  0.4935980000000  0.5681070000000  0.4593630000000 1.0
C      1  0.5465860000000  0.5641330000000  0.4607160000000 1.0
C      1  0.5750400000000  0.5238800000000  0.4626230000000 1.0
C      1  0.5781590000000  0.4948670000000  0.4624790000000 1.0
C      1  0.5534590000000  0.4452810000000  0.4606040000000 1.0
C      1  0.5292500000000  0.4298000000000  0.4598680000000 1.0
C      1  0.4741180000000  0.4302810000000  0.4604210000000 1.0
C      1  0.4484700000000  0.4438110000000  0.4602480000000 1.0
C      1  0.4193420000000  0.4917980000000  0.4609300000000 1.0
C      1  0.4210980000000  0.5208890000000  0.4602780000000 1.0
C      1  0.4208870000000  0.4618570000000  0.4999090000000 1.0
C      1  0.4088330000000  0.5108920000000  0.5019760000000 1.0
C      1  0.4310400000000  0.5561500000000  0.4973800000000 1.0
C      1  0.4742820000000  0.5827200000000  0.4986310000000 1.0
C      1  0.5247000000000  0.5826150000000  0.4982860000000 1.0
C      1  0.5689100000000  0.5577240000000  0.5016000000000 1.0
C      1  0.5884450000000  0.5119240000000  0.5040320000000 1.0
C      1  0.5810540000000  0.4623510000000  0.5005750000000 1.0
C      1  0.5502570000000  0.4231840000000  0.5007200000000 1.0
C      1  0.5021720000000  0.4099880000000  0.4986570000000 1.0
C      1  0.4543020000000  0.4248660000000  0.5011170000000 1.0
C      1  0.5017510000000  0.4136780000000  0.5275380000000 1.0
C      1  0.4557870000000  0.4271490000000  0.5292330000000 1.0
C      1  0.4253280000000  0.4639360000000  0.5279240000000 1.0
C      1  0.4145200000000  0.5111250000000  0.5298100000000 1.0
C      1  0.4343990000000  0.5549180000000  0.5266590000000 1.0
C      1  0.4751220000000  0.5806720000000  0.5270890000000 1.0
C      1  0.5235760000000  0.5799190000000  0.5268400000000 1.0
C      1  0.5655250000000  0.5559040000000  0.5302720000000 1.0
C      1  0.5851240000000  0.5124150000000  0.5321730000000 1.0
C      1  0.5774140000000  0.4647200000000  0.5290920000000 1.0
C      1  0.5473570000000  0.4272920000000  0.5289530000000 1.0
C      1  0.4169820000000  0.5334280000000  0.4858280000000 1.0
C      1  0.4530750000000  0.5695580000000  0.4839180000000 1.0
C      1  0.4992710000000  0.5822080000000  0.4843790000000 1.0
C      1  0.5489510000000  0.5721300000000  0.4863060000000 1.0
C      1  0.5797860000000  0.5343460000000  0.4888520000000 1.0
C      1  0.5864470000000  0.4876760000000  0.4888480000000 1.0
C      1  0.5662710000000  0.4421750000000  0.4863730000000 1.0
C      1  0.5269230000000  0.4156210000000  0.4854080000000 1.0
C      1  0.4773790000000  0.4173060000000  0.4860370000000 1.0
C      1  0.4371150000000  0.4423370000000  0.4865860000000 1.0
C      1  0.4122940000000  0.4859280000000  0.4875010000000 1.0
C      1  0.4575250000000  0.5634700000000  0.5401450000000 1.0
C      1  0.4995050000000  0.5752450000000  0.5401490000000 1.0
C      1  0.5411410000000  0.5639410000000  0.5417610000000 1.0
C      1  0.5701660000000  0.5323740000000  0.5446430000000 1.0
C      1  0.5761230000000  0.4886780000000  0.5439280000000 1.0
C      1  0.5579630000000  0.4496440000000  0.5421600000000 1.0
C      1  0.5226740000000  0.4258020000000  0.5414820000000 1.0
C      1  0.4805720000000  0.4256600000000  0.5414150000000 1.0
C      1  0.4442500000000  0.4492120000000  0.5418730000000 1.0
C      1  0.4259690000000  0.4883480000000  0.5413800000000 1.0
C      1  0.4300370000000  0.5312130000000  0.5412090000000 1.0
C      1  0.5535850000000  0.5216470000000  0.4426480000000 1.0
C      1  0.5563930000000  0.4912180000000  0.4421040000000 1.0
C      1  0.5417370000000  0.4666570000000  0.4427680000000 1.0
C      1  0.5153000000000  0.4512560000000  0.4427950000000 1.0
C      1  0.4862230000000  0.4508320000000  0.4422160000000 1.0
C      1  0.4581940000000  0.4642290000000  0.4410920000000 1.0
C      1  0.4422380000000  0.4880550000000  0.4421200000000 1.0
C      1  0.4431160000000  0.5178220000000  0.4415550000000 1.0
C      1  0.4634910000000  0.5362000000000  0.4438360000000 1.0
C      1  0.5081270000000  0.5475990000000  0.4448300000000 1.0
C      1  0.5365520000000  0.5451480000000  0.4438330000000 1.0
C      1  0.4731000000000  0.4889200000000  0.4834000000000 1.0
C      1  0.4558880000000  0.5077650000000  0.4926880000000 1.0
C      1  0.4679680000000  0.5285810000000  0.5031830000000 1.0
C      1  0.4934820000000  0.5267490000000  0.5100290000000 1.0
C      1  0.5153570000000  0.5301250000000  0.4920300000000 1.0
C      1  0.5360710000000  0.5258170000000  0.5108020000000 1.0
C      1  0.5302700000000  0.4993030000000  0.5187120000000 1.0
C      1  0.5312360000000  0.4862390000000  0.4935230000000 1.0
C      1  0.5218230000000  0.4613610000000  0.4957900000000 1.0
C      1  0.4977510000000  0.4569500000000  0.5044500000000 1.0
C      1  0.4831790000000  0.4789720000000  0.5081340000000 1.0
C      1  0.5513970000000  0.4924060000000  0.5611190000000 1.0
C      1  0.5396830000000  0.4655080000000  0.5595320000000 1.0
C      1  0.5156490000000  0.4491230000000  0.5592990000000 1.0
C      1  0.4866720000000  0.4492540000000  0.5591510000000 1.0
C      1  0.4623790000000  0.4654430000000  0.5590010000000 1.0
C      1  0.4500180000000  0.4921280000000  0.5580520000000 1.0
C      1  0.4529590000000  0.5213350000000  0.5581610000000 1.0
C      1  0.4713380000000  0.5437360000000  0.5587530000000 1.0
C      1  0.4994950000000  0.5519910000000  0.5590140000000 1.0
C      1  0.5276230000000  0.5434260000000  0.5588600000000 1.0
C      1  0.5471920000000  0.5217760000000  0.5611810000000 1.0
C      1  0.5170730000000  0.5050110000000  0.4755940000000 1.0
C      1  0.4898810000000  0.5249030000000  0.4441970000000 1.0
C      1  0.4992900000000  0.5004180000000  0.5252040000000 1.0
C      1  0.4933670000000  0.5014910000000  0.4624460000000 1.0
END
