TITL C-235490-3941-4 0.0915094007643065 125000 -192.479174218755 0 0 29 (C1) n - 1
REM
REM in /rds/project/t2_vol4/rds-t2-cs072/BORA/CARBON/from-Arr/AIRSS/Generating-Clusters/GAP-ML-2020/Higher-Symm/SD-CG/HFTN-CG
REM
REM
REM
REM
REM
REM ./C.cell (b20cbc046b6831c77cfcea5457e17084)
REM AIRSS Version 0.9.1 bugfix July 2018 build 013d7b7c2542+ Fri, 06 Jul 2018 19:26:36 +0100
REM compiler GCC version 9.3.0
REM options -cpp -mtune=generic -march=x86-64 -g -O0
REM seed -1143419145 145422822 1332465213 -615343451 1129854051 -1398040513 458912504 -1624145815 -162271564 1376335111 -436524059 -1831718086 2111353240 1996370490 -1845506347 -499526353 -228506263 -1462797223 472148652 -437035515 -1455140965 561261916 965218152 -1455651838 -1275780441 -1719087026 -1709973458 -1810442578 494782275 -1203047940 -715267671 325902247 1463576313
REM
CELL 1.54180   50.00000   50.00000   50.00000   90.00000   90.00000   90.00000
LATT -1
SFAC C  
C      1  0.5025170000000  0.5329380000000  0.4783930000000 1.0
C      1  0.4925860000000  0.5225640000000  0.5018020000000 1.0
C      1  0.5032630000000  0.5312040000000  0.5264320000000 1.0
C      1  0.5047770000000  0.5080460000000  0.5440650000000 1.0
C      1  0.4939510000000  0.4833490000000  0.5354600000000 1.0
C      1  0.5125830000000  0.4616820000000  0.5332020000000 1.0
C      1  0.5129180000000  0.4515050000000  0.5059180000000 1.0
C      1  0.4960260000000  0.4695260000000  0.4917930000000 1.0
C      1  0.5042600000000  0.4789270000000  0.4666910000000 1.0
C      1  0.4997060000000  0.4970000000000  0.4450820000000 1.0
C      1  0.4999990000000  0.5247470000000  0.4510970000000 1.0
C      1  0.5423930000000  0.5238530000000  0.5006420000000 1.0
C      1  0.5314100000000  0.5334470000000  0.5253090000000 1.0
C      1  0.5330260000000  0.5116770000000  0.5443990000000 1.0
C      1  0.5503670000000  0.4911830000000  0.5361910000000 1.0
C      1  0.5402190000000  0.4653210000000  0.5326260000000 1.0
C      1  0.5408360000000  0.4559410000000  0.5042450000000 1.0
C      1  0.5472970000000  0.4787240000000  0.4885350000000 1.0
C      1  0.5331690000000  0.4817150000000  0.4650360000000 1.0
C      1  0.5325280000000  0.4987820000000  0.4427940000000 1.0
C      1  0.5314120000000  0.5265460000000  0.4496210000000 1.0
C      1  0.5313650000000  0.5329790000000  0.4774860000000 1.0
C      1  0.5615060000000  0.5015210000000  0.5011190000000 1.0
C      1  0.4422510000000  0.5138580000000  0.4963800000000 1.0
C      1  0.5742440000000  0.4972450000000  0.5240780000000 1.0
C      1  0.5184740000000  0.4961290000000  0.5052060000000 1.0
C      1  0.4180660000000  0.5197380000000  0.4906550000000 1.0
C      1  0.4680010000000  0.5074120000000  0.5020460000000 1.0
C      1  0.4790610000000  0.4833560000000  0.5105630000000 1.0
END
