TITL C-237549-9894-2 0.00271853738603139 125000 -390.210175814836 0 0 58 (C1) n - 1
REM
REM in /rds/project/t2_vol4/rds-t2-cs072/BORA/CARBON/from-Arr/AIRSS/Generating-Clusters/GAP-ML-2020/Higher-Symm/SD-CG/HFTN-CG
REM
REM
REM
REM
REM
REM ./C.cell (b20cbc046b6831c77cfcea5457e17084)
REM AIRSS Version 0.9.1 bugfix July 2018 build 013d7b7c2542+ Fri, 06 Jul 2018 19:26:36 +0100
REM compiler GCC version 9.3.0
REM options -cpp -mtune=generic -march=x86-64 -g -O0
REM seed 224245447 -380348538 -311576116 1775244816 1243099014 -810565802 -1283627350 -336731427 -1553363459 -77658401 1810942316 1172212163 1148614034 -1487874872 1701696621 2036902240 -1346977402 1213635034 -393579377 1241192080 1264798613 -825416909 -9784117 -689562668 1156496488 995588470 -689637858 -1664475240 2003857831 520755275 1245305093 1497400042 512994337
REM
CELL 1.54180   50.00000   50.00000   50.00000   90.00000   90.00000   90.00000
LATT -1
SFAC C  
C      1  0.5657430000000  0.4642210000000  0.4944260000000 1.0
C      1  0.4790750000000  0.5166940000000  0.5101800000000 1.0
C      1  0.5706320000000  0.4916060000000  0.4848230000000 1.0
C      1  0.4812080000000  0.5063680000000  0.4645840000000 1.0
C      1  0.4617750000000  0.4990910000000  0.4416220000000 1.0
C      1  0.5073010000000  0.5127860000000  0.5049840000000 1.0
C      1  0.5571030000000  0.5071380000000  0.4661560000000 1.0
C      1  0.4975520000000  0.5655350000000  0.5297470000000 1.0
C      1  0.4389610000000  0.4839980000000  0.4512260000000 1.0
C      1  0.5217650000000  0.5326460000000  0.5544660000000 1.0
C      1  0.4555540000000  0.5046660000000  0.5543090000000 1.0
C      1  0.4779870000000  0.5385640000000  0.4676800000000 1.0
C      1  0.4621010000000  0.5598720000000  0.5088430000000 1.0
C      1  0.4442320000000  0.4781950000000  0.5241400000000 1.0
C      1  0.5228810000000  0.5696180000000  0.4623810000000 1.0
C      1  0.4713530000000  0.5539100000000  0.5364120000000 1.0
C      1  0.4864960000000  0.4681400000000  0.4920810000000 1.0
C      1  0.5082290000000  0.4975970000000  0.4596950000000 1.0
C      1  0.5021850000000  0.5555390000000  0.4801240000000 1.0
C      1  0.4686690000000  0.4517820000000  0.4748990000000 1.0
C      1  0.5342940000000  0.4399540000000  0.5194300000000 1.0
C      1  0.5319150000000  0.4286990000000  0.4756290000000 1.0
C      1  0.5400930000000  0.5117550000000  0.5482050000000 1.0
C      1  0.5266620000000  0.4860960000000  0.5510950000000 1.0
C      1  0.5695610000000  0.5003270000000  0.5139350000000 1.0
C      1  0.4377100000000  0.5151870000000  0.4858090000000 1.0
C      1  0.5294230000000  0.5164390000000  0.4659550000000 1.0
C      1  0.5066770000000  0.4304950000000  0.5146840000000 1.0
C      1  0.4975450000000  0.5200330000000  0.5597780000000 1.0
C      1  0.5202700000000  0.5337000000000  0.4897520000000 1.0
C      1  0.5488800000000  0.4412670000000  0.4949900000000 1.0
C      1  0.5053130000000  0.4205440000000  0.4882990000000 1.0
C      1  0.5440870000000  0.4616070000000  0.5365050000000 1.0
C      1  0.5536110000000  0.5198850000000  0.5245170000000 1.0
C      1  0.4638650000000  0.5444560000000  0.4428980000000 1.0
C      1  0.4442820000000  0.4868710000000  0.4957640000000 1.0
C      1  0.4291600000000  0.5117670000000  0.4589970000000 1.0
C      1  0.5149850000000  0.4467840000000  0.4621080000000 1.0
C      1  0.5116760000000  0.4735940000000  0.4763940000000 1.0
C      1  0.4730020000000  0.4940390000000  0.4926310000000 1.0
C      1  0.4925140000000  0.4568390000000  0.5198460000000 1.0
C      1  0.5375370000000  0.5410970000000  0.5130600000000 1.0
C      1  0.4881090000000  0.4331320000000  0.4683810000000 1.0
C      1  0.5229120000000  0.4880070000000  0.5011410000000 1.0
C      1  0.4598750000000  0.5356490000000  0.4924560000000 1.0
C      1  0.5218570000000  0.5526640000000  0.5340950000000 1.0
C      1  0.4465980000000  0.5244940000000  0.4387300000000 1.0
C      1  0.4324510000000  0.4939660000000  0.5438620000000 1.0
C      1  0.4442120000000  0.4663800000000  0.4723080000000 1.0
C      1  0.4692710000000  0.4654020000000  0.5361560000000 1.0
C      1  0.4740310000000  0.5249100000000  0.5419760000000 1.0
C      1  0.5429400000000  0.5557930000000  0.4543980000000 1.0
C      1  0.5187590000000  0.4721820000000  0.5253720000000 1.0
C      1  0.4886150000000  0.5699340000000  0.5025200000000 1.0
C      1  0.5012810000000  0.4922490000000  0.5632760000000 1.0
C      1  0.5659870000000  0.4731480000000  0.5223070000000 1.0
C      1  0.4751940000000  0.4818890000000  0.5581910000000 1.0
C      1  0.5540440000000  0.5307990000000  0.4517690000000 1.0
END
