TITL C-233921-2060-1 -0.972046245740248 27000 -640.517846551466 0 0 92 (C2v) n - 1
REM
REM in /rds/project/t2_vol4/rds-t2-cs072/BORA/CARBON/from-Arr/AIRSS/Generating-Clusters/GAP-ML-2020/Higher-Symm/SD-CG/HFTN-CG/Box-30A
REM
REM
REM
REM
REM
REM ./C.cell (13fc22856271072ba132eecf8fb47ea5)
REM AIRSS Version 0.9.1 bugfix July 2018 build 013d7b7c2542+ Fri, 06 Jul 2018 19:26:36 +0100
REM compiler GCC version 9.3.0
REM options -cpp -mtune=generic -march=x86-64 -g -O0
REM seed -1212018527 -1247344771 -872962362 -71371654 493589772 503068098 -658067755 -1463838912 518353418 92249350 -146119297 -1892347853 471445912 1914844281 267571983 2120258731 -2060196688 990960123 55421687 -141110438 -1823983000 93257114 -1575608470 735174811 -1440523310 -1985244640 -200252762 -28035057 -536111 2493086 -797138269 -543473140 -397904887
REM
CELL 1.54180   30.00000   30.00000   30.00000   90.00000   90.00000   90.00000
LATT -1
SFAC C  
C      1  0.5449620000000  0.3831450000000  0.5475610000000 1.0
C      1  0.4520630000000  0.6152180000000  0.5486360000000 1.0
C      1  0.4582600000000  0.3808960000000  0.5448410000000 1.0
C      1  0.5387650000000  0.6174670000000  0.5513560000000 1.0
C      1  0.5182020000000  0.5973280000000  0.5903140000000 1.0
C      1  0.4763550000000  0.3996770000000  0.5856570000000 1.0
C      1  0.4711600000000  0.5961080000000  0.5888390000000 1.0
C      1  0.5233970000000  0.4008980000000  0.5871330000000 1.0
C      1  0.4771390000000  0.3987030000000  0.5025590000000 1.0
C      1  0.5225520000000  0.6011280000000  0.5074080000000 1.0
C      1  0.5278710000000  0.4000190000000  0.5041510000000 1.0
C      1  0.4718210000000  0.5998120000000  0.5058170000000 1.0
C      1  0.5272680000000  0.4569820000000  0.5087810000000 1.0
C      1  0.4721960000000  0.5427240000000  0.5085370000000 1.0
C      1  0.4745000000000  0.4556130000000  0.5071260000000 1.0
C      1  0.5249640000000  0.5440920000000  0.5101920000000 1.0
C      1  0.6073600000000  0.5282690000000  0.4756730000000 1.0
C      1  0.3943780000000  0.4726870000000  0.4681390000000 1.0
C      1  0.3930550000000  0.5227100000000  0.4689500000000 1.0
C      1  0.6086830000000  0.4782460000000  0.4748620000000 1.0
C      1  0.4601390000000  0.5247280000000  0.3844200000000 1.0
C      1  0.5469520000000  0.4791730000000  0.3863300000000 1.0
C      1  0.5456880000000  0.5269470000000  0.3871040000000 1.0
C      1  0.4614020000000  0.4769540000000  0.3836460000000 1.0
C      1  0.5194830000000  0.5232090000000  0.6296730000000 1.0
C      1  0.4725670000000  0.4724180000000  0.6273580000000 1.0
C      1  0.4712560000000  0.5219580000000  0.6281600000000 1.0
C      1  0.5207940000000  0.4736690000000  0.6288710000000 1.0
C      1  0.3542920000000  0.5631010000000  0.5207430000000 1.0
C      1  0.6442150000000  0.4360770000000  0.5275490000000 1.0
C      1  0.6406590000000  0.5705290000000  0.5297270000000 1.0
C      1  0.3578480000000  0.4286490000000  0.5185650000000 1.0
C      1  0.4146530000000  0.5443280000000  0.5744070000000 1.0
C      1  0.5806340000000  0.4530790000000  0.5779880000000 1.0
C      1  0.5781080000000  0.5485680000000  0.5795350000000 1.0
C      1  0.4171780000000  0.4488390000000  0.5728600000000 1.0
C      1  0.3745760000000  0.4345740000000  0.4413570000000 1.0
C      1  0.6287380000000  0.5672490000000  0.4514760000000 1.0
C      1  0.6320710000000  0.4412530000000  0.4494350000000 1.0
C      1  0.3712440000000  0.5605700000000  0.4433980000000 1.0
C      1  0.6378360000000  0.4101410000000  0.4849250000000 1.0
C      1  0.3632640000000  0.5904650000000  0.4795010000000 1.0
C      1  0.3682180000000  0.4031470000000  0.4764670000000 1.0
C      1  0.6328820000000  0.5974580000000  0.4879600000000 1.0
C      1  0.6079780000000  0.5825480000000  0.5620770000000 1.0
C      1  0.3884790000000  0.4155030000000  0.5524460000000 1.0
C      1  0.3842150000000  0.5767440000000  0.5550570000000 1.0
C      1  0.6122430000000  0.4213070000000  0.5594650000000 1.0
C      1  0.6396180000000  0.5262360000000  0.5162030000000 1.0
C      1  0.3596750000000  0.4733750000000  0.5066450000000 1.0
C      1  0.3584700000000  0.5189440000000  0.5073830000000 1.0
C      1  0.6408240000000  0.4806670000000  0.5154650000000 1.0
C      1  0.4056180000000  0.4320070000000  0.4064240000000 1.0
C      1  0.5999120000000  0.5710350000000  0.4147990000000 1.0
C      1  0.6034530000000  0.4371380000000  0.4126300000000 1.0
C      1  0.4020770000000  0.5659040000000  0.4085920000000 1.0
C      1  0.4505780000000  0.4371770000000  0.6038950000000 1.0
C      1  0.5428430000000  0.5592030000000  0.6088250000000 1.0
C      1  0.5460050000000  0.4396520000000  0.6068890000000 1.0
C      1  0.4474160000000  0.5567280000000  0.6058310000000 1.0
C      1  0.4456630000000  0.5208520000000  0.5437470000000 1.0
C      1  0.5515520000000  0.4776160000000  0.5462870000000 1.0
C      1  0.5503370000000  0.5235670000000  0.5470310000000 1.0
C      1  0.4468790000000  0.4749010000000  0.5430030000000 1.0
C      1  0.5626480000000  0.4145250000000  0.4271310000000 1.0
C      1  0.4418840000000  0.5879690000000  0.4263470000000 1.0
C      1  0.4465510000000  0.4115130000000  0.4234890000000 1.0
C      1  0.5579810000000  0.5909800000000  0.4299890000000 1.0
C      1  0.4761410000000  0.5511470000000  0.4231310000000 1.0
C      1  0.5286170000000  0.4514700000000  0.4230580000000 1.0
C      1  0.5259460000000  0.5524390000000  0.4246940000000 1.0
C      1  0.4788110000000  0.4501780000000  0.4214960000000 1.0
C      1  0.5559690000000  0.6139450000000  0.4720040000000 1.0
C      1  0.4459870000000  0.3871320000000  0.4647430000000 1.0
C      1  0.4400680000000  0.6109380000000  0.4683680000000 1.0
C      1  0.5618890000000  0.3901380000000  0.4683790000000 1.0
C      1  0.4125160000000  0.5248050000000  0.3844610000000 1.0
C      1  0.5944810000000  0.4790450000000  0.3893110000000 1.0
C      1  0.5931470000000  0.5294900000000  0.3901280000000 1.0
C      1  0.4138500000000  0.4743590000000  0.3836440000000 1.0
C      1  0.5848990000000  0.6200200000000  0.5447650000000 1.0
C      1  0.4126240000000  0.3786170000000  0.5353290000000 1.0
C      1  0.4063620000000  0.6153890000000  0.5391640000000 1.0
C      1  0.5911610000000  0.3832480000000  0.5409300000000 1.0
C      1  0.5483440000000  0.5265960000000  0.4700180000000 1.0
C      1  0.4536280000000  0.4744890000000  0.4662020000000 1.0
C      1  0.4523160000000  0.5241060000000  0.4670050000000 1.0
C      1  0.5496560000000  0.4769800000000  0.4692140000000 1.0
C      1  0.3987470000000  0.6189970000000  0.4904630000000 1.0
C      1  0.6017740000000  0.3812890000000  0.4926980000000 1.0
C      1  0.5953520000000  0.6240970000000  0.4966310000000 1.0
C      1  0.4051690000000  0.3761900000000  0.4865300000000 1.0
END
