TITL C-234683-324-2 -0.193379780922297 125000 -641.300462186852 0 0 88 (C1) n - 1
REM
REM in /rds/project/t2_vol4/rds-t2-cs072/BORA/CARBON/from-Arr/AIRSS/Generating-Clusters/GAP-ML-2020/Higher-Symm/SD-CG/HFTN-CG
REM
REM
REM
REM
REM
REM ./C.cell (b20cbc046b6831c77cfcea5457e17084)
REM AIRSS Version 0.9.1 bugfix July 2018 build 013d7b7c2542+ Fri, 06 Jul 2018 19:26:36 +0100
REM compiler GCC version 9.3.0
REM options -cpp -mtune=generic -march=x86-64 -g -O0
REM seed -174331595 -596975049 -390866201 -523170232 1597686977 -1290293692 921196737 1798693897 1337986191 816071429 -1336136465 -1758061955 715899940 1890449389 -431039597 1656022972 337551494 134918208 1483734778 1192347041 -599243347 831425104 490808188 -741528910 -1883942571 -1316324346 -778418389 1545237167 -87472687 1152108928 221061819 1696788602 845714873
REM
CELL 1.54180   50.00000   50.00000   50.00000   90.00000   90.00000   90.00000
LATT -1
SFAC C  
C      1  0.5739990000000  0.4923500000000  0.5349240000000 1.0
C      1  0.5164240000000  0.4272720000000  0.5265120000000 1.0
C      1  0.4448130000000  0.4671170000000  0.5176210000000 1.0
C      1  0.4442990000000  0.5477790000000  0.5269370000000 1.0
C      1  0.5438300000000  0.5685830000000  0.5251130000000 1.0
C      1  0.5613620000000  0.4913320000000  0.4841640000000 1.0
C      1  0.5118060000000  0.4261770000000  0.4750160000000 1.0
C      1  0.4351260000000  0.4576980000000  0.4690370000000 1.0
C      1  0.4439530000000  0.5444650000000  0.4746730000000 1.0
C      1  0.5388050000000  0.5747690000000  0.4753980000000 1.0
C      1  0.4626310000000  0.4263110000000  0.4927150000000 1.0
C      1  0.4096500000000  0.4979610000000  0.4846210000000 1.0
C      1  0.4872210000000  0.5758540000000  0.4855790000000 1.0
C      1  0.5705960000000  0.5524400000000  0.4913950000000 1.0
C      1  0.5534290000000  0.4399490000000  0.4962740000000 1.0
C      1  0.4707020000000  0.4101170000000  0.5139170000000 1.0
C      1  0.4196690000000  0.5127680000000  0.5047060000000 1.0
C      1  0.4890180000000  0.5750190000000  0.5142300000000 1.0
C      1  0.5738450000000  0.5338740000000  0.5127490000000 1.0
C      1  0.5697390000000  0.4458900000000  0.5167640000000 1.0
C      1  0.5674520000000  0.4641430000000  0.5359950000000 1.0
C      1  0.4879110000000  0.4233550000000  0.5300340000000 1.0
C      1  0.4283560000000  0.4927210000000  0.5240050000000 1.0
C      1  0.4679910000000  0.5648870000000  0.5311730000000 1.0
C      1  0.5600460000000  0.5465030000000  0.5355120000000 1.0
C      1  0.5589280000000  0.4605240000000  0.4767260000000 1.0
C      1  0.4824810000000  0.4261350000000  0.4714860000000 1.0
C      1  0.4225100000000  0.4835160000000  0.4664100000000 1.0
C      1  0.4657010000000  0.5639030000000  0.4693220000000 1.0
C      1  0.5566610000000  0.5527650000000  0.4659170000000 1.0
C      1  0.5147510000000  0.5650510000000  0.5273820000000 1.0
C      1  0.5276330000000  0.5136790000000  0.5192150000000 1.0
C      1  0.5049380000000  0.4948840000000  0.5274800000000 1.0
C      1  0.4637390000000  0.4876910000000  0.5062180000000 1.0
C      1  0.4917340000000  0.5244680000000  0.4978730000000 1.0
C      1  0.5115520000000  0.5739650000000  0.4695200000000 1.0
C      1  0.5371690000000  0.4933590000000  0.5007890000000 1.0
C      1  0.5141720000000  0.4772460000000  0.5054260000000 1.0
C      1  0.4739140000000  0.4859280000000  0.4799400000000 1.0
C      1  0.4927880000000  0.5074020000000  0.4755660000000 1.0
C      1  0.5515930000000  0.5315340000000  0.5579840000000 1.0
C      1  0.5466520000000  0.4594590000000  0.5554470000000 1.0
C      1  0.4773190000000  0.4419090000000  0.5495770000000 1.0
C      1  0.4363790000000  0.5021500000000  0.5488080000000 1.0
C      1  0.4802540000000  0.5561810000000  0.5556380000000 1.0
C      1  0.5474730000000  0.5311250000000  0.4506150000000 1.0
C      1  0.5446900000000  0.4579540000000  0.4530160000000 1.0
C      1  0.4754410000000  0.4390760000000  0.4472170000000 1.0
C      1  0.4354720000000  0.4990830000000  0.4460400000000 1.0
C      1  0.4780050000000  0.5562140000000  0.4446300000000 1.0
C      1  0.5200780000000  0.4910110000000  0.5823240000000 1.0
C      1  0.4980280000000  0.4730980000000  0.5797380000000 1.0
C      1  0.4737680000000  0.4884050000000  0.5787730000000 1.0
C      1  0.4810510000000  0.5160590000000  0.5807070000000 1.0
C      1  0.5100150000000  0.5177860000000  0.5813330000000 1.0
C      1  0.5215030000000  0.4905060000000  0.4234900000000 1.0
C      1  0.4995780000000  0.4722010000000  0.4213690000000 1.0
C      1  0.4753430000000  0.4877170000000  0.4195690000000 1.0
C      1  0.4820260000000  0.5152820000000  0.4203290000000 1.0
C      1  0.5105810000000  0.5170070000000  0.4223430000000 1.0
C      1  0.5001210000000  0.4498440000000  0.5643180000000 1.0
C      1  0.4520720000000  0.4815240000000  0.5620230000000 1.0
C      1  0.4654410000000  0.5353860000000  0.5676280000000 1.0
C      1  0.5250440000000  0.5379280000000  0.5682920000000 1.0
C      1  0.5441690000000  0.4841820000000  0.5695570000000 1.0
C      1  0.4999200000000  0.4477960000000  0.4350660000000 1.0
C      1  0.4517770000000  0.4799340000000  0.4322910000000 1.0
C      1  0.4652840000000  0.5337770000000  0.4335240000000 1.0
C      1  0.5232600000000  0.5377230000000  0.4360600000000 1.0
C      1  0.5434140000000  0.4839450000000  0.4402070000000 1.0
C      1  0.4548930000000  0.4589120000000  0.5449540000000 1.0
C      1  0.4433600000000  0.5296690000000  0.5503870000000 1.0
C      1  0.5084230000000  0.5564360000000  0.5540390000000 1.0
C      1  0.5607960000000  0.5042200000000  0.5576090000000 1.0
C      1  0.5243380000000  0.4421450000000  0.5504440000000 1.0
C      1  0.4517830000000  0.4546640000000  0.4459410000000 1.0
C      1  0.4433470000000  0.5264180000000  0.4505380000000 1.0
C      1  0.5060450000000  0.5589860000000  0.4454510000000 1.0
C      1  0.5550650000000  0.5037830000000  0.4567990000000 1.0
C      1  0.5221780000000  0.4400580000000  0.4515330000000 1.0
C      1  0.4332690000000  0.5385700000000  0.5016430000000 1.0
C      1  0.5532690000000  0.5746640000000  0.4999420000000 1.0
C      1  0.5275670000000  0.4261150000000  0.4991960000000 1.0
C      1  0.4425340000000  0.4474200000000  0.4942810000000 1.0
C      1  0.5759950000000  0.5052800000000  0.5091870000000 1.0
C      1  0.4811570000000  0.5065220000000  0.5194870000000 1.0
C      1  0.5016850000000  0.4816040000000  0.4809810000000 1.0
C      1  0.5158150000000  0.5355010000000  0.5065740000000 1.0
END
