TITL C-234771-3003-6 49.0230654206715 125000 -529.396042534162 0 0 80 (C1) n - 1
REM
REM in /rds/project/t2_vol4/rds-t2-cs072/BORA/CARBON/from-Arr/AIRSS/Generating-Clusters/GAP-ML-2020/Higher-Symm/SD-CG/HFTN-CG
REM
REM
REM
REM
REM
REM ./C.cell (b20cbc046b6831c77cfcea5457e17084)
REM AIRSS Version 0.9.1 bugfix July 2018 build 013d7b7c2542+ Fri, 06 Jul 2018 19:26:36 +0100
REM compiler GCC version 9.3.0
REM options -cpp -mtune=generic -march=x86-64 -g -O0
REM seed -1313746252 1515284720 516979854 1232931732 1456608481 -948826147 248116394 689789319 -2072181563 1265718922 -1069354119 -1537643037 1299532058 1580846857 680447032 454719155 194366706 -681650529 1088461045 -265064308 323108951 844800979 -229039248 -643961115 1764649589 467036352 961668389 1514654701 -463511833 235921208 -406139125 1530405400 -794709969
REM
CELL 1.54180   50.00000   50.00000   50.00000   90.00000   90.00000   90.00000
LATT -1
SFAC C  
C      1  0.5331570000000  0.4608270000000  0.4227150000000 1.0
C      1  0.5398540000000  0.5341390000000  0.5767700000000 1.0
C      1  0.4696190000000  0.5393640000000  0.4339500000000 1.0
C      1  0.4614170000000  0.4700130000000  0.5679400000000 1.0
C      1  0.4371940000000  0.4657910000000  0.4698540000000 1.0
C      1  0.5339650000000  0.4364060000000  0.5309450000000 1.0
C      1  0.5651090000000  0.5332230000000  0.4698960000000 1.0
C      1  0.4661100000000  0.5642100000000  0.5292190000000 1.0
C      1  0.5004910000000  0.5140050000000  0.6014120000000 1.0
C      1  0.4831310000000  0.5024980000000  0.4016910000000 1.0
C      1  0.4989360000000  0.4839660000000  0.5985330000000 1.0
C      1  0.5131440000000  0.5008750000000  0.3986570000000 1.0
C      1  0.4261010000000  0.5061590000000  0.5092500000000 1.0
C      1  0.4941630000000  0.4259250000000  0.4916900000000 1.0
C      1  0.5748650000000  0.4915960000000  0.5071600000000 1.0
C      1  0.5082680000000  0.5741920000000  0.4915250000000 1.0
C      1  0.5111690000000  0.5750490000000  0.5362610000000 1.0
C      1  0.4241380000000  0.5096710000000  0.4642710000000 1.0
C      1  0.4897350000000  0.4244910000000  0.5366640000000 1.0
C      1  0.5749940000000  0.4878480000000  0.4626890000000 1.0
C      1  0.4790400000000  0.5047860000000  0.4939940000000 1.0
C      1  0.4954500000000  0.4793330000000  0.5062540000000 1.0
C      1  0.5206510000000  0.4952350000000  0.4943950000000 1.0
C      1  0.5045860000000  0.5209610000000  0.5052620000000 1.0
C      1  0.5088340000000  0.4456300000000  0.5422490000000 1.0
C      1  0.5551690000000  0.5086130000000  0.4584300000000 1.0
C      1  0.4909140000000  0.5550200000000  0.5410830000000 1.0
C      1  0.4456120000000  0.4911920000000  0.4583690000000 1.0
C      1  0.5258000000000  0.5034130000000  0.4632350000000 1.0
C      1  0.4966150000000  0.5256800000000  0.5365770000000 1.0
C      1  0.4748370000000  0.4977970000000  0.4631000000000 1.0
C      1  0.5026160000000  0.4749690000000  0.5372230000000 1.0
C      1  0.5235670000000  0.5520690000000  0.4553490000000 1.0
C      1  0.4479960000000  0.5227130000000  0.5453580000000 1.0
C      1  0.4791140000000  0.4483740000000  0.4550300000000 1.0
C      1  0.5518630000000  0.4785600000000  0.5440320000000 1.0
C      1  0.4543580000000  0.4525570000000  0.5488340000000 1.0
C      1  0.5387720000000  0.4593710000000  0.4491400000000 1.0
C      1  0.5404540000000  0.5394840000000  0.5502860000000 1.0
C      1  0.4499740000000  0.5462640000000  0.4511520000000 1.0
C      1  0.5172900000000  0.4785640000000  0.4520030000000 1.0
C      1  0.5218390000000  0.5175790000000  0.5473740000000 1.0
C      1  0.4837620000000  0.5227820000000  0.4522490000000 1.0
C      1  0.4777060000000  0.4836250000000  0.5486040000000 1.0
C      1  0.4510900000000  0.5225940000000  0.4988650000000 1.0
C      1  0.4778890000000  0.4512890000000  0.5015670000000 1.0
C      1  0.5488070000000  0.4756430000000  0.4974090000000 1.0
C      1  0.5247180000000  0.5487480000000  0.5020740000000 1.0
C      1  0.5042400000000  0.4110790000000  0.5133840000000 1.0
C      1  0.5900180000000  0.5010480000000  0.4854870000000 1.0
C      1  0.4977270000000  0.5890450000000  0.5127950000000 1.0
C      1  0.4115180000000  0.4950690000000  0.4879630000000 1.0
C      1  0.5250440000000  0.4891350000000  0.5536070000000 1.0
C      1  0.5119980000000  0.5253870000000  0.4464920000000 1.0
C      1  0.4749720000000  0.5119230000000  0.5540350000000 1.0
C      1  0.4888590000000  0.4756490000000  0.4460220000000 1.0
C      1  0.5146950000000  0.4729820000000  0.4064130000000 1.0
C      1  0.5281860000000  0.5155260000000  0.5930840000000 1.0
C      1  0.4826490000000  0.5302150000000  0.4099510000000 1.0
C      1  0.4709350000000  0.4834330000000  0.5912660000000 1.0
C      1  0.5074250000000  0.5723840000000  0.4647880000000 1.0
C      1  0.4279230000000  0.5060840000000  0.5360200000000 1.0
C      1  0.4952270000000  0.4280240000000  0.4649030000000 1.0
C      1  0.5724430000000  0.4939760000000  0.5338710000000 1.0
C      1  0.5340640000000  0.5592750000000  0.5298890000000 1.0
C      1  0.4376120000000  0.5335500000000  0.4714380000000 1.0
C      1  0.4664540000000  0.4386860000000  0.5289810000000 1.0
C      1  0.5587590000000  0.4654140000000  0.4695250000000 1.0
C      1  0.5426240000000  0.5483640000000  0.4770130000000 1.0
C      1  0.4512340000000  0.5413160000000  0.5234050000000 1.0
C      1  0.4602120000000  0.4515930000000  0.4764530000000 1.0
C      1  0.5483070000000  0.4590100000000  0.5230770000000 1.0
C      1  0.5313210000000  0.4105290000000  0.5196280000000 1.0
C      1  0.5910910000000  0.5288260000000  0.4803440000000 1.0
C      1  0.4699230000000  0.5895840000000  0.5173240000000 1.0
C      1  0.4116830000000  0.4679330000000  0.4820410000000 1.0
C      1  0.4863290000000  0.4769770000000  0.4164710000000 1.0
C      1  0.5241380000000  0.4870600000000  0.5832880000000 1.0
C      1  0.5118320000000  0.5253750000000  0.4160040000000 1.0
C      1  0.4756720000000  0.5124550000000  0.5844490000000 1.0
END
