TITL C-239804-2152-4 -0.0741123460130491 125000 -139.558099225407 0 0 22 (Ci) n - 1
REM
REM in /rds/project/t2_vol4/rds-t2-cs072/BORA/CARBON/from-Arr/AIRSS/Generating-Clusters/GAP-ML-2020/Higher-Symm/SD-CG/HFTN-CG
REM
REM
REM
REM
REM
REM ./C.cell (b20cbc046b6831c77cfcea5457e17084)
REM AIRSS Version 0.9.1 bugfix July 2018 build 013d7b7c2542+ Fri, 06 Jul 2018 19:26:36 +0100
REM compiler GCC version 9.3.0
REM options -cpp -mtune=generic -march=x86-64 -g -O0
REM seed -452196957 171310306 -967442336 -1485688805 935615684 1816064816 743682314 1885583412 1574039231 -1234095064 -1365167586 1938827798 -1740299019 -1425919436 -881609214 -1419871158 1640307786 1530849446 253126144 -838806299 -1183883678 2028346710 2096285491 -1134573326 1882714467 1747711981 -514616763 -92572222 -143955087 378569706 -1240351313 132796386 -630474629
REM
CELL 1.54180   50.00000   50.00000   50.00000   90.00000   90.00000   90.00000
LATT -1
SFAC C  
C      1  0.5241590000000  0.5048020000000  0.4728140000000 1.0
C      1  0.4758410000000  0.4951980000000  0.5271860000000 1.0
C      1  0.4654890000000  0.4777260000000  0.4844430000000 1.0
C      1  0.5345110000000  0.5222740000000  0.5155570000000 1.0
C      1  0.4936850000000  0.4733750000000  0.5204540000000 1.0
C      1  0.5063150000000  0.5266250000000  0.4795460000000 1.0
C      1  0.4624570000000  0.5326340000000  0.5496270000000 1.0
C      1  0.5375430000000  0.4673660000000  0.4503730000000 1.0
C      1  0.4662650000000  0.5035550000000  0.5015020000000 1.0
C      1  0.5337350000000  0.4964450000000  0.4984980000000 1.0
C      1  0.5072470000000  0.5132810000000  0.5583950000000 1.0
C      1  0.4927530000000  0.4867190000000  0.4416050000000 1.0
C      1  0.5192830000000  0.5393510000000  0.5005910000000 1.0
C      1  0.4807170000000  0.4606490000000  0.4994090000000 1.0
C      1  0.5542710000000  0.4573780000000  0.4660220000000 1.0
C      1  0.4457290000000  0.5426220000000  0.5339780000000 1.0
C      1  0.4799500000000  0.5165390000000  0.4793020000000 1.0
C      1  0.5200500000000  0.4834610000000  0.5206980000000 1.0
C      1  0.4809740000000  0.5125730000000  0.5491040000000 1.0
C      1  0.5190260000000  0.4874270000000  0.4508960000000 1.0
C      1  0.4762170000000  0.4929590000000  0.4619200000000 1.0
C      1  0.5237830000000  0.5070410000000  0.5380800000000 1.0
END
