TITL C-237571-9926-5 -0.0380589627588313 125000 -966.539624831918 0 0 137 (Td) n - 1
REM
REM in /rds/project/t2_vol4/rds-t2-cs072/BORA/CARBON/from-Arr/AIRSS/Generating-Clusters/GAP-ML-2020/Higher-Symm/SD-CG/HFTN-CG
REM
REM
REM
REM
REM
REM ./C.cell (b20cbc046b6831c77cfcea5457e17084)
REM AIRSS Version 0.9.1 bugfix July 2018 build 013d7b7c2542+ Fri, 06 Jul 2018 19:26:36 +0100
REM compiler GCC version 9.3.0
REM options -cpp -mtune=generic -march=x86-64 -g -O0
REM seed 1864015576 1576082930 -301136369 1852170370 -999547658 819393009 1384945068 -1060694950 -1910242586 1797870776 93462564 185840704 730902753 -1353238475 -1660326278 780388221 -218680089 1558122143 203194465 1464697971 207983960 2004827822 712672457 -523701209 1856674737 1482232996 -834100486 -19338171 -370467303 -1525640831 652070051 -745891619 1439093832
REM
CELL 1.54180   50.00000   50.00000   50.00000   90.00000   90.00000   90.00000
LATT -1
SFAC C  
C      1  0.4664660000000  0.4466590000000  0.5734110000000 1.0
C      1  0.4464950000000  0.5735930000000  0.4665130000000 1.0
C      1  0.5734150000000  0.4666810000000  0.4465280000000 1.0
C      1  0.5331740000000  0.5533280000000  0.5734530000000 1.0
C      1  0.4664720000000  0.5533640000000  0.4262970000000 1.0
C      1  0.5332070000000  0.4467120000000  0.4262730000000 1.0
C      1  0.5531740000000  0.4264590000000  0.4664820000000 1.0
C      1  0.4465050000000  0.4264250000000  0.5331900000000 1.0
C      1  0.5531460000000  0.5735860000000  0.5332490000000 1.0
C      1  0.4262590000000  0.5333840000000  0.4465290000000 1.0
C      1  0.5733920000000  0.5333700000000  0.5532090000000 1.0
C      1  0.4262530000000  0.4666290000000  0.5531690000000 1.0
C      1  0.4464940000000  0.4666260000000  0.5734150000000 1.0
C      1  0.5734150000000  0.4467050000000  0.4664910000000 1.0
C      1  0.4664670000000  0.5736020000000  0.4465460000000 1.0
C      1  0.5531460000000  0.5333610000000  0.5734490000000 1.0
C      1  0.5531740000000  0.4666840000000  0.4262820000000 1.0
C      1  0.4465050000000  0.5333920000000  0.4262880000000 1.0
C      1  0.4262540000000  0.5533470000000  0.4665040000000 1.0
C      1  0.4262590000000  0.4466660000000  0.5331930000000 1.0
C      1  0.5733920000000  0.5533450000000  0.5332450000000 1.0
C      1  0.5332070000000  0.4264630000000  0.4465100000000 1.0
C      1  0.5331740000000  0.5735770000000  0.5532160000000 1.0
C      1  0.4664710000000  0.4264220000000  0.5531620000000 1.0
C      1  0.5637760000000  0.4148870000000  0.5129660000000 1.0
C      1  0.4146860000000  0.5131100000000  0.5637880000000 1.0
C      1  0.5129580000000  0.5639810000000  0.4147470000000 1.0
C      1  0.4358800000000  0.5851370000000  0.5130010000000 1.0
C      1  0.5637580000000  0.5851610000000  0.4867680000000 1.0
C      1  0.4359050000000  0.4148790000000  0.4866990000000 1.0
C      1  0.5849560000000  0.4868820000000  0.5638030000000 1.0
C      1  0.4147070000000  0.4869000000000  0.4359060000000 1.0
C      1  0.5849700000000  0.5131710000000  0.4359370000000 1.0
C      1  0.4867250000000  0.4361030000000  0.4147040000000 1.0
C      1  0.5129510000000  0.4360540000000  0.5849740000000 1.0
C      1  0.4866850000000  0.5639250000000  0.5850090000000 1.0
C      1  0.4146870000000  0.5639380000000  0.5129910000000 1.0
C      1  0.5129570000000  0.4148650000000  0.5637710000000 1.0
C      1  0.5637770000000  0.5131750000000  0.4147380000000 1.0
C      1  0.5849690000000  0.4360860000000  0.5129750000000 1.0
C      1  0.5849570000000  0.5639680000000  0.4867650000000 1.0
C      1  0.4147070000000  0.4360720000000  0.4867030000000 1.0
C      1  0.4866860000000  0.5851280000000  0.5638200000000 1.0
C      1  0.4867240000000  0.4149000000000  0.4358940000000 1.0
C      1  0.5129520000000  0.5851700000000  0.4359490000000 1.0
C      1  0.4359060000000  0.4869090000000  0.4147130000000 1.0
C      1  0.4358800000000  0.5131070000000  0.5849870000000 1.0
C      1  0.5637570000000  0.4868730000000  0.5849960000000 1.0
C      1  0.5001410000000  0.4379510000000  0.5222260000000 1.0
C      1  0.4377690000000  0.5223940000000  0.5001630000000 1.0
C      1  0.5222240000000  0.5003430000000  0.4378040000000 1.0
C      1  0.4995130000000  0.5620670000000  0.5222630000000 1.0
C      1  0.5001310000000  0.5620800000000  0.4774920000000 1.0
C      1  0.4995350000000  0.4379650000000  0.4774540000000 1.0
C      1  0.5618900000000  0.4776380000000  0.5001660000000 1.0
C      1  0.4377750000000  0.4776220000000  0.4995370000000 1.0
C      1  0.5618850000000  0.5224100000000  0.4995680000000 1.0
C      1  0.4774520000000  0.4997260000000  0.4377980000000 1.0
C      1  0.5222080000000  0.4996940000000  0.5619190000000 1.0
C      1  0.4774360000000  0.5003000000000  0.5619130000000 1.0
C      1  0.4377690000000  0.5003070000000  0.5222360000000 1.0
C      1  0.5222240000000  0.4379610000000  0.5001480000000 1.0
C      1  0.5001410000000  0.5224210000000  0.4378080000000 1.0
C      1  0.5618850000000  0.4997110000000  0.5222530000000 1.0
C      1  0.5618910000000  0.5003360000000  0.4774810000000 1.0
C      1  0.4377750000000  0.4997090000000  0.4774640000000 1.0
C      1  0.4774360000000  0.5620710000000  0.5001800000000 1.0
C      1  0.4774520000000  0.4379550000000  0.4995310000000 1.0
C      1  0.5222080000000  0.5620760000000  0.4995750000000 1.0
C      1  0.4995350000000  0.4776490000000  0.4377940000000 1.0
C      1  0.4995130000000  0.5223830000000  0.5619230000000 1.0
C      1  0.5001300000000  0.4776110000000  0.5619090000000 1.0
C      1  0.5615840000000  0.4173450000000  0.5419870000000 1.0
C      1  0.4171500000000  0.5421320000000  0.5616090000000 1.0
C      1  0.5419780000000  0.5617950000000  0.4172170000000 1.0
C      1  0.4380650000000  0.5826610000000  0.5420210000000 1.0
C      1  0.5615740000000  0.5827030000000  0.4577470000000 1.0
C      1  0.4380970000000  0.4173550000000  0.4576800000000 1.0
C      1  0.5824930000000  0.4578620000000  0.5616060000000 1.0
C      1  0.4171770000000  0.4578790000000  0.4380860000000 1.0
C      1  0.5824990000000  0.5421910000000  0.4381330000000 1.0
C      1  0.4577030000000  0.4382870000000  0.4171680000000 1.0
C      1  0.5419720000000  0.4382470000000  0.5825110000000 1.0
C      1  0.4576660000000  0.5617340000000  0.5825380000000 1.0
C      1  0.4171500000000  0.5617410000000  0.5420120000000 1.0
C      1  0.5419770000000  0.4173360000000  0.5615880000000 1.0
C      1  0.5615840000000  0.5421940000000  0.4172140000000 1.0
C      1  0.5824980000000  0.4382650000000  0.5419960000000 1.0
C      1  0.5824940000000  0.5617880000000  0.4577430000000 1.0
C      1  0.4171770000000  0.4382690000000  0.4576830000000 1.0
C      1  0.4576660000000  0.5826580000000  0.5616270000000 1.0
C      1  0.4577030000000  0.4173630000000  0.4380790000000 1.0
C      1  0.5419730000000  0.5827060000000  0.4381400000000 1.0
C      1  0.4380970000000  0.4578880000000  0.4171710000000 1.0
C      1  0.4380650000000  0.5421280000000  0.5825290000000 1.0
C      1  0.5615730000000  0.4578530000000  0.5825200000000 1.0
C      1  0.4183510000000  0.4935760000000  0.5441330000000 1.0
C      1  0.4934190000000  0.5443270000000  0.4183970000000 1.0
C      1  0.5441280000000  0.4185490000000  0.4934240000000 1.0
C      1  0.5812970000000  0.5064290000000  0.5441590000000 1.0
C      1  0.4183610000000  0.5064350000000  0.4555620000000 1.0
C      1  0.5813110000000  0.4936240000000  0.4555800000000 1.0
C      1  0.5062620000000  0.4557540000000  0.4183720000000 1.0
C      1  0.4934090000000  0.4557030000000  0.5813180000000 1.0
C      1  0.5062290000000  0.5442790000000  0.5813470000000 1.0
C      1  0.4555330000000  0.5814860000000  0.4934620000000 1.0
C      1  0.5441060000000  0.5814940000000  0.5063050000000 1.0
C      1  0.4555520000000  0.4185340000000  0.5062440000000 1.0
C      1  0.4934180000000  0.4185270000000  0.5441200000000 1.0
C      1  0.5441290000000  0.4936300000000  0.4183880000000 1.0
C      1  0.4183510000000  0.5442950000000  0.4934450000000 1.0
C      1  0.5062290000000  0.5814770000000  0.5441710000000 1.0
C      1  0.5062620000000  0.4185560000000  0.4555470000000 1.0
C      1  0.4934100000000  0.5815030000000  0.4555950000000 1.0
C      1  0.4555530000000  0.5064510000000  0.4183800000000 1.0
C      1  0.4555330000000  0.4935690000000  0.5813250000000 1.0
C      1  0.5441050000000  0.5064120000000  0.5813400000000 1.0
C      1  0.5813100000000  0.4557410000000  0.4934400000000 1.0
C      1  0.5812970000000  0.5443110000000  0.5062990000000 1.0
C      1  0.4183610000000  0.4557160000000  0.5062500000000 1.0
C      1  0.4658040000000  0.4659810000000  0.4997910000000 1.0
C      1  0.4658040000000  0.4999700000000  0.4658240000000 1.0
C      1  0.4997870000000  0.4659960000000  0.4658180000000 1.0
C      1  0.5338560000000  0.5340510000000  0.4998210000000 1.0
C      1  0.4657950000000  0.5340420000000  0.4999160000000 1.0
C      1  0.5338650000000  0.4659900000000  0.4999050000000 1.0
C      1  0.4657950000000  0.5000530000000  0.5338840000000 1.0
C      1  0.4998820000000  0.5340570000000  0.4658390000000 1.0
C      1  0.4998820000000  0.4659750000000  0.5338780000000 1.0
C      1  0.5338650000000  0.5000830000000  0.4658330000000 1.0
C      1  0.5338560000000  0.4999580000000  0.5338930000000 1.0
C      1  0.4997690000000  0.5340360000000  0.5338990000000 1.0
C      1  0.4832060000000  0.5166430000000  0.4832370000000 1.0
C      1  0.5164580000000  0.4833990000000  0.4832320000000 1.0
C      1  0.4832060000000  0.4833850000000  0.5164750000000 1.0
C      1  0.5164500000000  0.5166370000000  0.5164900000000 1.0
C      1  0.4998300000000  0.5000160000000  0.4998580000000 1.0
END
