TITL C-234711-288-3 168.098459534641 125000 -615.175982807876 0 0 91 (C1) n - 1
REM
REM in /rds/project/t2_vol4/rds-t2-cs072/BORA/CARBON/from-Arr/AIRSS/Generating-Clusters/GAP-ML-2020/Higher-Symm/SD-CG/HFTN-CG
REM
REM
REM
REM
REM
REM ./C.cell (b20cbc046b6831c77cfcea5457e17084)
REM AIRSS Version 0.9.1 bugfix July 2018 build 013d7b7c2542+ Fri, 06 Jul 2018 19:26:36 +0100
REM compiler GCC version 9.3.0
REM options -cpp -mtune=generic -march=x86-64 -g -O0
REM seed 2084946193 -1250774050 -1771733789 1128465146 -818514357 2093836165 -833448649 -1730113069 1198138472 -1849919522 -1571331999 943733800 1592819514 -87070324 -1210740028 1200889395 1057347223 24770650 -1842863840 417897017 -1394630119 1169657855 -1687294541 -722050132 -535663090 729515408 868065693 101506424 947380245 702394249 1969354149 1868327158 -70695707
REM
CELL 1.54180   50.00000   50.00000   50.00000   90.00000   90.00000   90.00000
LATT -1
SFAC C  
C      1  0.5341280000000  0.4201600000000  0.4709650000000 1.0
C      1  0.4658340000000  0.4480280000000  0.4606340000000 1.0
C      1  0.4412970000000  0.4567690000000  0.4707780000000 1.0
C      1  0.4198210000000  0.5069610000000  0.4800560000000 1.0
C      1  0.4225930000000  0.5348320000000  0.4840950000000 1.0
C      1  0.4655410000000  0.5791200000000  0.4869460000000 1.0
C      1  0.5185310000000  0.5768610000000  0.4742820000000 1.0
C      1  0.5441760000000  0.5640830000000  0.4750960000000 1.0
C      1  0.5774700000000  0.5204090000000  0.4754870000000 1.0
C      1  0.5810890000000  0.4921990000000  0.4743120000000 1.0
C      1  0.5565410000000  0.4382970000000  0.4724970000000 1.0
C      1  0.5745200000000  0.5537190000000  0.5125640000000 1.0
C      1  0.5920660000000  0.5094580000000  0.5172080000000 1.0
C      1  0.5869390000000  0.4584460000000  0.5060590000000 1.0
C      1  0.5585300000000  0.4190580000000  0.5109050000000 1.0
C      1  0.4850070000000  0.4098080000000  0.4932660000000 1.0
C      1  0.4391080000000  0.4236800000000  0.5028630000000 1.0
C      1  0.4183140000000  0.4667960000000  0.5110150000000 1.0
C      1  0.4091020000000  0.5168660000000  0.5237640000000 1.0
C      1  0.4348530000000  0.5566870000000  0.5212950000000 1.0
C      1  0.4863810000000  0.5908410000000  0.5026300000000 1.0
C      1  0.5326140000000  0.5838340000000  0.5160720000000 1.0
C      1  0.4585170000000  0.4056080000000  0.4967560000000 1.0
C      1  0.4251010000000  0.4459460000000  0.4905000000000 1.0
C      1  0.4116850000000  0.4939170000000  0.5047430000000 1.0
C      1  0.4123730000000  0.5411890000000  0.5090900000000 1.0
C      1  0.4438930000000  0.5780090000000  0.5035140000000 1.0
C      1  0.5135310000000  0.5940780000000  0.4950800000000 1.0
C      1  0.5539150000000  0.5693120000000  0.5009750000000 1.0
C      1  0.5878830000000  0.5323910000000  0.4987630000000 1.0
C      1  0.5923220000000  0.4852670000000  0.4991820000000 1.0
C      1  0.5759680000000  0.4348230000000  0.4923030000000 1.0
C      1  0.5334750000000  0.4112830000000  0.4979830000000 1.0
C      1  0.4547790000000  0.4798450000000  0.4797420000000 1.0
C      1  0.4479750000000  0.5052660000000  0.4681870000000 1.0
C      1  0.4539330000000  0.5343190000000  0.4819260000000 1.0
C      1  0.4746270000000  0.5541630000000  0.4704280000000 1.0
C      1  0.5049360000000  0.5492760000000  0.4790400000000 1.0
C      1  0.5317630000000  0.5365480000000  0.4655450000000 1.0
C      1  0.5465760000000  0.5137060000000  0.4785440000000 1.0
C      1  0.5503580000000  0.4846500000000  0.4671620000000 1.0
C      1  0.5358170000000  0.4609270000000  0.4798760000000 1.0
C      1  0.5128150000000  0.4429420000000  0.4663050000000 1.0
C      1  0.4860210000000  0.4383510000000  0.4793220000000 1.0
C      1  0.5155590000000  0.5528200000000  0.5558740000000 1.0
C      1  0.5386790000000  0.5367930000000  0.5475770000000 1.0
C      1  0.5527120000000  0.5112310000000  0.5559790000000 1.0
C      1  0.5386780000000  0.4872880000000  0.5515450000000 1.0
C      1  0.5185590000000  0.4732460000000  0.5617110000000 1.0
C      1  0.5003860000000  0.4561150000000  0.5501170000000 1.0
C      1  0.4747020000000  0.4618050000000  0.5573420000000 1.0
C      1  0.4521480000000  0.4761770000000  0.5533720000000 1.0
C      1  0.4494280000000  0.5065030000000  0.5515880000000 1.0
C      1  0.4628770000000  0.5336420000000  0.5609080000000 1.0
C      1  0.4877340000000  0.5418440000000  0.5521770000000 1.0
C      1  0.5685460000000  0.4636920000000  0.5267100000000 1.0
C      1  0.5511170000000  0.4405460000000  0.5258650000000 1.0
C      1  0.5086430000000  0.4147220000000  0.5108360000000 1.0
C      1  0.4554830000000  0.4383460000000  0.5215490000000 1.0
C      1  0.4419520000000  0.4642130000000  0.5277960000000 1.0
C      1  0.4235320000000  0.5205970000000  0.5483540000000 1.0
C      1  0.4375930000000  0.5468740000000  0.5502100000000 1.0
C      1  0.4887460000000  0.5766600000000  0.5268320000000 1.0
C      1  0.5158380000000  0.5760740000000  0.5378590000000 1.0
C      1  0.5675080000000  0.5445780000000  0.5382860000000 1.0
C      1  0.5772500000000  0.5173900000000  0.5418690000000 1.0
C      1  0.4835300000000  0.5468400000000  0.5227230000000 1.0
C      1  0.5044850000000  0.5347720000000  0.5051850000000 1.0
C      1  0.5290500000000  0.5292060000000  0.5187350000000 1.0
C      1  0.5435740000000  0.5088030000000  0.5077010000000 1.0
C      1  0.5432530000000  0.4830190000000  0.5222960000000 1.0
C      1  0.5299710000000  0.4590710000000  0.5098240000000 1.0
C      1  0.5057090000000  0.4454030000000  0.5208940000000 1.0
C      1  0.4798740000000  0.4502580000000  0.5072030000000 1.0
C      1  0.4653330000000  0.4752730000000  0.5065900000000 1.0
C      1  0.4564050000000  0.5119090000000  0.5231360000000 1.0
C      1  0.4576130000000  0.5376670000000  0.5118190000000 1.0
C      1  0.5285470000000  0.4630350000000  0.4293720000000 1.0
C      1  0.5063990000000  0.4521630000000  0.4389880000000 1.0
C      1  0.4774730000000  0.4569750000000  0.4363610000000 1.0
C      1  0.4635540000000  0.4786880000000  0.4286430000000 1.0
C      1  0.4572580000000  0.5027160000000  0.4395000000000 1.0
C      1  0.4729360000000  0.5246770000000  0.4302130000000 1.0
C      1  0.4781220000000  0.5497950000000  0.4415120000000 1.0
C      1  0.4985370000000  0.5354710000000  0.4284850000000 1.0
C      1  0.5257320000000  0.5295730000000  0.4371680000000 1.0
C      1  0.5390330000000  0.5082400000000  0.4275100000000 1.0
C      1  0.5436220000000  0.4838740000000  0.4383540000000 1.0
C      1  0.5004060000000  0.4959670000000  0.4717810000000 1.0
C      1  0.4956660000000  0.5078250000000  0.4954980000000 1.0
C      1  0.4790470000000  0.4977460000000  0.5153590000000 1.0
END
