TITL C-233917-2088-2 0.253571114816217 27000 -689.928666490704 0 0 98 (C2) n - 1
REM
REM in /rds/project/t2_vol4/rds-t2-cs072/BORA/CARBON/from-Arr/AIRSS/Generating-Clusters/GAP-ML-2020/Higher-Symm/SD-CG/HFTN-CG/Box-30A
REM
REM
REM
REM
REM
REM ./C.cell (13fc22856271072ba132eecf8fb47ea5)
REM AIRSS Version 0.9.1 bugfix July 2018 build 013d7b7c2542+ Fri, 06 Jul 2018 19:26:36 +0100
REM compiler GCC version 9.3.0
REM options -cpp -mtune=generic -march=x86-64 -g -O0
REM seed 74491859 -2010374384 -1630253991 -1787745515 -1758946602 -471944379 -62387976 953169039 -496534274 -1688001264 1798041620 -221416624 1869526927 1952245872 786705588 1113544525 1783099777 -609819216 -1018691083 -1220014812 -1353907341 -1567886330 -142028826 -1085487944 236375387 -69682248 -1629246468 -2106311286 1474334602 1766268110 -2078274550 1144602443 -1107238094
REM
CELL 1.54180   30.00000   30.00000   30.00000   90.00000   90.00000   90.00000
LATT -1
SFAC C  
C      1  0.3592410000000  0.5173900000000  0.4616140000000 1.0
C      1  0.3643860000000  0.4805390000000  0.5430600000000 1.0
C      1  0.6407660000000  0.4832950000000  0.4623940000000 1.0
C      1  0.6349890000000  0.5186720000000  0.5444490000000 1.0
C      1  0.6311830000000  0.5501580000000  0.5093120000000 1.0
C      1  0.6353450000000  0.4520700000000  0.4975730000000 1.0
C      1  0.3684650000000  0.4496910000000  0.5073910000000 1.0
C      1  0.3643870000000  0.5479750000000  0.4973910000000 1.0
C      1  0.3861820000000  0.5415800000000  0.5833020000000 1.0
C      1  0.3795010000000  0.4567090000000  0.4202840000000 1.0
C      1  0.6128870000000  0.4569170000000  0.5834140000000 1.0
C      1  0.6208210000000  0.5447130000000  0.4220100000000 1.0
C      1  0.4493960000000  0.4930180000000  0.4117560000000 1.0
C      1  0.4561580000000  0.5158520000000  0.5722550000000 1.0
C      1  0.5509970000000  0.5085690000000  0.4122890000000 1.0
C      1  0.5429960000000  0.4828450000000  0.5722930000000 1.0
C      1  0.4772770000000  0.4457000000000  0.5230250000000 1.0
C      1  0.4568240000000  0.5133030000000  0.4934100000000 1.0
C      1  0.5222530000000  0.5538740000000  0.5241740000000 1.0
C      1  0.5429390000000  0.4868150000000  0.4935030000000 1.0
C      1  0.5367930000000  0.4375480000000  0.3742340000000 1.0
C      1  0.5389600000000  0.5558360000000  0.6305930000000 1.0
C      1  0.4638880000000  0.5647120000000  0.3750990000000 1.0
C      1  0.4597490000000  0.4418200000000  0.6292590000000 1.0
C      1  0.6092420000000  0.4155510000000  0.4770210000000 1.0
C      1  0.6063750000000  0.5883570000000  0.5286320000000 1.0
C      1  0.3906460000000  0.5848570000000  0.4777030000000 1.0
C      1  0.3931260000000  0.4111490000000  0.5262100000000 1.0
C      1  0.3628790000000  0.4701160000000  0.4640440000000 1.0
C      1  0.3650290000000  0.5273170000000  0.5414490000000 1.0
C      1  0.6371050000000  0.5305180000000  0.4656480000000 1.0
C      1  0.6343610000000  0.4719300000000  0.5419900000000 1.0
C      1  0.3851310000000  0.4154960000000  0.4006200000000 1.0
C      1  0.3873300000000  0.5838980000000  0.6023760000000 1.0
C      1  0.6153400000000  0.5862750000000  0.4030490000000 1.0
C      1  0.6115940000000  0.4142620000000  0.6017130000000 1.0
C      1  0.4907910000000  0.4153370000000  0.5616380000000 1.0
C      1  0.4957220000000  0.5594210000000  0.4415380000000 1.0
C      1  0.5084390000000  0.5835370000000  0.5632230000000 1.0
C      1  0.5044470000000  0.4416420000000  0.4405100000000 1.0
C      1  0.5215140000000  0.4875890000000  0.4511850000000 1.0
C      1  0.5254470000000  0.5057280000000  0.5320460000000 1.0
C      1  0.4785760000000  0.5132910000000  0.4512510000000 1.0
C      1  0.4740190000000  0.4936970000000  0.5317390000000 1.0
C      1  0.4795900000000  0.5107750000000  0.6532740000000 1.0
C      1  0.4807610000000  0.4899340000000  0.3434050000000 1.0
C      1  0.5189390000000  0.4864620000000  0.6532070000000 1.0
C      1  0.5201600000000  0.5128870000000  0.3437640000000 1.0
C      1  0.4282790000000  0.5892750000000  0.5806830000000 1.0
C      1  0.4288430000000  0.4135390000000  0.4167260000000 1.0
C      1  0.5708140000000  0.4092790000000  0.5796100000000 1.0
C      1  0.5715050000000  0.5879440000000  0.4188500000000 1.0
C      1  0.5345230000000  0.5562290000000  0.4061080000000 1.0
C      1  0.5286520000000  0.4365660000000  0.5894630000000 1.0
C      1  0.4659200000000  0.4454750000000  0.4048440000000 1.0
C      1  0.4703660000000  0.5618120000000  0.5903670000000 1.0
C      1  0.6180040000000  0.4673330000000  0.4235730000000 1.0
C      1  0.6105280000000  0.5332250000000  0.5812810000000 1.0
C      1  0.3823010000000  0.5340480000000  0.4232640000000 1.0
C      1  0.3885620000000  0.4653230000000  0.5798110000000 1.0
C      1  0.4226920000000  0.6155780000000  0.4951220000000 1.0
C      1  0.4156280000000  0.3790780000000  0.4995710000000 1.0
C      1  0.5770640000000  0.3845240000000  0.4936340000000 1.0
C      1  0.5840770000000  0.6209040000000  0.5024020000000 1.0
C      1  0.4581890000000  0.6214190000000  0.4635030000000 1.0
C      1  0.4538940000000  0.3573820000000  0.4844350000000 1.0
C      1  0.5418120000000  0.3792560000000  0.4616430000000 1.0
C      1  0.5459280000000  0.6428720000000  0.4873650000000 1.0
C      1  0.4532060000000  0.5867000000000  0.4234910000000 1.0
C      1  0.4489070000000  0.4161960000000  0.5912930000000 1.0
C      1  0.5471030000000  0.4146900000000  0.4223030000000 1.0
C      1  0.5500930000000  0.5821400000000  0.5931810000000 1.0
C      1  0.5191840000000  0.5762750000000  0.4809560000000 1.0
C      1  0.5145420000000  0.3793310000000  0.5363590000000 1.0
C      1  0.4806820000000  0.4240820000000  0.4794340000000 1.0
C      1  0.4848820000000  0.6199940000000  0.5384150000000 1.0
C      1  0.5599230000000  0.6012580000000  0.4633990000000 1.0
C      1  0.5598420000000  0.3840260000000  0.5395400000000 1.0
C      1  0.4400810000000  0.3994230000000  0.4611160000000 1.0
C      1  0.4395590000000  0.6152460000000  0.5411610000000 1.0
C      1  0.5495050000000  0.4833170000000  0.3696000000000 1.0
C      1  0.5559560000000  0.5121630000000  0.6369100000000 1.0
C      1  0.4512160000000  0.5190360000000  0.3695430000000 1.0
C      1  0.4427020000000  0.4853740000000  0.6362310000000 1.0
C      1  0.5096800000000  0.5563220000000  0.3639890000000 1.0
C      1  0.5079700000000  0.4451850000000  0.6333040000000 1.0
C      1  0.4910870000000  0.4461400000000  0.3629240000000 1.0
C      1  0.4907090000000  0.5524030000000  0.6342040000000 1.0
C      1  0.4146500000000  0.5015410000000  0.5982830000000 1.0
C      1  0.4017760000000  0.4966980000000  0.4033460000000 1.0
C      1  0.5843010000000  0.4966810000000  0.5988950000000 1.0
C      1  0.5986800000000  0.5050380000000  0.4041820000000 1.0
C      1  0.5943160000000  0.4275320000000  0.4329780000000 1.0
C      1  0.5931290000000  0.5759750000000  0.5736050000000 1.0
C      1  0.4059130000000  0.5736710000000  0.4335680000000 1.0
C      1  0.4060230000000  0.4227160000000  0.5715000000000 1.0
C      1  0.5009270000000  0.3752770000000  0.4902400000000 1.0
C      1  0.4988520000000  0.6248790000000  0.4924820000000 1.0
END
