TITL C-234776-3684-3 0.0262923244617028 125000 -597.544158442479 0 0 86 (C1) n - 1
REM
REM in /rds/project/t2_vol4/rds-t2-cs072/BORA/CARBON/from-Arr/AIRSS/Generating-Clusters/GAP-ML-2020/Higher-Symm/SD-CG/HFTN-CG
REM
REM
REM
REM
REM
REM ./C.cell (b20cbc046b6831c77cfcea5457e17084)
REM AIRSS Version 0.9.1 bugfix July 2018 build 013d7b7c2542+ Fri, 06 Jul 2018 19:26:36 +0100
REM compiler GCC version 9.3.0
REM options -cpp -mtune=generic -march=x86-64 -g -O0
REM seed 1207879740 -685355962 -31782054 -2025795157 1327929544 -492390318 2129995559 1031308297 -270200532 -1126423392 2123256570 -1760331038 975356405 843221192 -1678513931 -228819481 -1042663193 915497162 79854176 -1377418274 1485638088 -1011697141 509975974 2061672066 -614308664 -1900182917 1412689948 575358797 -1841398167 -1969567792 -1845189424 -1358558917 -1770805700
REM
CELL 1.54180   50.00000   50.00000   50.00000   90.00000   90.00000   90.00000
LATT -1
SFAC C  
C      1  0.4851860000000  0.5344740000000  0.5785070000000 1.0
C      1  0.5514260000000  0.5261000000000  0.4761120000000 1.0
C      1  0.5544160000000  0.4555650000000  0.5284220000000 1.0
C      1  0.4478690000000  0.4665300000000  0.5736800000000 1.0
C      1  0.5187780000000  0.5469840000000  0.4416030000000 1.0
C      1  0.5190550000000  0.4257560000000  0.4815080000000 1.0
C      1  0.4288610000000  0.4735820000000  0.5016080000000 1.0
C      1  0.5683370000000  0.5259300000000  0.5011420000000 1.0
C      1  0.5279350000000  0.4447700000000  0.5240740000000 1.0
C      1  0.4443920000000  0.4588990000000  0.5208460000000 1.0
C      1  0.4855800000000  0.5091060000000  0.5267480000000 1.0
C      1  0.5037140000000  0.4721060000000  0.4942640000000 1.0
C      1  0.4578450000000  0.5636130000000  0.4831280000000 1.0
C      1  0.4595280000000  0.5037260000000  0.5436180000000 1.0
C      1  0.5184780000000  0.5763980000000  0.5259660000000 1.0
C      1  0.5590270000000  0.5069720000000  0.4543370000000 1.0
C      1  0.5047310000000  0.5367820000000  0.4955910000000 1.0
C      1  0.5381910000000  0.4803160000000  0.4218590000000 1.0
C      1  0.4861940000000  0.4538710000000  0.5413730000000 1.0
C      1  0.5109250000000  0.4943130000000  0.5354450000000 1.0
C      1  0.5013820000000  0.5818750000000  0.5023000000000 1.0
C      1  0.5258560000000  0.5148770000000  0.4951030000000 1.0
C      1  0.4909750000000  0.5137520000000  0.5977940000000 1.0
C      1  0.4275090000000  0.5204350000000  0.4842780000000 1.0
C      1  0.4581710000000  0.4700430000000  0.5457530000000 1.0
C      1  0.5116720000000  0.4692110000000  0.4246010000000 1.0
C      1  0.4531600000000  0.4407710000000  0.4791430000000 1.0
C      1  0.5671640000000  0.4787870000000  0.4582810000000 1.0
C      1  0.5167970000000  0.5050310000000  0.5878160000000 1.0
C      1  0.4619420000000  0.4756980000000  0.4345100000000 1.0
C      1  0.5442270000000  0.5074630000000  0.4294110000000 1.0
C      1  0.4802530000000  0.4826210000000  0.4829290000000 1.0
C      1  0.5005960000000  0.4292580000000  0.4585660000000 1.0
C      1  0.4359160000000  0.4638050000000  0.4751260000000 1.0
C      1  0.5107660000000  0.4266050000000  0.5090360000000 1.0
C      1  0.5657170000000  0.5434630000000  0.5452430000000 1.0
C      1  0.5123410000000  0.4857460000000  0.5665060000000 1.0
C      1  0.4908320000000  0.5392740000000  0.5240450000000 1.0
C      1  0.4590760000000  0.4382220000000  0.5074090000000 1.0
C      1  0.5648930000000  0.4975600000000  0.5474760000000 1.0
C      1  0.5353490000000  0.5498230000000  0.4642340000000 1.0
C      1  0.5223780000000  0.5621620000000  0.4882810000000 1.0
C      1  0.4361100000000  0.5135720000000  0.5285460000000 1.0
C      1  0.5053600000000  0.4570990000000  0.5650420000000 1.0
C      1  0.5562840000000  0.4644860000000  0.4366420000000 1.0
C      1  0.5178430000000  0.4916570000000  0.4785820000000 1.0
C      1  0.5103860000000  0.5448250000000  0.5678330000000 1.0
C      1  0.4950330000000  0.4998950000000  0.4613540000000 1.0
C      1  0.4687370000000  0.5463620000000  0.4605580000000 1.0
C      1  0.4637680000000  0.5485760000000  0.5369580000000 1.0
C      1  0.5071870000000  0.4676330000000  0.5238390000000 1.0
C      1  0.4752680000000  0.5811140000000  0.4960310000000 1.0
C      1  0.4974810000000  0.5145940000000  0.4154840000000 1.0
C      1  0.5537280000000  0.4711820000000  0.5519410000000 1.0
C      1  0.4652520000000  0.4491810000000  0.4360310000000 1.0
C      1  0.5621820000000  0.5480250000000  0.5184160000000 1.0
C      1  0.4799090000000  0.5369510000000  0.4167890000000 1.0
C      1  0.4742360000000  0.5059660000000  0.4982050000000 1.0
C      1  0.5430170000000  0.4416630000000  0.4454860000000 1.0
C      1  0.5151890000000  0.4428880000000  0.4376840000000 1.0
C      1  0.5321200000000  0.4643360000000  0.5686950000000 1.0
C      1  0.5082720000000  0.5556790000000  0.5417610000000 1.0
C      1  0.5668330000000  0.4991590000000  0.5177140000000 1.0
C      1  0.4372460000000  0.5463670000000  0.4953390000000 1.0
C      1  0.4837370000000  0.4317220000000  0.5203840000000 1.0
C      1  0.4643840000000  0.5303680000000  0.5601390000000 1.0
C      1  0.5461150000000  0.4376530000000  0.4732040000000 1.0
C      1  0.4594720000000  0.4797360000000  0.5927770000000 1.0
C      1  0.5652440000000  0.4607570000000  0.4817550000000 1.0
C      1  0.4519760000000  0.5350110000000  0.4165060000000 1.0
C      1  0.5232150000000  0.5248290000000  0.4241100000000 1.0
C      1  0.5566180000000  0.5231210000000  0.5607470000000 1.0
C      1  0.5685130000000  0.4707140000000  0.5083720000000 1.0
C      1  0.4473000000000  0.5312510000000  0.4435510000000 1.0
C      1  0.4340060000000  0.5104270000000  0.4585520000000 1.0
C      1  0.5317450000000  0.5269390000000  0.5760650000000 1.0
C      1  0.4848220000000  0.5249340000000  0.4766450000000 1.0
C      1  0.4717730000000  0.4343630000000  0.4580370000000 1.0
C      1  0.5407200000000  0.5658920000000  0.5106150000000 1.0
C      1  0.4898530000000  0.5521660000000  0.4395180000000 1.0
C      1  0.4409980000000  0.5405580000000  0.5225670000000 1.0
C      1  0.4899580000000  0.4896080000000  0.4314720000000 1.0
C      1  0.4401860000000  0.4826070000000  0.4535270000000 1.0
C      1  0.4249690000000  0.5011980000000  0.5057120000000 1.0
C      1  0.5332090000000  0.5061700000000  0.5213030000000 1.0
C      1  0.4723080000000  0.4964880000000  0.6078410000000 1.0
END
