TITL C-239794-2168-2 -0.0701029090341956 125000 -914.46434429566 0 0 130 (C2v) n - 1
REM
REM in /rds/project/t2_vol4/rds-t2-cs072/BORA/CARBON/from-Arr/AIRSS/Generating-Clusters/GAP-ML-2020/Higher-Symm/SD-CG/HFTN-CG
REM
REM
REM
REM
REM
REM ./C.cell (b20cbc046b6831c77cfcea5457e17084)
REM AIRSS Version 0.9.1 bugfix July 2018 build 013d7b7c2542+ Fri, 06 Jul 2018 19:26:36 +0100
REM compiler GCC version 9.3.0
REM options -cpp -mtune=generic -march=x86-64 -g -O0
REM seed -2058966254 36190764 2096729512 1636477337 159835087 1328599775 1381931845 -1823382491 2043029672 -1657466924 290978490 461284987 768696644 -1698043228 198117225 -1374947011 -1214391918 -1614983456 -13759556 -1940142587 -1142948372 1708969824 1977716931 -75997754 926746235 1099494178 174624543 914271286 -1914691685 -1054920996 -763616297 63434947 -2072594463
REM
CELL 1.54180   50.00000   50.00000   50.00000   90.00000   90.00000   90.00000
LATT -1
SFAC C  
C      1  0.4831350000000  0.5578120000000  0.5329470000000 1.0
C      1  0.5168660000000  0.5578190000000  0.4670640000000 1.0
C      1  0.5168660000000  0.5578120000000  0.5329470000000 1.0
C      1  0.4831340000000  0.5578190000000  0.4670640000000 1.0
C      1  0.4446170000000  0.5305900000000  0.5657790000000 1.0
C      1  0.5553830000000  0.5306020000000  0.4342270000000 1.0
C      1  0.5553850000000  0.5305900000000  0.5657770000000 1.0
C      1  0.4446150000000  0.5306030000000  0.4342280000000 1.0
C      1  0.5736030000000  0.4698010000000  0.4854590000000 1.0
C      1  0.4263970000000  0.4697980000000  0.5145350000000 1.0
C      1  0.4263970000000  0.4698010000000  0.4854610000000 1.0
C      1  0.5736030000000  0.4697980000000  0.5145330000000 1.0
C      1  0.4858080000000  0.4634200000000  0.5233440000000 1.0
C      1  0.5141920000000  0.4634250000000  0.4766490000000 1.0
C      1  0.5141930000000  0.4634200000000  0.5233440000000 1.0
C      1  0.4858070000000  0.4634250000000  0.4766490000000 1.0
C      1  0.5146820000000  0.4194880000000  0.5320590000000 1.0
C      1  0.4853180000000  0.4194940000000  0.4679260000000 1.0
C      1  0.4853190000000  0.4194880000000  0.5320590000000 1.0
C      1  0.5146810000000  0.4194940000000  0.4679260000000 1.0
C      1  0.5507610000000  0.5035110000000  0.5742450000000 1.0
C      1  0.4492390000000  0.5035250000000  0.4257550000000 1.0
C      1  0.4492410000000  0.5035110000000  0.5742470000000 1.0
C      1  0.5507590000000  0.5035250000000  0.4257540000000 1.0
C      1  0.4458700000000  0.5888380000000  0.4848380000000 1.0
C      1  0.5541300000000  0.5888350000000  0.5151790000000 1.0
C      1  0.5541300000000  0.5888380000000  0.4848360000000 1.0
C      1  0.4458700000000  0.5888350000000  0.5151810000000 1.0
C      1  0.4012880000000  0.5123790000000  0.4502460000000 1.0
C      1  0.5987120000000  0.5123700000000  0.5497560000000 1.0
C      1  0.5987110000000  0.5123790000000  0.4502430000000 1.0
C      1  0.4012890000000  0.5123700000000  0.5497590000000 1.0
C      1  0.4721320000000  0.4878250000000  0.5167520000000 1.0
C      1  0.5278680000000  0.4878280000000  0.4832460000000 1.0
C      1  0.5278690000000  0.4878250000000  0.5167510000000 1.0
C      1  0.4721310000000  0.4878280000000  0.4832470000000 1.0
C      1  0.5143950000000  0.5437580000000  0.5806730000000 1.0
C      1  0.4856060000000  0.5437740000000  0.4193350000000 1.0
C      1  0.4856080000000  0.5437580000000  0.5806740000000 1.0
C      1  0.5143920000000  0.5437740000000  0.4193350000000 1.0
C      1  0.4011600000000  0.4770510000000  0.4711200000000 1.0
C      1  0.5988400000000  0.4770450000000  0.5288760000000 1.0
C      1  0.5988390000000  0.4770510000000  0.4711170000000 1.0
C      1  0.4011610000000  0.4770460000000  0.5288780000000 1.0
C      1  0.4726090000000  0.5336740000000  0.5158740000000 1.0
C      1  0.5273910000000  0.5336770000000  0.4841320000000 1.0
C      1  0.5273910000000  0.5336740000000  0.5158740000000 1.0
C      1  0.4726090000000  0.5336770000000  0.4841330000000 1.0
C      1  0.4467090000000  0.4556320000000  0.4451090000000 1.0
C      1  0.5532910000000  0.4556220000000  0.5548820000000 1.0
C      1  0.5532890000000  0.4556320000000  0.4451080000000 1.0
C      1  0.4467110000000  0.4556220000000  0.5548840000000 1.0
C      1  0.5761500000000  0.5695510000000  0.4853000000000 1.0
C      1  0.4238500000000  0.5695480000000  0.5147140000000 1.0
C      1  0.4238490000000  0.5695510000000  0.4853020000000 1.0
C      1  0.5761510000000  0.5695480000000  0.5147120000000 1.0
C      1  0.4370300000000  0.4834180000000  0.5566550000000 1.0
C      1  0.5629700000000  0.4834290000000  0.4433420000000 1.0
C      1  0.5629710000000  0.4834180000000  0.5566530000000 1.0
C      1  0.4370290000000  0.4834290000000  0.4433440000000 1.0
C      1  0.5145160000000  0.4269760000000  0.4402280000000 1.0
C      1  0.4854840000000  0.4269650000000  0.5597580000000 1.0
C      1  0.4854820000000  0.4269760000000  0.4402290000000 1.0
C      1  0.5145170000000  0.4269650000000  0.5597580000000 1.0
C      1  0.4410600000000  0.4454710000000  0.4727880000000 1.0
C      1  0.5589400000000  0.4454650000000  0.5272020000000 1.0
C      1  0.5589390000000  0.4454710000000  0.4727860000000 1.0
C      1  0.4410610000000  0.4454650000000  0.5272040000000 1.0
C      1  0.3912330000000  0.5038820000000  0.4762360000000 1.0
C      1  0.6087670000000  0.5038780000000  0.5237650000000 1.0
C      1  0.6087660000000  0.5038820000000  0.4762330000000 1.0
C      1  0.3912340000000  0.5038780000000  0.5237680000000 1.0
C      1  0.4727750000000  0.4957800000000  0.4129860000000 1.0
C      1  0.5272250000000  0.4957630000000  0.5870130000000 1.0
C      1  0.5272230000000  0.4957800000000  0.4129850000000 1.0
C      1  0.4727770000000  0.4957630000000  0.5870140000000 1.0
C      1  0.5567590000000  0.4932990000000  0.4751450000000 1.0
C      1  0.4432410000000  0.4932950000000  0.5248540000000 1.0
C      1  0.4432400000000  0.4932990000000  0.4751470000000 1.0
C      1  0.5567600000000  0.4932950000000  0.5248520000000 1.0
C      1  0.4083140000000  0.4855810000000  0.5551920000000 1.0
C      1  0.5916860000000  0.4855920000000  0.4448050000000 1.0
C      1  0.5916870000000  0.4855810000000  0.5551900000000 1.0
C      1  0.4083130000000  0.4855920000000  0.4448070000000 1.0
C      1  0.5812210000000  0.5340630000000  0.4469880000000 1.0
C      1  0.4187790000000  0.5340530000000  0.5530190000000 1.0
C      1  0.4187780000000  0.5340630000000  0.4469900000000 1.0
C      1  0.5812220000000  0.5340530000000  0.5530170000000 1.0
C      1  0.4728330000000  0.5795280000000  0.4848460000000 1.0
C      1  0.5271670000000  0.5795250000000  0.5151690000000 1.0
C      1  0.5271670000000  0.5795280000000  0.4848460000000 1.0
C      1  0.4728330000000  0.5795250000000  0.5151700000000 1.0
C      1  0.5756930000000  0.4219130000000  0.5127610000000 1.0
C      1  0.4243070000000  0.4219160000000  0.4872240000000 1.0
C      1  0.4243070000000  0.4219130000000  0.5127630000000 1.0
C      1  0.5756930000000  0.4219160000000  0.4872220000000 1.0
C      1  0.5143090000000  0.4703570000000  0.5823650000000 1.0
C      1  0.4856910000000  0.4703730000000  0.4176300000000 1.0
C      1  0.4856930000000  0.4703570000000  0.5823650000000 1.0
C      1  0.5143070000000  0.4703730000000  0.4176290000000 1.0
C      1  0.4692560000000  0.4389710000000  0.4846230000000 1.0
C      1  0.5307440000000  0.4389680000000  0.5153660000000 1.0
C      1  0.5307440000000  0.4389710000000  0.4846220000000 1.0
C      1  0.4692560000000  0.4389680000000  0.5153660000000 1.0
C      1  0.5295590000000  0.4489440000000  0.5690750000000 1.0
C      1  0.4704400000000  0.4489580000000  0.4309150000000 1.0
C      1  0.4704420000000  0.4489440000000  0.5690760000000 1.0
C      1  0.5295580000000  0.4489580000000  0.4309140000000 1.0
C      1  0.5141520000000  0.5185580000000  0.5954750000000 1.0
C      1  0.4858480000000  0.5185760000000  0.4045290000000 1.0
C      1  0.4858500000000  0.5185580000000  0.5954750000000 1.0
C      1  0.5141500000000  0.5185760000000  0.4045280000000 1.0
C      1  0.5137540000000  0.5104870000000  0.5272440000000 1.0
C      1  0.4862460000000  0.5104930000000  0.4727580000000 1.0
C      1  0.4862460000000  0.5104870000000  0.5272440000000 1.0
C      1  0.5137540000000  0.5104930000000  0.4727580000000 1.0
C      1  0.5755630000000  0.5453420000000  0.4724740000000 1.0
C      1  0.4244370000000  0.5453370000000  0.5275350000000 1.0
C      1  0.4244360000000  0.5453420000000  0.4724760000000 1.0
C      1  0.5755640000000  0.5453370000000  0.5275330000000 1.0
C      1  0.5321090000000  0.5495600000000  0.5606290000000 1.0
C      1  0.4678910000000  0.5495720000000  0.4393810000000 1.0
C      1  0.4678930000000  0.5495600000000  0.5606300000000 1.0
C      1  0.5321070000000  0.5495720000000  0.4393800000000 1.0
C      1  0.5575750000000  0.5239480000000  0.4852150000000 1.0
C      1  0.4424250000000  0.5239460000000  0.5147900000000 1.0
C      1  0.4424250000000  0.5239480000000  0.4852170000000 1.0
C      1  0.5575750000000  0.5239460000000  0.5147880000000 1.0
C      1  0.6092880000000  0.5161940000000  0.5000000000000 1.0
C      1  0.3907120000000  0.5161940000000  0.5000030000000 1.0
END
