TITL C-234777-3708-3 -62.8061255525504 125000 -867.774332830472 0 0 129 (C2v) n - 1
REM
REM in /rds/project/t2_vol4/rds-t2-cs072/BORA/CARBON/from-Arr/AIRSS/Generating-Clusters/GAP-ML-2020/Higher-Symm/SD-CG/HFTN-CG
REM
REM
REM
REM
REM
REM ./C.cell (b20cbc046b6831c77cfcea5457e17084)
REM AIRSS Version 0.9.1 bugfix July 2018 build 013d7b7c2542+ Fri, 06 Jul 2018 19:26:36 +0100
REM compiler GCC version 9.3.0
REM options -cpp -mtune=generic -march=x86-64 -g -O0
REM seed -492051516 916309048 -680678646 2073205120 1046960800 946543116 2065815111 -1446034225 399588879 -1789718191 874088956 -2108312973 -1419616674 -612969647 529103912 -872865826 -1424667738 -2023634960 -40620527 476036698 1099241326 1735821623 1471822741 1934374638 -2097277729 1233339410 957862669 1499785973 -2096454223 -2019032549 1498409955 947925499 777401660
REM
CELL 1.54180   50.00000   50.00000   50.00000   90.00000   90.00000   90.00000
LATT -1
SFAC C  
C      1  0.5159210000000  0.5278530000000  0.4492200000000 1.0
C      1  0.5146320000000  0.4734610000000  0.4498610000000 1.0
C      1  0.4691100000000  0.4999080000000  0.4495590000000 1.0
C      1  0.5159130000000  0.5278310000000  0.5515720000000 1.0
C      1  0.5146240000000  0.4734390000000  0.5509070000000 1.0
C      1  0.4691020000000  0.4998860000000  0.5512130000000 1.0
C      1  0.4846410000000  0.5268150000000  0.4495660000000 1.0
C      1  0.4838560000000  0.4723030000000  0.4492050000000 1.0
C      1  0.5303110000000  0.5006230000000  0.4498680000000 1.0
C      1  0.4846330000000  0.5267930000000  0.5512200000000 1.0
C      1  0.4838480000000  0.4722800000000  0.5515570000000 1.0
C      1  0.5303030000000  0.5006020000000  0.5509140000000 1.0
C      1  0.5567320000000  0.4323510000000  0.4622610000000 1.0
C      1  0.4136560000000  0.4841210000000  0.4624160000000 1.0
C      1  0.5308300000000  0.5848840000000  0.4617540000000 1.0
C      1  0.5567260000000  0.4323340000000  0.5384960000000 1.0
C      1  0.4136500000000  0.4841050000000  0.5383410000000 1.0
C      1  0.5308240000000  0.5848670000000  0.5390650000000 1.0
C      1  0.4419240000000  0.4308640000000  0.4617130000000 1.0
C      1  0.5869630000000  0.4847230000000  0.4622740000000 1.0
C      1  0.4705740000000  0.5827250000000  0.4624420000000 1.0
C      1  0.4419180000000  0.4308470000000  0.5390250000000 1.0
C      1  0.5869570000000  0.4847070000000  0.5385100000000 1.0
C      1  0.4705680000000  0.5827090000000  0.5383660000000 1.0
C      1  0.4447450000000  0.4509040000000  0.4396080000000 1.0
C      1  0.4863240000000  0.5713120000000  0.4404040000000 1.0
C      1  0.5686450000000  0.4769370000000  0.4404350000000 1.0
C      1  0.4447350000000  0.4508780000000  0.5611390000000 1.0
C      1  0.4863140000000  0.5712860000000  0.5604020000000 1.0
C      1  0.5686360000000  0.4769110000000  0.5603430000000 1.0
C      1  0.5543180000000  0.4521160000000  0.4404290000000 1.0
C      1  0.5148920000000  0.5724270000000  0.4396400000000 1.0
C      1  0.4314220000000  0.4762000000000  0.4403790000000 1.0
C      1  0.5543080000000  0.4520900000000  0.5603360000000 1.0
C      1  0.5148820000000  0.5724010000000  0.5611700000000 1.0
C      1  0.4314120000000  0.4761740000000  0.5603770000000 1.0
C      1  0.4769930000000  0.5457020000000  0.4285660000000 1.0
C      1  0.5507680000000  0.4976650000000  0.4289570000000 1.0
C      1  0.4718070000000  0.4564410000000  0.4279000000000 1.0
C      1  0.4769820000000  0.5456710000000  0.5722270000000 1.0
C      1  0.5507570000000  0.4976340000000  0.5718270000000 1.0
C      1  0.4717950000000  0.4564100000000  0.5728540000000 1.0
C      1  0.5236350000000  0.5462280000000  0.4279230000000 1.0
C      1  0.4489340000000  0.4970920000000  0.4285530000000 1.0
C      1  0.5274300000000  0.4572340000000  0.4289460000000 1.0
C      1  0.5236230000000  0.5461970000000  0.5728770000000 1.0
C      1  0.4489230000000  0.4970610000000  0.5722150000000 1.0
C      1  0.5274190000000  0.4572030000000  0.5718160000000 1.0
C      1  0.4581360000000  0.4989320000000  0.4779830000000 1.0
C      1  0.5211310000000  0.5412990000000  0.4775060000000 1.0
C      1  0.5216160000000  0.4635790000000  0.4779110000000 1.0
C      1  0.4581330000000  0.4989220000000  0.5227870000000 1.0
C      1  0.5211270000000  0.5412890000000  0.5232920000000 1.0
C      1  0.5216120000000  0.4635690000000  0.5228540000000 1.0
C      1  0.5423550000000  0.4995070000000  0.4779200000000 1.0
C      1  0.4799910000000  0.5367940000000  0.4779930000000 1.0
C      1  0.4748120000000  0.4610550000000  0.4774850000000 1.0
C      1  0.5423510000000  0.4994980000000  0.5228630000000 1.0
C      1  0.4799880000000  0.5367850000000  0.5227960000000 1.0
C      1  0.4748080000000  0.4610450000000  0.5232710000000 1.0
C      1  0.5149140000000  0.4352050000000  0.4852030000000 1.0
C      1  0.4373930000000  0.5183920000000  0.4852200000000 1.0
C      1  0.5488750000000  0.5480200000000  0.4853140000000 1.0
C      1  0.5149120000000  0.4351990000000  0.5155490000000 1.0
C      1  0.4373900000000  0.5183850000000  0.5155550000000 1.0
C      1  0.5488720000000  0.5480140000000  0.5154910000000 1.0
C      1  0.4828660000000  0.4336660000000  0.4852840000000 1.0
C      1  0.5635710000000  0.5194980000000  0.4852250000000 1.0
C      1  0.4527640000000  0.5450210000000  0.4852270000000 1.0
C      1  0.4828630000000  0.4336600000000  0.5154620000000 1.0
C      1  0.5635690000000  0.5194920000000  0.5155710000000 1.0
C      1  0.4527620000000  0.5450150000000  0.5155620000000 1.0
C      1  0.5937880000000  0.5391390000000  0.5394250000000 1.0
C      1  0.4868270000000  0.3988940000000  0.5392880000000 1.0
C      1  0.4197220000000  0.5614710000000  0.5395390000000 1.0
C      1  0.5937940000000  0.5391560000000  0.4613840000000 1.0
C      1  0.4868330000000  0.3989110000000  0.4614440000000 1.0
C      1  0.4197280000000  0.5614870000000  0.4612520000000 1.0
C      1  0.4066100000000  0.5387560000000  0.5395330000000 1.0
C      1  0.5130070000000  0.3991950000000  0.5393880000000 1.0
C      1  0.5809540000000  0.5619600000000  0.5393300000000 1.0
C      1  0.4066160000000  0.5387730000000  0.4612460000000 1.0
C      1  0.5130140000000  0.3992120000000  0.4613480000000 1.0
C      1  0.5809600000000  0.5619770000000  0.4614860000000 1.0
C      1  0.4259550000000  0.4396900000000  0.4853130000000 1.0
C      1  0.4860130000000  0.5934360000000  0.4853290000000 1.0
C      1  0.5874260000000  0.4663710000000  0.4853700000000 1.0
C      1  0.4259520000000  0.4396840000000  0.5154260000000 1.0
C      1  0.4860110000000  0.5934300000000  0.5154860000000 1.0
C      1  0.5874240000000  0.4663650000000  0.5154070000000 1.0
C      1  0.5728500000000  0.4411200000000  0.4853630000000 1.0
C      1  0.5151940000000  0.5942890000000  0.4853530000000 1.0
C      1  0.4120980000000  0.4653850000000  0.4852950000000 1.0
C      1  0.5728480000000  0.4411130000000  0.5154000000000 1.0
C      1  0.5151920000000  0.5942820000000  0.5154670000000 1.0
C      1  0.4120960000000  0.4653790000000  0.5154530000000 1.0
C      1  0.4665550000000  0.4157340000000  0.4683710000000 1.0
C      1  0.4452020000000  0.5684630000000  0.4688550000000 1.0
C      1  0.5875330000000  0.5135820000000  0.4688140000000 1.0
C      1  0.4665500000000  0.4157200000000  0.5323650000000 1.0
C      1  0.4451970000000  0.5684490000000  0.5319420000000 1.0
C      1  0.5875280000000  0.5135680000000  0.5319820000000 1.0
C      1  0.5320260000000  0.4174210000000  0.4687890000000 1.0
C      1  0.5562490000000  0.5711200000000  0.4684110000000 1.0
C      1  0.4133150000000  0.5132220000000  0.4688410000000 1.0
C      1  0.5320210000000  0.4174070000000  0.5319570000000 1.0
C      1  0.5562440000000  0.5711060000000  0.5324050000000 1.0
C      1  0.4133100000000  0.5132080000000  0.5319280000000 1.0
C      1  0.4851400000000  0.4742910000000  0.5913790000000 1.0
C      1  0.4851640000000  0.5254480000000  0.5913770000000 1.0
C      1  0.5293500000000  0.5002280000000  0.5912150000000 1.0
C      1  0.4851540000000  0.4743300000000  0.4093840000000 1.0
C      1  0.4851790000000  0.5254870000000  0.4094090000000 1.0
C      1  0.5293640000000  0.5002670000000  0.4095670000000 1.0
C      1  0.5144610000000  0.4744350000000  0.5912080000000 1.0
C      1  0.5148100000000  0.5256910000000  0.5913930000000 1.0
C      1  0.4705230000000  0.5000830000000  0.5913700000000 1.0
C      1  0.5144750000000  0.4744740000000  0.4095600000000 1.0
C      1  0.5148240000000  0.5257300000000  0.4093980000000 1.0
C      1  0.4705370000000  0.5001220000000  0.4094020000000 1.0
C      1  0.4970800000000  0.4761950000000  0.5143950000000 1.0
C      1  0.5191520000000  0.5144350000000  0.4863820000000 1.0
C      1  0.4872840000000  0.5073360000000  0.5148790000000 1.0
C      1  0.5191500000000  0.5144290000000  0.5144050000000 1.0
C      1  0.4970820000000  0.4762010000000  0.4863720000000 1.0
C      1  0.4872860000000  0.5073430000000  0.4858990000000 1.0
C      1  0.4560650000000  0.4751080000000  0.5003800000000 1.0
C      1  0.4995810000000  0.5504950000000  0.5003990000000 1.0
C      1  0.5409710000000  0.4763500000000  0.5003870000000 1.0
END
