TITL C-239799-2071-4 64.330099633177 125000 -1042.71328968781 0 0 147 (C1) n - 1
REM
REM in /rds/project/t2_vol4/rds-t2-cs072/BORA/CARBON/from-Arr/AIRSS/Generating-Clusters/GAP-ML-2020/Higher-Symm/SD-CG/HFTN-CG
REM
REM
REM
REM
REM
REM ./C.cell (b20cbc046b6831c77cfcea5457e17084)
REM AIRSS Version 0.9.1 bugfix July 2018 build 013d7b7c2542+ Fri, 06 Jul 2018 19:26:36 +0100
REM compiler GCC version 9.3.0
REM options -cpp -mtune=generic -march=x86-64 -g -O0
REM seed -2093635989 1962756841 -959225861 1165915291 1670467829 -620441004 1679778628 806989193 439303394 580602186 -1676260619 -1815972452 -558859271 -507430809 -2001326228 -243423353 1856972330 -876370450 1492128016 -776165897 612137236 1971385715 -1776150816 -488198266 1741428349 414310873 657960497 -244939126 -1463519990 1557036644 1355620287 -1299705109 1380044772
REM
CELL 1.54180   50.00000   50.00000   50.00000   90.00000   90.00000   90.00000
LATT -1
SFAC C  
C      1  0.5830290000000  0.5025320000000  0.4618660000000 1.0
C      1  0.4146100000000  0.5019570000000  0.5369820000000 1.0
C      1  0.4138160000000  0.4978010000000  0.4584570000000 1.0
C      1  0.5904880000000  0.4984700000000  0.5381680000000 1.0
C      1  0.4616870000000  0.5022540000000  0.5854650000000 1.0
C      1  0.5416070000000  0.5039840000000  0.4119370000000 1.0
C      1  0.4632460000000  0.4994050000000  0.4141030000000 1.0
C      1  0.5371030000000  0.4981200000000  0.5832620000000 1.0
C      1  0.4991340000000  0.4014720000000  0.5226460000000 1.0
C      1  0.4999960000000  0.4020910000000  0.4813190000000 1.0
C      1  0.5004770000000  0.6000230000000  0.5202420000000 1.0
C      1  0.5014940000000  0.6007710000000  0.4787900000000 1.0
C      1  0.5200840000000  0.4019500000000  0.5021550000000 1.0
C      1  0.4790270000000  0.4021620000000  0.5018410000000 1.0
C      1  0.5215090000000  0.6019420000000  0.5001670000000 1.0
C      1  0.4805420000000  0.5989920000000  0.4989960000000 1.0
C      1  0.5115440000000  0.5078680000000  0.5944750000000 1.0
C      1  0.4891150000000  0.5095370000000  0.4027880000000 1.0
C      1  0.4870280000000  0.4912040000000  0.5950950000000 1.0
C      1  0.5141640000000  0.4937050000000  0.4015560000000 1.0
C      1  0.5988180000000  0.5092100000000  0.5109810000000 1.0
C      1  0.4036060000000  0.5071700000000  0.4865500000000 1.0
C      1  0.5959490000000  0.4924830000000  0.4867230000000 1.0
C      1  0.4032090000000  0.4909670000000  0.5118560000000 1.0
C      1  0.4287620000000  0.5495260000000  0.5522520000000 1.0
C      1  0.5724710000000  0.5526530000000  0.4506650000000 1.0
C      1  0.5735300000000  0.4499460000000  0.5516940000000 1.0
C      1  0.4313420000000  0.4500770000000  0.4475910000000 1.0
C      1  0.5549880000000  0.5538820000000  0.4293640000000 1.0
C      1  0.4465250000000  0.5515160000000  0.5733610000000 1.0
C      1  0.5527140000000  0.4510590000000  0.5700660000000 1.0
C      1  0.4515130000000  0.4497410000000  0.4288060000000 1.0
C      1  0.4451540000000  0.5203600000000  0.4219130000000 1.0
C      1  0.5560080000000  0.5186800000000  0.5744330000000 1.0
C      1  0.5550600000000  0.4827600000000  0.4251460000000 1.0
C      1  0.4423360000000  0.4816880000000  0.5772090000000 1.0
C      1  0.4258770000000  0.5186720000000  0.4430680000000 1.0
C      1  0.5743450000000  0.5179710000000  0.5528260000000 1.0
C      1  0.4225740000000  0.4816340000000  0.5564530000000 1.0
C      1  0.5764600000000  0.4815770000000  0.4434680000000 1.0
C      1  0.5390670000000  0.5411310000000  0.5754360000000 1.0
C      1  0.4624110000000  0.5427830000000  0.4217470000000 1.0
C      1  0.4565760000000  0.4572660000000  0.5806720000000 1.0
C      1  0.5302860000000  0.4704560000000  0.4352740000000 1.0
C      1  0.5650790000000  0.5326530000000  0.5289350000000 1.0
C      1  0.4340390000000  0.5343880000000  0.4659360000000 1.0
C      1  0.5769690000000  0.4589660000000  0.4603320000000 1.0
C      1  0.4189410000000  0.4572290000000  0.5424850000000 1.0
C      1  0.5029170000000  0.4088370000000  0.5492680000000 1.0
C      1  0.4959780000000  0.4087940000000  0.4545600000000 1.0
C      1  0.4944990000000  0.5912780000000  0.5462600000000 1.0
C      1  0.5079660000000  0.5922490000000  0.4529100000000 1.0
C      1  0.5459920000000  0.4111490000000  0.5069350000000 1.0
C      1  0.4531830000000  0.4112930000000  0.4969110000000 1.0
C      1  0.5482520000000  0.5950450000000  0.4957820000000 1.0
C      1  0.4542840000000  0.5904030000000  0.5037840000000 1.0
C      1  0.5077810000000  0.5279620000000  0.5422650000000 1.0
C      1  0.4936530000000  0.5334190000000  0.4615910000000 1.0
C      1  0.5047250000000  0.4618180000000  0.5271420000000 1.0
C      1  0.4978640000000  0.4596100000000  0.4711410000000 1.0
C      1  0.5264970000000  0.5443940000000  0.4970410000000 1.0
C      1  0.4701130000000  0.5303140000000  0.5031300000000 1.0
C      1  0.5431230000000  0.4732850000000  0.4902040000000 1.0
C      1  0.4652830000000  0.4735100000000  0.5027460000000 1.0
C      1  0.5521180000000  0.4801750000000  0.5175150000000 1.0
C      1  0.4481850000000  0.4861250000000  0.4845630000000 1.0
C      1  0.4624130000000  0.5190630000000  0.5292380000000 1.0
C      1  0.5435750000000  0.5221030000000  0.4853290000000 1.0
C      1  0.5275150000000  0.4783250000000  0.5361930000000 1.0
C      1  0.4869050000000  0.4826580000000  0.4544850000000 1.0
C      1  0.5158230000000  0.5221410000000  0.4446670000000 1.0
C      1  0.4804900000000  0.5291670000000  0.5495550000000 1.0
C      1  0.4121570000000  0.5349240000000  0.4852700000000 1.0
C      1  0.5889900000000  0.5367880000000  0.5126690000000 1.0
C      1  0.5927530000000  0.4631200000000  0.4832750000000 1.0
C      1  0.4067900000000  0.4621740000000  0.5172970000000 1.0
C      1  0.4856000000000  0.5388130000000  0.4064800000000 1.0
C      1  0.5154580000000  0.5367910000000  0.5906100000000 1.0
C      1  0.4818820000000  0.4622370000000  0.5923350000000 1.0
C      1  0.5145340000000  0.4659390000000  0.4113230000000 1.0
C      1  0.5486750000000  0.5113880000000  0.5139810000000 1.0
C      1  0.4555600000000  0.5146410000000  0.4813130000000 1.0
C      1  0.4669400000000  0.4881170000000  0.5276980000000 1.0
C      1  0.5276280000000  0.4960810000000  0.4787200000000 1.0
C      1  0.5200130000000  0.5068570000000  0.5249130000000 1.0
C      1  0.4765270000000  0.5097310000000  0.4628940000000 1.0
C      1  0.5154660000000  0.4933860000000  0.4513140000000 1.0
C      1  0.4841290000000  0.4732370000000  0.5426120000000 1.0
C      1  0.5446650000000  0.5556140000000  0.5250920000000 1.0
C      1  0.4480050000000  0.5601170000000  0.4638560000000 1.0
C      1  0.4371730000000  0.4344740000000  0.5420510000000 1.0
C      1  0.5508750000000  0.4488180000000  0.4727030000000 1.0
C      1  0.5281010000000  0.5537040000000  0.5502090000000 1.0
C      1  0.4721710000000  0.5564870000000  0.4476900000000 1.0
C      1  0.5256230000000  0.4477650000000  0.4555230000000 1.0
C      1  0.4572680000000  0.4342640000000  0.5626620000000 1.0
C      1  0.4623260000000  0.4774940000000  0.4346670000000 1.0
C      1  0.5374450000000  0.4753940000000  0.5659960000000 1.0
C      1  0.5425620000000  0.5267540000000  0.4327200000000 1.0
C      1  0.4638890000000  0.5282090000000  0.5757590000000 1.0
C      1  0.4356070000000  0.4776780000000  0.4579190000000 1.0
C      1  0.5770210000000  0.4739440000000  0.5356280000000 1.0
C      1  0.4321660000000  0.5242180000000  0.5386340000000 1.0
C      1  0.5640810000000  0.5253710000000  0.4606640000000 1.0
C      1  0.4473350000000  0.5875380000000  0.5314150000000 1.0
C      1  0.5553190000000  0.5920460000000  0.4683600000000 1.0
C      1  0.5517870000000  0.4123610000000  0.5346420000000 1.0
C      1  0.4485330000000  0.4136140000000  0.4688650000000 1.0
C      1  0.5358900000000  0.5914560000000  0.4475720000000 1.0
C      1  0.4664530000000  0.5888160000000  0.5521340000000 1.0
C      1  0.5313850000000  0.4126170000000  0.5543770000000 1.0
C      1  0.4684760000000  0.4114640000000  0.4484750000000 1.0
C      1  0.4025740000000  0.4282740000000  0.4791050000000 1.0
C      1  0.5977240000000  0.4247370000000  0.5194450000000 1.0
C      1  0.6007640000000  0.5765050000000  0.4830330000000 1.0
C      1  0.4019340000000  0.5725980000000  0.5182200000000 1.0
C      1  0.4834410000000  0.4257510000000  0.4022070000000 1.0
C      1  0.5199870000000  0.4283060000000  0.5988130000000 1.0
C      1  0.4802330000000  0.5753340000000  0.5977330000000 1.0
C      1  0.5232770000000  0.5750230000000  0.4021200000000 1.0
C      1  0.4911060000000  0.5758960000000  0.4366960000000 1.0
C      1  0.5109960000000  0.5739500000000  0.5614950000000 1.0
C      1  0.5134690000000  0.4269640000000  0.4399300000000 1.0
C      1  0.4837620000000  0.4231060000000  0.5659580000000 1.0
C      1  0.4391750000000  0.5743890000000  0.4858750000000 1.0
C      1  0.5614910000000  0.5760140000000  0.5131110000000 1.0
C      1  0.4350820000000  0.4242630000000  0.5152690000000 1.0
C      1  0.5613600000000  0.4279430000000  0.4899020000000 1.0
C      1  0.4240890000000  0.4271190000000  0.4620380000000 1.0
C      1  0.5778820000000  0.4251240000000  0.5390900000000 1.0
C      1  0.5796680000000  0.5759560000000  0.4650490000000 1.0
C      1  0.4230420000000  0.5724440000000  0.5362530000000 1.0
C      1  0.4648840000000  0.4257090000000  0.4229700000000 1.0
C      1  0.5379270000000  0.4278200000000  0.5777370000000 1.0
C      1  0.4609700000000  0.5755620000000  0.5774260000000 1.0
C      1  0.5418610000000  0.5776570000000  0.4225650000000 1.0
C      1  0.5046190000000  0.4383580000000  0.4139990000000 1.0
C      1  0.4962240000000  0.4371520000000  0.5882420000000 1.0
C      1  0.5003710000000  0.5642880000000  0.4117570000000 1.0
C      1  0.5016800000000  0.5631010000000  0.5864580000000 1.0
C      1  0.4121820000000  0.4372440000000  0.5029730000000 1.0
C      1  0.5873530000000  0.4372920000000  0.4977160000000 1.0
C      1  0.4151550000000  0.5610220000000  0.4973080000000 1.0
C      1  0.5870650000000  0.5642670000000  0.5034820000000 1.0
C      1  0.4984620000000  0.5342240000000  0.4923360000000 1.0
C      1  0.4938920000000  0.4673590000000  0.4984070000000 1.0
C      1  0.5061660000000  0.5014590000000  0.4987140000000 1.0
END
