TITL C-233930-1977-4 -42.2510723526816 27000 -299.55754309796 0 0 45 (C1) n - 1
REM
REM in /rds/project/t2_vol4/rds-t2-cs072/BORA/CARBON/from-Arr/AIRSS/Generating-Clusters/GAP-ML-2020/Higher-Symm/SD-CG/HFTN-CG/Box-30A
REM
REM
REM
REM
REM
REM ./C.cell (13fc22856271072ba132eecf8fb47ea5)
REM AIRSS Version 0.9.1 bugfix July 2018 build 013d7b7c2542+ Fri, 06 Jul 2018 19:26:36 +0100
REM compiler GCC version 9.3.0
REM options -cpp -mtune=generic -march=x86-64 -g -O0
REM seed -1444490783 782775592 -1639876529 -806375212 753927052 -1720973254 -1915353543 -1671002843 1847792385 2113715149 372278076 -365237698 -1152421557 -2127722156 402913124 -6123708 -1868369483 -393460703 -1924027070 -1709010406 -582348053 2048527671 550717175 542061699 82618475 1680437731 -1303672601 -210501942 -156153372 -1002186875 293348881 1530543105 -1477321544
REM
CELL 1.54180   30.00000   30.00000   30.00000   90.00000   90.00000   90.00000
LATT -1
SFAC C  
C      1  0.5143630000000  0.4488160000000  0.5017750000000 1.0
C      1  0.5136430000000  0.5270910000000  0.5455420000000 1.0
C      1  0.5147430000000  0.5256090000000  0.4550590000000 1.0
C      1  0.5137850000000  0.5522690000000  0.5006580000000 1.0
C      1  0.5141540000000  0.4744100000000  0.5460430000000 1.0
C      1  0.5149100000000  0.4747940000000  0.4556940000000 1.0
C      1  0.3974780000000  0.5253180000000  0.5408010000000 1.0
C      1  0.3984930000000  0.5227120000000  0.4580330000000 1.0
C      1  0.3979320000000  0.4524360000000  0.5018200000000 1.0
C      1  0.3981270000000  0.4755980000000  0.5413050000000 1.0
C      1  0.3986110000000  0.4769050000000  0.4584420000000 1.0
C      1  0.3975920000000  0.5478330000000  0.5009820000000 1.0
C      1  0.5916470000000  0.4776560000000  0.4611550000000 1.0
C      1  0.5916190000000  0.4774220000000  0.5412170000000 1.0
C      1  0.5908000000000  0.5472510000000  0.5013270000000 1.0
C      1  0.5914970000000  0.5231720000000  0.4609820000000 1.0
C      1  0.5906530000000  0.5245510000000  0.5410220000000 1.0
C      1  0.5907830000000  0.4543850000000  0.5018300000000 1.0
C      1  0.5549850000000  0.5401480000000  0.5716660000000 1.0
C      1  0.5572330000000  0.5410630000000  0.4310460000000 1.0
C      1  0.5556840000000  0.4196280000000  0.5001360000000 1.0
C      1  0.5566730000000  0.4611200000000  0.5715510000000 1.0
C      1  0.5573470000000  0.4591630000000  0.4315410000000 1.0
C      1  0.5550710000000  0.5816270000000  0.4989250000000 1.0
C      1  0.5602970000000  0.5853370000000  0.4160880000000 1.0
C      1  0.5541070000000  0.4016490000000  0.4575000000000 1.0
C      1  0.5533320000000  0.5122540000000  0.6085720000000 1.0
C      1  0.5605490000000  0.4146160000000  0.4171260000000 1.0
C      1  0.5537180000000  0.5991780000000  0.4561240000000 1.0
C      1  0.5597850000000  0.4708000000000  0.6173220000000 1.0
C      1  0.4337760000000  0.5256540000000  0.5734170000000 1.0
C      1  0.4350090000000  0.5512770000000  0.4423920000000 1.0
C      1  0.4345060000000  0.4243200000000  0.4858250000000 1.0
C      1  0.4345310000000  0.4765630000000  0.5739420000000 1.0
C      1  0.4352880000000  0.4483340000000  0.4432120000000 1.0
C      1  0.4340440000000  0.5759190000000  0.4847330000000 1.0
C      1  0.4737490000000  0.4529260000000  0.5687010000000 1.0
C      1  0.4733170000000  0.5832280000000  0.5076310000000 1.0
C      1  0.4744970000000  0.4648000000000  0.4255530000000 1.0
C      1  0.4731030000000  0.5490560000000  0.5681690000000 1.0
C      1  0.4738580000000  0.4174280000000  0.5086730000000 1.0
C      1  0.4742630000000  0.5347330000000  0.4248820000000 1.0
C      1  0.4721070000000  0.5915470000000  0.5522380000000 1.0
C      1  0.4721180000000  0.4099210000000  0.5532430000000 1.0
C      1  0.4720300000000  0.4994850000000  0.3961030000000 1.0
END
