TITL C-233933-2153-7 881.834576687449 27000 -638.804311141727 0 0 94 (C1) n - 1
REM
REM in /rds/project/t2_vol4/rds-t2-cs072/BORA/CARBON/from-Arr/AIRSS/Generating-Clusters/GAP-ML-2020/Higher-Symm/SD-CG/HFTN-CG/Box-30A
REM
REM
REM
REM
REM
REM ./C.cell (13fc22856271072ba132eecf8fb47ea5)
REM AIRSS Version 0.9.1 bugfix July 2018 build 013d7b7c2542+ Fri, 06 Jul 2018 19:26:36 +0100
REM compiler GCC version 9.3.0
REM options -cpp -mtune=generic -march=x86-64 -g -O0
REM seed -1524010150 449684167 733160227 1878192474 2132274777 1566340464 1401916408 -1617529831 397533295 1020992332 -2088186649 226619706 -1100757345 2084793122 -1569606710 -1214266781 -577794995 -883300897 1373283459 1972171733 1506894821 -2065310701 768708678 -440753698 -22431677 -1453057344 -1972025004 225677738 -587458298 -557267457 644583187 2051051824 1076580021
REM
CELL 1.54180   30.00000   30.00000   30.00000   90.00000   90.00000   90.00000
LATT -1
SFAC C  
C      1  0.5469510000000  0.3998670000000  0.5891830000000 1.0
C      1  0.4556210000000  0.4007290000000  0.4112110000000 1.0
C      1  0.5458110000000  0.5982460000000  0.6037200000000 1.0
C      1  0.4489700000000  0.6029200000000  0.4038690000000 1.0
C      1  0.4612200000000  0.3883730000000  0.5925910000000 1.0
C      1  0.5509460000000  0.4013580000000  0.4053110000000 1.0
C      1  0.4472010000000  0.5946570000000  0.6059950000000 1.0
C      1  0.5474950000000  0.6070650000000  0.3837930000000 1.0
C      1  0.3963690000000  0.4497440000000  0.4401420000000 1.0
C      1  0.6084160000000  0.4453430000000  0.5612590000000 1.0
C      1  0.3950770000000  0.5523850000000  0.4425210000000 1.0
C      1  0.6039520000000  0.5528760000000  0.5622740000000 1.0
C      1  0.6118390000000  0.4493670000000  0.4351160000000 1.0
C      1  0.3742110000000  0.4473610000000  0.5609010000000 1.0
C      1  0.6174520000000  0.5640500000000  0.3793440000000 1.0
C      1  0.3903660000000  0.5489120000000  0.5667420000000 1.0
C      1  0.5854950000000  0.5264060000000  0.5220220000000 1.0
C      1  0.4161810000000  0.5251770000000  0.4806570000000 1.0
C      1  0.5873870000000  0.4735020000000  0.5240280000000 1.0
C      1  0.4174910000000  0.4742890000000  0.4799410000000 1.0
C      1  0.4114540000000  0.5216480000000  0.5293120000000 1.0
C      1  0.5957610000000  0.5224310000000  0.4758070000000 1.0
C      1  0.4077800000000  0.4713310000000  0.5276830000000 1.0
C      1  0.5932940000000  0.4741570000000  0.4745810000000 1.0
C      1  0.5408240000000  0.4750510000000  0.5847700000000 1.0
C      1  0.4608570000000  0.4778990000000  0.4175710000000 1.0
C      1  0.5416230000000  0.5244580000000  0.5866990000000 1.0
C      1  0.4613580000000  0.5273640000000  0.4175210000000 1.0
C      1  0.4457420000000  0.4635230000000  0.5964610000000 1.0
C      1  0.5483250000000  0.4806880000000  0.4103930000000 1.0
C      1  0.4516740000000  0.5147660000000  0.5948240000000 1.0
C      1  0.5528200000000  0.5294770000000  0.4024330000000 1.0
C      1  0.5871250000000  0.5920360000000  0.4469580000000 1.0
C      1  0.4272620000000  0.6191110000000  0.5331230000000 1.0
C      1  0.5801330000000  0.3755940000000  0.4724500000000 1.0
C      1  0.4461240000000  0.3961710000000  0.5454640000000 1.0
C      1  0.4668770000000  0.5923720000000  0.4780250000000 1.0
C      1  0.5492150000000  0.6005330000000  0.5256550000000 1.0
C      1  0.4144040000000  0.3782670000000  0.4751660000000 1.0
C      1  0.5353130000000  0.4125350000000  0.5388900000000 1.0
C      1  0.5249510000000  0.6408420000000  0.4072210000000 1.0
C      1  0.4718470000000  0.6336510000000  0.5972430000000 1.0
C      1  0.5267360000000  0.3629680000000  0.4231850000000 1.0
C      1  0.4822250000000  0.3495530000000  0.6049210000000 1.0
C      1  0.4768150000000  0.6386970000000  0.4138560000000 1.0
C      1  0.5189330000000  0.6342990000000  0.5942530000000 1.0
C      1  0.4802440000000  0.3664470000000  0.4316520000000 1.0
C      1  0.5202720000000  0.3584240000000  0.5833020000000 1.0
C      1  0.4133150000000  0.5902560000000  0.5705850000000 1.0
C      1  0.5929340000000  0.5993090000000  0.3998530000000 1.0
C      1  0.3688590000000  0.4046640000000  0.5466760000000 1.0
C      1  0.5878700000000  0.4077790000000  0.4348630000000 1.0
C      1  0.5781720000000  0.5932140000000  0.5661740000000 1.0
C      1  0.4140880000000  0.5955260000000  0.4416410000000 1.0
C      1  0.5897540000000  0.4010950000000  0.5608050000000 1.0
C      1  0.4139910000000  0.4064920000000  0.4366790000000 1.0
C      1  0.4460140000000  0.4470360000000  0.5498380000000 1.0
C      1  0.5456300000000  0.4744340000000  0.4603250000000 1.0
C      1  0.4581120000000  0.5257190000000  0.5450060000000 1.0
C      1  0.5750090000000  0.5474440000000  0.4450040000000 1.0
C      1  0.5375230000000  0.4609520000000  0.5337710000000 1.0
C      1  0.4669100000000  0.4626560000000  0.4698490000000 1.0
C      1  0.5368680000000  0.5448360000000  0.5322830000000 1.0
C      1  0.4676670000000  0.5431530000000  0.4703720000000 1.0
C      1  0.4762160000000  0.3667150000000  0.5165230000000 1.0
C      1  0.5554840000000  0.3391940000000  0.4526370000000 1.0
C      1  0.4668540000000  0.6409140000000  0.5490780000000 1.0
C      1  0.5334610000000  0.6419760000000  0.4553840000000 1.0
C      1  0.5210910000000  0.3626630000000  0.5338330000000 1.0
C      1  0.4589900000000  0.3597480000000  0.4745110000000 1.0
C      1  0.5161660000000  0.6351520000000  0.5453040000000 1.0
C      1  0.4861380000000  0.6344740000000  0.4606350000000 1.0
C      1  0.5999040000000  0.5222570000000  0.3804500000000 1.0
C      1  0.4001870000000  0.5167900000000  0.5999520000000 1.0
C      1  0.5995310000000  0.4773430000000  0.3991130000000 1.0
C      1  0.3950330000000  0.4698250000000  0.6004680000000 1.0
C      1  0.4083100000000  0.5247230000000  0.4079090000000 1.0
C      1  0.5928310000000  0.5220620000000  0.5950050000000 1.0
C      1  0.4103820000000  0.4790410000000  0.4072540000000 1.0
C      1  0.5939290000000  0.4751490000000  0.5942720000000 1.0
C      1  0.5203240000000  0.5575280000000  0.6133040000000 1.0
C      1  0.4773230000000  0.5635840000000  0.3906890000000 1.0
C      1  0.5228120000000  0.4376550000000  0.6103350000000 1.0
C      1  0.4799940000000  0.4397300000000  0.3949840000000 1.0
C      1  0.4727650000000  0.5546960000000  0.6149310000000 1.0
C      1  0.5233520000000  0.5654710000000  0.3836150000000 1.0
C      1  0.4763030000000  0.4298830000000  0.6122350000000 1.0
C      1  0.5266360000000  0.4402480000000  0.3924190000000 1.0
C      1  0.5643530000000  0.6167850000000  0.4801600000000 1.0
C      1  0.4239160000000  0.6104620000000  0.4870950000000 1.0
C      1  0.5701890000000  0.3806160000000  0.5197570000000 1.0
C      1  0.4022460000000  0.3860700000000  0.5209210000000 1.0
C      1  0.5088590000000  0.4782810000000  0.4938460000000 1.0
C      1  0.4952690000000  0.5245960000000  0.5096150000000 1.0
END
