TITL C-234763-2978-5 -0.0444250707057695 125000 -345.453953574349 0 0 52 (Cs) n - 1
REM
REM in /rds/project/t2_vol4/rds-t2-cs072/BORA/CARBON/from-Arr/AIRSS/Generating-Clusters/GAP-ML-2020/Higher-Symm/SD-CG/HFTN-CG
REM
REM
REM
REM
REM
REM ./C.cell (b20cbc046b6831c77cfcea5457e17084)
REM AIRSS Version 0.9.1 bugfix July 2018 build 013d7b7c2542+ Fri, 06 Jul 2018 19:26:36 +0100
REM compiler GCC version 9.3.0
REM options -cpp -mtune=generic -march=x86-64 -g -O0
REM seed -640271696 -1256768083 1022903060 -1488290527 1305131381 -1584009142 529737241 -387096022 -1478823136 -267941484 -353110243 390832199 -1083961197 -821963631 1989644066 -252506682 1109422854 -1530641703 711717029 1178957647 -2092697596 -526713630 -1873802559 -1677455224 -848466617 -1124757014 -373224986 -1936832560 329846917 771170134 1468179975 -2146930974 -1481460187
REM
CELL 1.54180   50.00000   50.00000   50.00000   90.00000   90.00000   90.00000
LATT -1
SFAC C  
C      1  0.5154090000000  0.5127380000000  0.5618690000000 1.0
C      1  0.4845860000000  0.5127370000000  0.5618680000000 1.0
C      1  0.4451750000000  0.5333790000000  0.5077760000000 1.0
C      1  0.5548230000000  0.5333810000000  0.5077800000000 1.0
C      1  0.5145880000000  0.4434610000000  0.4633850000000 1.0
C      1  0.4854170000000  0.4434610000000  0.4633840000000 1.0
C      1  0.5146690000000  0.5393710000000  0.4592820000000 1.0
C      1  0.4853330000000  0.5393700000000  0.4592810000000 1.0
C      1  0.5149210000000  0.4846870000000  0.5553760000000 1.0
C      1  0.4850760000000  0.4846860000000  0.5553750000000 1.0
C      1  0.5138100000000  0.5411090000000  0.5353900000000 1.0
C      1  0.4861860000000  0.5411090000000  0.5353890000000 1.0
C      1  0.4429810000000  0.5329680000000  0.5371450000000 1.0
C      1  0.5570150000000  0.5329700000000  0.5371490000000 1.0
C      1  0.4754590000000  0.5123570000000  0.4641490000000 1.0
C      1  0.5245430000000  0.5123570000000  0.4641510000000 1.0
C      1  0.5306050000000  0.4832150000000  0.5081600000000 1.0
C      1  0.4693950000000  0.4832140000000  0.5081570000000 1.0
C      1  0.5344060000000  0.5328890000000  0.5534550000000 1.0
C      1  0.4655890000000  0.5328880000000  0.5534530000000 1.0
C      1  0.4862330000000  0.4895810000000  0.4486720000000 1.0
C      1  0.5137710000000  0.4895810000000  0.4486730000000 1.0
C      1  0.5321330000000  0.5583300000000  0.4747080000000 1.0
C      1  0.4678670000000  0.5583290000000  0.4747060000000 1.0
C      1  0.5264380000000  0.4692730000000  0.5346750000000 1.0
C      1  0.4735610000000  0.4692720000000  0.5346730000000 1.0
C      1  0.4468940000000  0.4772440000000  0.4667870000000 1.0
C      1  0.5531090000000  0.4772460000000  0.4667910000000 1.0
C      1  0.5566430000000  0.5562940000000  0.4869570000000 1.0
C      1  0.4433560000000  0.5562920000000  0.4869530000000 1.0
C      1  0.5140670000000  0.4632070000000  0.4966200000000 1.0
C      1  0.4859340000000  0.4632060000000  0.4966190000000 1.0
C      1  0.4702350000000  0.4663660000000  0.4536250000000 1.0
C      1  0.5297690000000  0.4663670000000  0.4536280000000 1.0
C      1  0.5144310000000  0.4256850000000  0.5118160000000 1.0
C      1  0.4855710000000  0.4256850000000  0.5118150000000 1.0
C      1  0.5136300000000  0.5571280000000  0.4961680000000 1.0
C      1  0.4863680000000  0.5571270000000  0.4961670000000 1.0
C      1  0.5529130000000  0.5065000000000  0.4655850000000 1.0
C      1  0.4470890000000  0.5064980000000  0.4655810000000 1.0
C      1  0.5144690000000  0.4424350000000  0.5364690000000 1.0
C      1  0.4855300000000  0.4424350000000  0.5364680000000 1.0
C      1  0.5236710000000  0.5331170000000  0.5094560000000 1.0
C      1  0.4763270000000  0.5331160000000  0.5094540000000 1.0
C      1  0.4359050000000  0.5110550000000  0.4914540000000 1.0
C      1  0.5640950000000  0.5110570000000  0.4914590000000 1.0
C      1  0.5146430000000  0.5072520000000  0.4969620000000 1.0
C      1  0.4853570000000  0.5072520000000  0.4969600000000 1.0
C      1  0.5575410000000  0.4832710000000  0.4947780000000 1.0
C      1  0.4424600000000  0.4832690000000  0.4947740000000 1.0
C      1  0.4748710000000  0.4370930000000  0.4892850000000 1.0
C      1  0.5251320000000  0.4370940000000  0.4892870000000 1.0
END
