TITL C-233937-2129-1 -32.7364791530657 27000 -80.9191807049022 0 0 12 (D6h) n - 1
REM
REM in /rds/project/t2_vol4/rds-t2-cs072/BORA/CARBON/from-Arr/AIRSS/Generating-Clusters/GAP-ML-2020/Higher-Symm/SD-CG/HFTN-CG/Box-30A
REM
REM
REM
REM
REM
REM ./C.cell (13fc22856271072ba132eecf8fb47ea5)
REM AIRSS Version 0.9.1 bugfix July 2018 build 013d7b7c2542+ Fri, 06 Jul 2018 19:26:36 +0100
REM compiler GCC version 9.3.0
REM options -cpp -mtune=generic -march=x86-64 -g -O0
REM seed -2110374902 1122972519 1481304731 -1207010711 -747720109 816954845 -1934424857 1260645533 -2115065237 1116060653 1015158643 1776131050 -1752689155 1173567349 -1898165662 684245905 134086045 1515722602 631385366 850226114 -1332360592 49812969 1533152966 487788215 444365608 1487873608 1369446215 -1180610496 1762812069 1775318348 -26598866 -813345962 -1317307930
REM
CELL 1.54180   30.00000   30.00000   30.00000   90.00000   90.00000   90.00000
LATT -1
SFAC C  
C      1  0.4761420000000  0.4763050000000  0.5410210000000 1.0
C      1  0.4761550000000  0.5236930000000  0.4589700000000 1.0
C      1  0.5238450000000  0.4763070000000  0.5410300000000 1.0
C      1  0.5238580000000  0.5236950000000  0.4589790000000 1.0
C      1  0.4761570000000  0.4763170000000  0.4589630000000 1.0
C      1  0.4761400000000  0.5236810000000  0.5410280000000 1.0
C      1  0.5238600000000  0.4763190000000  0.4589720000000 1.0
C      1  0.5238430000000  0.5236830000000  0.5410370000000 1.0
C      1  0.5238490000000  0.5473770000000  0.5000110000000 1.0
C      1  0.5238540000000  0.4526250000000  0.4999970000000 1.0
C      1  0.4761460000000  0.5473750000000  0.5000030000000 1.0
C      1  0.4761510000000  0.4526230000000  0.4999890000000 1.0
END
