TITL C-237569-9978-1 -0.157088135154935 125000 -529.215131565868 0 0 74 (C1) n - 1
REM
REM in /rds/project/t2_vol4/rds-t2-cs072/BORA/CARBON/from-Arr/AIRSS/Generating-Clusters/GAP-ML-2020/Higher-Symm/SD-CG/HFTN-CG
REM
REM
REM
REM
REM
REM ./C.cell (b20cbc046b6831c77cfcea5457e17084)
REM AIRSS Version 0.9.1 bugfix July 2018 build 013d7b7c2542+ Fri, 06 Jul 2018 19:26:36 +0100
REM compiler GCC version 9.3.0
REM options -cpp -mtune=generic -march=x86-64 -g -O0
REM seed 205868718 -1796134658 -1668166491 -1792705978 -1810820871 1683753398 1501735407 885212890 1198406337 1387825873 -2015791990 1756883478 -595359062 -1443504826 -1026334402 -449668345 1617021959 -2144364384 -1051950765 -987616517 1430014069 -399812521 -292990400 630670816 -511321547 321771774 -1447045038 75956472 -1337156818 -294326777 -1435123569 152028914 307073299
REM
CELL 1.54180   50.00000   50.00000   50.00000   90.00000   90.00000   90.00000
LATT -1
SFAC C  
C      1  0.4773490000000  0.5642690000000  0.4834350000000 1.0
C      1  0.5240300000000  0.5641560000000  0.4898090000000 1.0
C      1  0.4951940000000  0.5643700000000  0.5271680000000 1.0
C      1  0.5197910000000  0.4577680000000  0.5460440000000 1.0
C      1  0.4500730000000  0.4577410000000  0.4945280000000 1.0
C      1  0.5292490000000  0.4572840000000  0.4602370000000 1.0
C      1  0.4552270000000  0.5015660000000  0.4318790000000 1.0
C      1  0.5793350000000  0.5013770000000  0.4966290000000 1.0
C      1  0.4616480000000  0.5017270000000  0.5715660000000 1.0
C      1  0.5030960000000  0.5225140000000  0.5709860000000 1.0
C      1  0.4351830000000  0.5223640000000  0.4681950000000 1.0
C      1  0.5583490000000  0.5222690000000  0.4609290000000 1.0
C      1  0.4937150000000  0.5254340000000  0.4235090000000 1.0
C      1  0.5680290000000  0.5258280000000  0.5340820000000 1.0
C      1  0.4348930000000  0.5258060000000  0.5428620000000 1.0
C      1  0.5362690000000  0.5361560000000  0.4479260000000 1.0
C      1  0.5254520000000  0.5366090000000  0.5587750000000 1.0
C      1  0.4349090000000  0.5363860000000  0.4936920000000 1.0
C      1  0.5373910000000  0.4385800000000  0.4788860000000 1.0
C      1  0.4979780000000  0.4410000000000  0.5428710000000 1.0
C      1  0.4621540000000  0.4398190000000  0.4766630000000 1.0
C      1  0.4559420000000  0.5552710000000  0.5009640000000 1.0
C      1  0.5195460000000  0.5551800000000  0.4624330000000 1.0
C      1  0.5210960000000  0.5552740000000  0.5368340000000 1.0
C      1  0.4798560000000  0.4800400000000  0.5709950000000 1.0
C      1  0.4460950000000  0.4799300000000  0.4476560000000 1.0
C      1  0.5698290000000  0.4796820000000  0.4811560000000 1.0
C      1  0.4517640000000  0.5269270000000  0.4449160000000 1.0
C      1  0.5700130000000  0.5268040000000  0.4869960000000 1.0
C      1  0.4746770000000  0.5271070000000  0.5682140000000 1.0
C      1  0.5267000000000  0.4776480000000  0.5661580000000 1.0
C      1  0.4286570000000  0.4774100000000  0.4910660000000 1.0
C      1  0.5422210000000  0.4773630000000  0.4436010000000 1.0
C      1  0.4566880000000  0.4624180000000  0.5336580000000 1.0
C      1  0.4900700000000  0.4618460000000  0.4470490000000 1.0
C      1  0.5484870000000  0.4622650000000  0.5197530000000 1.0
C      1  0.5639430000000  0.4797580000000  0.5366160000000 1.0
C      1  0.4344960000000  0.4797160000000  0.5381910000000 1.0
C      1  0.4979140000000  0.4793670000000  0.4260410000000 1.0
C      1  0.5053720000000  0.4984720000000  0.4746210000000 1.0
C      1  0.5178970000000  0.5010910000000  0.5185520000000 1.0
C      1  0.4734040000000  0.5006060000000  0.5069430000000 1.0
C      1  0.5047620000000  0.4685000000000  0.4724550000000 1.0
C      1  0.5203010000000  0.4716560000000  0.5197390000000 1.0
C      1  0.4717120000000  0.4712080000000  0.5093220000000 1.0
C      1  0.4802580000000  0.5002570000000  0.4195940000000 1.0
C      1  0.5782190000000  0.5006060000000  0.5245210000000 1.0
C      1  0.4381070000000  0.5006860000000  0.5565290000000 1.0
C      1  0.5392070000000  0.5572110000000  0.5134280000000 1.0
C      1  0.4671460000000  0.5573080000000  0.5283850000000 1.0
C      1  0.4902580000000  0.5572430000000  0.4584460000000 1.0
C      1  0.4850990000000  0.4240110000000  0.4873030000000 1.0
C      1  0.5141080000000  0.4231350000000  0.4903350000000 1.0
C      1  0.4981220000000  0.4324480000000  0.5122150000000 1.0
C      1  0.5237700000000  0.4913780000000  0.4281970000000 1.0
C      1  0.5491730000000  0.4920120000000  0.5579540000000 1.0
C      1  0.4238950000000  0.4916780000000  0.5145060000000 1.0
C      1  0.4629480000000  0.4565870000000  0.4527190000000 1.0
C      1  0.5560210000000  0.4562300000000  0.4930340000000 1.0
C      1  0.4760090000000  0.4565550000000  0.5534370000000 1.0
C      1  0.5495900000000  0.5208230000000  0.5556110000000 1.0
C      1  0.4256120000000  0.5205680000000  0.5161080000000 1.0
C      1  0.5214780000000  0.5203300000000  0.4287980000000 1.0
C      1  0.4919520000000  0.5088830000000  0.5251770000000 1.0
C      1  0.4804280000000  0.5073820000000  0.4808250000000 1.0
C      1  0.5243960000000  0.5073430000000  0.4929030000000 1.0
C      1  0.5606050000000  0.4931530000000  0.4574890000000 1.0
C      1  0.5050110000000  0.4932850000000  0.5744030000000 1.0
C      1  0.4310930000000  0.4931680000000  0.4681150000000 1.0
C      1  0.5631400000000  0.5422250000000  0.5112250000000 1.0
C      1  0.4570410000000  0.5423550000000  0.5501220000000 1.0
C      1  0.4764140000000  0.5420930000000  0.4389240000000 1.0
C      1  0.4988630000000  0.5709830000000  0.5001470000000 1.0
C      1  0.4989010000000  0.4609410000000  0.5022250000000 1.0
END
