TITL C-235508-3651-11 0.0064845486743812 125000 -22.9478494869573 0 0 4 (D(inf)h) n - 1
REM
REM in /rds/project/t2_vol4/rds-t2-cs072/BORA/CARBON/from-Arr/AIRSS/Generating-Clusters/GAP-ML-2020/Higher-Symm/SD-CG/HFTN-CG
REM
REM
REM
REM
REM
REM ./C.cell (b20cbc046b6831c77cfcea5457e17084)
REM AIRSS Version 0.9.1 bugfix July 2018 build 013d7b7c2542+ Fri, 06 Jul 2018 19:26:36 +0100
REM compiler GCC version 9.3.0
REM options -cpp -mtune=generic -march=x86-64 -g -O0
REM seed -23349978 -1705133280 1536744847 999963126 245349580 -767065526 -613252556 1026778549 -1325539438 89498595 1365851680 -1687247346 -496206321 203113257 -1071527348 -149582532 -39724396 702376280 -743887145 -967519227 -1862464125 -8037109 -940038196 -103721523 84217895 838212757 1885001636 -529289484 895464125 -1367882377 1954317465 -528507191 -1891509357
REM
CELL 1.54180   50.00000   50.00000   50.00000   90.00000   90.00000   90.00000
LATT -1
SFAC C  
C      1  0.5008260000000  0.4970490000000  0.5134660000000 1.0
C      1  0.5008260000000  0.4970490000000  0.4865340000000 1.0
C      1  0.5008260000000  0.4970490000000  0.4611370000000 1.0
C      1  0.5008260000000  0.4970490000000  0.5388630000000 1.0
END
