TITL C-234713-293-2 -216.082521393746 125000 -901.220577844931 0 0 126 (C1) n - 1
REM
REM in /rds/project/t2_vol4/rds-t2-cs072/BORA/CARBON/from-Arr/AIRSS/Generating-Clusters/GAP-ML-2020/Higher-Symm/SD-CG/HFTN-CG
REM
REM
REM
REM
REM
REM ./C.cell (b20cbc046b6831c77cfcea5457e17084)
REM AIRSS Version 0.9.1 bugfix July 2018 build 013d7b7c2542+ Fri, 06 Jul 2018 19:26:36 +0100
REM compiler GCC version 9.3.0
REM options -cpp -mtune=generic -march=x86-64 -g -O0
REM seed 897163810 813769750 -246436441 -875996207 -423479486 -183394555 -1952351880 939916137 371606770 -1599603983 -1735266711 -320489209 1189933253 -596779249 1154658731 -1681854237 -1062756359 -1941799089 -268328429 1567123828 -666642499 273475930 -1944007165 1711823541 -1258947421 612022595 237960127 62877434 -1837432797 444967011 1466832858 -1068498170 -1636389286
REM
CELL 1.54180   50.00000   50.00000   50.00000   90.00000   90.00000   90.00000
LATT -1
SFAC C  
C      1  0.4458900000000  0.5102800000000  0.5138410000000 1.0
C      1  0.4771320000000  0.5095060000000  0.5506790000000 1.0
C      1  0.5249100000000  0.5092350000000  0.5488920000000 1.0
C      1  0.5530980000000  0.5100420000000  0.5107720000000 1.0
C      1  0.5399640000000  0.5107120000000  0.4649630000000 1.0
C      1  0.4955060000000  0.5103840000000  0.4453800000000 1.0
C      1  0.4535860000000  0.5098400000000  0.4672850000000 1.0
C      1  0.4681620000000  0.4745390000000  0.4939680000000 1.0
C      1  0.4753440000000  0.4751440000000  0.5205920000000 1.0
C      1  0.5005400000000  0.4744820000000  0.5318880000000 1.0
C      1  0.5249940000000  0.4744690000000  0.5189230000000 1.0
C      1  0.5296660000000  0.4754160000000  0.4917320000000 1.0
C      1  0.5116690000000  0.4756460000000  0.4708410000000 1.0
C      1  0.4842340000000  0.4747400000000  0.4717530000000 1.0
C      1  0.4299150000000  0.5592840000000  0.4760440000000 1.0
C      1  0.4377640000000  0.5477860000000  0.5465700000000 1.0
C      1  0.5000600000000  0.5467220000000  0.5794930000000 1.0
C      1  0.5643490000000  0.5476600000000  0.5513520000000 1.0
C      1  0.5792320000000  0.5483260000000  0.4821370000000 1.0
C      1  0.5311740000000  0.5483630000000  0.4293120000000 1.0
C      1  0.4587730000000  0.5655720000000  0.4459980000000 1.0
C      1  0.4944600000000  0.5749520000000  0.5346940000000 1.0
C      1  0.5248880000000  0.5744560000000  0.5304700000000 1.0
C      1  0.5399420000000  0.5747680000000  0.5028770000000 1.0
C      1  0.5277460000000  0.5761250000000  0.4741820000000 1.0
C      1  0.4992240000000  0.5783000000000  0.4673370000000 1.0
C      1  0.4763990000000  0.5820630000000  0.4864630000000 1.0
C      1  0.4732540000000  0.5769760000000  0.5148590000000 1.0
C      1  0.5840480000000  0.4997680000000  0.4499070000000 1.0
C      1  0.5123340000000  0.4980880000000  0.4034400000000 1.0
C      1  0.4323380000000  0.4946410000000  0.4269740000000 1.0
C      1  0.4015420000000  0.4974780000000  0.5050850000000 1.0
C      1  0.4436130000000  0.4993290000000  0.5807410000000 1.0
C      1  0.5296380000000  0.4985500000000  0.5946470000000 1.0
C      1  0.5925950000000  0.4986700000000  0.5355830000000 1.0
C      1  0.4704210000000  0.5134860000000  0.4013550000000 1.0
C      1  0.4052450000000  0.5137080000000  0.4608650000000 1.0
C      1  0.4206470000000  0.5249350000000  0.5441250000000 1.0
C      1  0.4880390000000  0.5240560000000  0.5924400000000 1.0
C      1  0.5662410000000  0.5235070000000  0.5677260000000 1.0
C      1  0.5935090000000  0.5241380000000  0.4904130000000 1.0
C      1  0.5477470000000  0.5250260000000  0.4218090000000 1.0
C      1  0.4231500000000  0.5002610000000  0.5604790000000 1.0
C      1  0.5014020000000  0.4991890000000  0.5993690000000 1.0
C      1  0.5794190000000  0.4987770000000  0.5609370000000 1.0
C      1  0.5962800000000  0.4996310000000  0.4756770000000 1.0
C      1  0.5398590000000  0.4997340000000  0.4099950000000 1.0
C      1  0.4539540000000  0.4931010000000  0.4080290000000 1.0
C      1  0.3997730000000  0.4927870000000  0.4770300000000 1.0
C      1  0.4345380000000  0.5483690000000  0.4487220000000 1.0
C      1  0.4246090000000  0.5495390000000  0.5018040000000 1.0
C      1  0.4569450000000  0.5482350000000  0.5661820000000 1.0
C      1  0.5273390000000  0.5482810000000  0.5762980000000 1.0
C      1  0.5773500000000  0.5484110000000  0.5270750000000 1.0
C      1  0.5674760000000  0.5490510000000  0.4570970000000 1.0
C      1  0.5037440000000  0.5494580000000  0.4233400000000 1.0
C      1  0.4672600000000  0.4269870000000  0.5140140000000 1.0
C      1  0.4899760000000  0.4274420000000  0.5349310000000 1.0
C      1  0.5209490000000  0.4276070000000  0.5299230000000 1.0
C      1  0.5364420000000  0.4277080000000  0.5025780000000 1.0
C      1  0.5249040000000  0.4275360000000  0.4738820000000 1.0
C      1  0.4953710000000  0.4265180000000  0.4652570000000 1.0
C      1  0.4696950000000  0.4261330000000  0.4830920000000 1.0
C      1  0.5259690000000  0.4511350000000  0.5765070000000 1.0
C      1  0.5761690000000  0.4512160000000  0.5272680000000 1.0
C      1  0.5687590000000  0.4516680000000  0.4576330000000 1.0
C      1  0.5104030000000  0.4495600000000  0.4205240000000 1.0
C      1  0.4443370000000  0.4470140000000  0.4424260000000 1.0
C      1  0.4200110000000  0.4493960000000  0.5082110000000 1.0
C      1  0.4564060000000  0.4515320000000  0.5676360000000 1.0
C      1  0.5392310000000  0.5618270000000  0.5534530000000 1.0
C      1  0.5665970000000  0.5623890000000  0.5041110000000 1.0
C      1  0.5426810000000  0.5627890000000  0.4522820000000 1.0
C      1  0.4877730000000  0.5666140000000  0.4419990000000 1.0
C      1  0.4527840000000  0.5772000000000  0.4718250000000 1.0
C      1  0.4472750000000  0.5580340000000  0.5200640000000 1.0
C      1  0.4841290000000  0.5569560000000  0.5570650000000 1.0
C      1  0.5657080000000  0.5227390000000  0.4443360000000 1.0
C      1  0.4944730000000  0.5213950000000  0.4136920000000 1.0
C      1  0.4287860000000  0.5187130000000  0.4464460000000 1.0
C      1  0.4169400000000  0.5220390000000  0.5150730000000 1.0
C      1  0.4627000000000  0.5218820000000  0.5786070000000 1.0
C      1  0.5398850000000  0.5215890000000  0.5789180000000 1.0
C      1  0.5864660000000  0.5218860000000  0.5181890000000 1.0
C      1  0.5916330000000  0.4747460000000  0.5199180000000 1.0
C      1  0.5720320000000  0.4754610000000  0.4410540000000 1.0
C      1  0.4992470000000  0.4725890000000  0.4070460000000 1.0
C      1  0.4269410000000  0.4705300000000  0.4414440000000 1.0
C      1  0.4088930000000  0.4740540000000  0.5200160000000 1.0
C      1  0.4592980000000  0.4750640000000  0.5841940000000 1.0
C      1  0.5414230000000  0.4744020000000  0.5843560000000 1.0
C      1  0.4405080000000  0.4376280000000  0.5243100000000 1.0
C      1  0.4815500000000  0.4382200000000  0.5620970000000 1.0
C      1  0.5371160000000  0.4381530000000  0.5532430000000 1.0
C      1  0.5647690000000  0.4383900000000  0.5042300000000 1.0
C      1  0.5440140000000  0.4381590000000  0.4525500000000 1.0
C      1  0.4909900000000  0.4359240000000  0.4369210000000 1.0
C      1  0.4449080000000  0.4352360000000  0.4685950000000 1.0
C      1  0.5421280000000  0.4932670000000  0.5318500000000 1.0
C      1  0.5503190000000  0.4941980000000  0.4866020000000 1.0
C      1  0.5197560000000  0.4946550000000  0.4516140000000 1.0
C      1  0.4736100000000  0.4933190000000  0.4532560000000 1.0
C      1  0.4474910000000  0.4933590000000  0.4898360000000 1.0
C      1  0.4592530000000  0.4941430000000  0.5339440000000 1.0
C      1  0.5011170000000  0.4932280000000  0.5533010000000 1.0
C      1  0.4960280000000  0.5279950000000  0.4700280000000 1.0
C      1  0.4706680000000  0.5312250000000  0.4813620000000 1.0
C      1  0.4652980000000  0.5334230000000  0.5106940000000 1.0
C      1  0.4861100000000  0.5322310000000  0.5334640000000 1.0
C      1  0.5142450000000  0.5283800000000  0.5294170000000 1.0
C      1  0.5301790000000  0.5288390000000  0.5068690000000 1.0
C      1  0.5216240000000  0.5279740000000  0.4806110000000 1.0
C      1  0.4713280000000  0.4697080000000  0.4094120000000 1.0
C      1  0.4115810000000  0.4693340000000  0.4650640000000 1.0
C      1  0.4186890000000  0.4750860000000  0.5464240000000 1.0
C      1  0.4862250000000  0.4748080000000  0.5934350000000 1.0
C      1  0.5651700000000  0.4743450000000  0.5688800000000 1.0
C      1  0.5940120000000  0.4750530000000  0.4917530000000 1.0
C      1  0.5517180000000  0.4752450000000  0.4215880000000 1.0
C      1  0.4985490000000  0.4507930000000  0.5816190000000 1.0
C      1  0.5631510000000  0.4505540000000  0.5518800000000 1.0
C      1  0.5797480000000  0.4511140000000  0.4830460000000 1.0
C      1  0.5369360000000  0.4506110000000  0.4275180000000 1.0
C      1  0.4666670000000  0.4467110000000  0.4262890000000 1.0
C      1  0.4217020000000  0.4472850000000  0.4805890000000 1.0
C      1  0.4356270000000  0.4510680000000  0.5492960000000 1.0
END
