TITL C-237568-9932-4 0.075656534033213 125000 -539.590144937687 0 0 80 (C1) n - 1
REM
REM in /rds/project/t2_vol4/rds-t2-cs072/BORA/CARBON/from-Arr/AIRSS/Generating-Clusters/GAP-ML-2020/Higher-Symm/SD-CG/HFTN-CG
REM
REM
REM
REM
REM
REM ./C.cell (b20cbc046b6831c77cfcea5457e17084)
REM AIRSS Version 0.9.1 bugfix July 2018 build 013d7b7c2542+ Fri, 06 Jul 2018 19:26:36 +0100
REM compiler GCC version 9.3.0
REM options -cpp -mtune=generic -march=x86-64 -g -O0
REM seed 832215580 1512923737 -783860428 -646624730 403658158 -313328495 -404794069 1418381116 -979264039 -1604168548 -2102106967 1704472370 700648023 948716857 -600723597 596068237 -942568354 681142852 -1769872344 1388135684 287919594 1900738481 -281728927 1145460128 1815875695 1766841234 1779685438 340230426 -601387401 1046066681 612088883 -1018893727 777007332
REM
CELL 1.54180   50.00000   50.00000   50.00000   90.00000   90.00000   90.00000
LATT -1
SFAC C  
C      1  0.4235860000000  0.5110520000000  0.4988210000000 1.0
C      1  0.4446390000000  0.4474800000000  0.5006090000000 1.0
C      1  0.4995020000000  0.4222260000000  0.5029820000000 1.0
C      1  0.5609140000000  0.4506940000000  0.5028250000000 1.0
C      1  0.5737680000000  0.5494380000000  0.4975550000000 1.0
C      1  0.5211980000000  0.5730680000000  0.5042170000000 1.0
C      1  0.4612830000000  0.5606410000000  0.5046950000000 1.0
C      1  0.5383260000000  0.4799690000000  0.4377100000000 1.0
C      1  0.5234710000000  0.5361310000000  0.4400140000000 1.0
C      1  0.4959190000000  0.5407210000000  0.4422690000000 1.0
C      1  0.4738200000000  0.5194160000000  0.4464140000000 1.0
C      1  0.4642570000000  0.4871070000000  0.4373620000000 1.0
C      1  0.4890160000000  0.4655010000000  0.4451980000000 1.0
C      1  0.5180030000000  0.4600190000000  0.4393410000000 1.0
C      1  0.5067330000000  0.5744490000000  0.5288360000000 1.0
C      1  0.4430430000000  0.5521850000000  0.5255030000000 1.0
C      1  0.4228110000000  0.4898070000000  0.5191140000000 1.0
C      1  0.4542680000000  0.4345980000000  0.5250420000000 1.0
C      1  0.5194870000000  0.4285220000000  0.5236670000000 1.0
C      1  0.5759290000000  0.4701150000000  0.5138310000000 1.0
C      1  0.5671290000000  0.5406590000000  0.5230890000000 1.0
C      1  0.4957900000000  0.4619130000000  0.5503740000000 1.0
C      1  0.5222950000000  0.4681340000000  0.5633040000000 1.0
C      1  0.5495040000000  0.5237420000000  0.5648410000000 1.0
C      1  0.5305420000000  0.5465930000000  0.5671000000000 1.0
C      1  0.4658320000000  0.5299180000000  0.5646900000000 1.0
C      1  0.4611820000000  0.5047740000000  0.5496050000000 1.0
C      1  0.4672200000000  0.4736480000000  0.5608720000000 1.0
C      1  0.4994220000000  0.4311470000000  0.4758470000000 1.0
C      1  0.5539560000000  0.4460170000000  0.4733120000000 1.0
C      1  0.5642200000000  0.5592250000000  0.4752190000000 1.0
C      1  0.5149190000000  0.5721430000000  0.4769680000000 1.0
C      1  0.4634100000000  0.5531730000000  0.4774310000000 1.0
C      1  0.4354430000000  0.5087910000000  0.4734620000000 1.0
C      1  0.4527110000000  0.4525870000000  0.4741320000000 1.0
C      1  0.5439320000000  0.4667610000000  0.5458410000000 1.0
C      1  0.5651420000000  0.5171310000000  0.5421350000000 1.0
C      1  0.5273360000000  0.5628600000000  0.5455250000000 1.0
C      1  0.4629080000000  0.5513090000000  0.5462250000000 1.0
C      1  0.4322730000000  0.5078950000000  0.5396840000000 1.0
C      1  0.4489310000000  0.4569610000000  0.5440480000000 1.0
C      1  0.4987480000000  0.4329880000000  0.5427420000000 1.0
C      1  0.4715410000000  0.4836610000000  0.5102580000000 1.0
C      1  0.4956330000000  0.4766410000000  0.5246570000000 1.0
C      1  0.5204560000000  0.4733530000000  0.5108380000000 1.0
C      1  0.5400320000000  0.4966110000000  0.5109830000000 1.0
C      1  0.5283730000000  0.5250890000000  0.5123430000000 1.0
C      1  0.4977360000000  0.5278330000000  0.5150340000000 1.0
C      1  0.4828060000000  0.5044710000000  0.5269960000000 1.0
C      1  0.5401360000000  0.5521140000000  0.5214630000000 1.0
C      1  0.4842500000000  0.5568080000000  0.5248150000000 1.0
C      1  0.4276750000000  0.5293960000000  0.5214160000000 1.0
C      1  0.4432080000000  0.4714030000000  0.5185170000000 1.0
C      1  0.4789350000000  0.4230190000000  0.5239460000000 1.0
C      1  0.5373460000000  0.4506580000000  0.5217160000000 1.0
C      1  0.5606250000000  0.4887270000000  0.5320770000000 1.0
C      1  0.5195730000000  0.4711540000000  0.4815950000000 1.0
C      1  0.5455430000000  0.4878240000000  0.4792930000000 1.0
C      1  0.5293500000000  0.5311020000000  0.4817700000000 1.0
C      1  0.4994920000000  0.5305240000000  0.4842200000000 1.0
C      1  0.4870290000000  0.5093560000000  0.4700750000000 1.0
C      1  0.4720650000000  0.4879980000000  0.4826220000000 1.0
C      1  0.4967390000000  0.4817110000000  0.4683660000000 1.0
C      1  0.4966370000000  0.4818650000000  0.6011990000000 1.0
C      1  0.5219200000000  0.4830400000000  0.5868260000000 1.0
C      1  0.5318040000000  0.5092410000000  0.5834170000000 1.0
C      1  0.5127500000000  0.5309230000000  0.5843380000000 1.0
C      1  0.4843440000000  0.5268120000000  0.5861920000000 1.0
C      1  0.4787920000000  0.5024350000000  0.6015510000000 1.0
C      1  0.4704190000000  0.4767350000000  0.5906370000000 1.0
C      1  0.5244990000000  0.4446600000000  0.4658850000000 1.0
C      1  0.5590830000000  0.4703210000000  0.4583080000000 1.0
C      1  0.5367530000000  0.5556780000000  0.4649750000000 1.0
C      1  0.4911190000000  0.5562140000000  0.4679450000000 1.0
C      1  0.4523440000000  0.5304410000000  0.4630210000000 1.0
C      1  0.4491880000000  0.4822680000000  0.4650870000000 1.0
C      1  0.4773380000000  0.4433800000000  0.4618000000000 1.0
C      1  0.5365130000000  0.5097070000000  0.4394000000000 1.0
C      1  0.4533230000000  0.4853570000000  0.4123740000000 1.0
C      1  0.5434260000000  0.5118110000000  0.4664180000000 1.0
END
