TITL C-234782-4458-5 -0.000225960346534399 125000 -22.947849497989 0 0 4 (D(inf)h) n - 1
REM
REM in /rds/project/t2_vol4/rds-t2-cs072/BORA/CARBON/from-Arr/AIRSS/Generating-Clusters/GAP-ML-2020/Higher-Symm/SD-CG/HFTN-CG
REM
REM
REM
REM
REM
REM ./C.cell (b20cbc046b6831c77cfcea5457e17084)
REM AIRSS Version 0.9.1 bugfix July 2018 build 013d7b7c2542+ Fri, 06 Jul 2018 19:26:36 +0100
REM compiler GCC version 9.3.0
REM options -cpp -mtune=generic -march=x86-64 -g -O0
REM seed 439690240 -1131844975 1657991119 445681741 1883915559 889850941 -1567887201 450829433 -1753475823 763691737 -471231092 2003417036 -911315518 -758303908 -1283775844 1153570980 -2060558536 281484388 -280116353 1461232998 -1859294790 126532540 -1484772794 651111565 154433347 817015277 1935950530 -377144501 -694556409 -98609914 2070789381 1654433773 -1600065602
REM
CELL 1.54180   50.00000   50.00000   50.00000   90.00000   90.00000   90.00000
LATT -1
SFAC C  
C      1  0.5002510000000  0.5008080000000  0.4865340000000 1.0
C      1  0.5002510000000  0.5008080000000  0.5134660000000 1.0
C      1  0.5002510000000  0.5008080000000  0.4611370000000 1.0
C      1  0.5002510000000  0.5008080000000  0.5388630000000 1.0
END
