TITL C-234684-167-7 -3.01090156284038 125000 -253.246989775453 0 0 38 (Cs) n - 1
REM
REM in /rds/project/t2_vol4/rds-t2-cs072/BORA/CARBON/from-Arr/AIRSS/Generating-Clusters/GAP-ML-2020/Higher-Symm/SD-CG/HFTN-CG
REM
REM
REM
REM
REM
REM ./C.cell (b20cbc046b6831c77cfcea5457e17084)
REM AIRSS Version 0.9.1 bugfix July 2018 build 013d7b7c2542+ Fri, 06 Jul 2018 19:26:36 +0100
REM compiler GCC version 9.3.0
REM options -cpp -mtune=generic -march=x86-64 -g -O0
REM seed 1053939343 2076419427 -332409695 1287749472 466601084 355397074 -1660495252 -1361938920 -1531673327 348047277 -747709563 -905643095 -1106622290 -1715822683 -484724166 -814630949 1580933114 2089108059 1761135375 1975202660 952135106 -1692492736 769278719 1428830068 724893128 -484463643 -1057425935 452783309 1019575221 -617025436 947188941 -598970383 -382335019
REM
CELL 1.54180   50.00000   50.00000   50.00000   90.00000   90.00000   90.00000
LATT -1
SFAC C  
C      1  0.4378240000000  0.4583370000000  0.5143890000000 1.0
C      1  0.4918350000000  0.4589820000000  0.5649610000000 1.0
C      1  0.5527350000000  0.4558790000000  0.5279420000000 1.0
C      1  0.5462580000000  0.4560370000000  0.4539460000000 1.0
C      1  0.4761230000000  0.4573890000000  0.4530120000000 1.0
C      1  0.5311940000000  0.5214560000000  0.5320390000000 1.0
C      1  0.5420150000000  0.5236420000000  0.4823080000000 1.0
C      1  0.5008500000000  0.5236620000000  0.4564300000000 1.0
C      1  0.4607240000000  0.5214900000000  0.4877390000000 1.0
C      1  0.4828860000000  0.5209020000000  0.5306840000000 1.0
C      1  0.5008570000000  0.4700650000000  0.4479350000000 1.0
C      1  0.4440720000000  0.4705800000000  0.4888460000000 1.0
C      1  0.4717420000000  0.4710660000000  0.5483740000000 1.0
C      1  0.5373800000000  0.4705360000000  0.5475030000000 1.0
C      1  0.5496310000000  0.4700420000000  0.4785950000000 1.0
C      1  0.5406670000000  0.5366860000000  0.5078240000000 1.0
C      1  0.5238380000000  0.5388300000000  0.4655530000000 1.0
C      1  0.4784490000000  0.5367160000000  0.4687120000000 1.0
C      1  0.4670900000000  0.5363900000000  0.5129400000000 1.0
C      1  0.5057340000000  0.5363710000000  0.5372330000000 1.0
C      1  0.4827670000000  0.4919740000000  0.5308510000000 1.0
C      1  0.5360770000000  0.4976780000000  0.5415430000000 1.0
C      1  0.5355750000000  0.4954660000000  0.4817910000000 1.0
C      1  0.5040880000000  0.4954810000000  0.4619970000000 1.0
C      1  0.4500260000000  0.4977190000000  0.4874480000000 1.0
C      1  0.4480760000000  0.4590030000000  0.5374520000000 1.0
C      1  0.5170620000000  0.4582990000000  0.5642010000000 1.0
C      1  0.5557690000000  0.4573500000000  0.5030800000000 1.0
C      1  0.5245230000000  0.4560480000000  0.4402820000000 1.0
C      1  0.4550330000000  0.4559260000000  0.4665230000000 1.0
C      1  0.5046820000000  0.5614160000000  0.5232260000000 1.0
C      1  0.5267660000000  0.5624050000000  0.5054250000000 1.0
C      1  0.5160020000000  0.5633450000000  0.4780380000000 1.0
C      1  0.4866550000000  0.5624240000000  0.4802100000000 1.0
C      1  0.4801860000000  0.5614280000000  0.5078270000000 1.0
C      1  0.5079520000000  0.4947930000000  0.4907900000000 1.0
C      1  0.5042150000000  0.5247140000000  0.4967580000000 1.0
C      1  0.4959000000000  0.4813050000000  0.5099530000000 1.0
END
