TITL C-233944-2156-4 -0.430496045394271 27000 -681.059410294148 0 0 96 (C1) n - 1
REM
REM in /rds/project/t2_vol4/rds-t2-cs072/BORA/CARBON/from-Arr/AIRSS/Generating-Clusters/GAP-ML-2020/Higher-Symm/SD-CG/HFTN-CG/Box-30A
REM
REM
REM
REM
REM
REM ./C.cell (13fc22856271072ba132eecf8fb47ea5)
REM AIRSS Version 0.9.1 bugfix July 2018 build 013d7b7c2542+ Fri, 06 Jul 2018 19:26:36 +0100
REM compiler GCC version 9.3.0
REM options -cpp -mtune=generic -march=x86-64 -g -O0
REM seed -2084359474 351778886 -1870558668 -793791899 1700689533 -208335449 1820613924 -86925943 298973362 1916993953 -670552972 -1881343190 -1644776801 -1501060802 -841013445 -1766152790 1291217278 1556981044 1513178920 -40772110 -245366891 1900849658 -364666389 -1813602456 26806723 302812870 -1997076559 251129649 -2024797311 1706998092 448772633 1411848794 1354950185
REM
CELL 1.54180   30.00000   30.00000   30.00000   90.00000   90.00000   90.00000
LATT -1
SFAC C  
C      1  0.3813940000000  0.5531620000000  0.4371260000000 1.0
C      1  0.3943890000000  0.4360010000000  0.4333230000000 1.0
C      1  0.4796280000000  0.3587470000000  0.4472510000000 1.0
C      1  0.5877260000000  0.3976400000000  0.4509710000000 1.0
C      1  0.6192260000000  0.5127550000000  0.4374960000000 1.0
C      1  0.5726400000000  0.6194060000000  0.4390340000000 1.0
C      1  0.4589190000000  0.6367330000000  0.4443440000000 1.0
C      1  0.5964180000000  0.6081740000000  0.5126660000000 1.0
C      1  0.4808300000000  0.6450270000000  0.5191090000000 1.0
C      1  0.3817570000000  0.5692460000000  0.5158360000000 1.0
C      1  0.3634290000000  0.4533170000000  0.5037720000000 1.0
C      1  0.4471220000000  0.3654490000000  0.5183660000000 1.0
C      1  0.5670740000000  0.3895160000000  0.5285130000000 1.0
C      1  0.6351590000000  0.4925970000000  0.5128310000000 1.0
C      1  0.4520190000000  0.3801460000000  0.5647950000000 1.0
C      1  0.5717320000000  0.3964320000000  0.5801500000000 1.0
C      1  0.6257450000000  0.5015430000000  0.5603590000000 1.0
C      1  0.5848540000000  0.6036160000000  0.5603610000000 1.0
C      1  0.4774470000000  0.6312520000000  0.5655700000000 1.0
C      1  0.3881060000000  0.5516640000000  0.5618040000000 1.0
C      1  0.3676020000000  0.4628320000000  0.5505720000000 1.0
C      1  0.3748220000000  0.5072580000000  0.5726340000000 1.0
C      1  0.3931370000000  0.4414850000000  0.5869020000000 1.0
C      1  0.4989730000000  0.3806840000000  0.5689500000000 1.0
C      1  0.5966310000000  0.4302270000000  0.5953500000000 1.0
C      1  0.5989210000000  0.5401350000000  0.5584080000000 1.0
C      1  0.5380890000000  0.6024650000000  0.5655320000000 1.0
C      1  0.4513070000000  0.5929150000000  0.5675060000000 1.0
C      1  0.4410090000000  0.6029590000000  0.4165450000000 1.0
C      1  0.4021570000000  0.5188860000000  0.4106220000000 1.0
C      1  0.4326040000000  0.4156120000000  0.4132800000000 1.0
C      1  0.5165370000000  0.3755310000000  0.4233220000000 1.0
C      1  0.5892380000000  0.4341980000000  0.4194740000000 1.0
C      1  0.5946590000000  0.5460280000000  0.4116760000000 1.0
C      1  0.5320690000000  0.6174850000000  0.4152430000000 1.0
C      1  0.5497540000000  0.5424210000000  0.6175190000000 1.0
C      1  0.5021470000000  0.5586770000000  0.6178350000000 1.0
C      1  0.4568050000000  0.5359590000000  0.6197710000000 1.0
C      1  0.4417050000000  0.4895340000000  0.6271840000000 1.0
C      1  0.4610160000000  0.4414220000000  0.6233420000000 1.0
C      1  0.5070260000000  0.4281130000000  0.6289190000000 1.0
C      1  0.5640240000000  0.4962410000000  0.6192450000000 1.0
C      1  0.3611300000000  0.4917930000000  0.4745440000000 1.0
C      1  0.4150990000000  0.3800930000000  0.4834890000000 1.0
C      1  0.5383030000000  0.3581980000000  0.4976620000000 1.0
C      1  0.6260650000000  0.4521120000000  0.4866210000000 1.0
C      1  0.6202340000000  0.5770270000000  0.4812040000000 1.0
C      1  0.5201280000000  0.6491520000000  0.4883640000000 1.0
C      1  0.4042700000000  0.6052200000000  0.4897610000000 1.0
C      1  0.4684600000000  0.4602420000000  0.4986630000000 1.0
C      1  0.5028630000000  0.4314420000000  0.4885980000000 1.0
C      1  0.5296990000000  0.4682080000000  0.4840090000000 1.0
C      1  0.5482540000000  0.5390560000000  0.4754000000000 1.0
C      1  0.5110110000000  0.5665540000000  0.4833470000000 1.0
C      1  0.4683040000000  0.5484090000000  0.4848510000000 1.0
C      1  0.4523720000000  0.5045840000000  0.4912910000000 1.0
C      1  0.5415270000000  0.4855090000000  0.5271580000000 1.0
C      1  0.5554250000000  0.5308000000000  0.5268540000000 1.0
C      1  0.5205160000000  0.5647360000000  0.5364670000000 1.0
C      1  0.4731600000000  0.5563040000000  0.5400310000000 1.0
C      1  0.4543200000000  0.5128290000000  0.5424610000000 1.0
C      1  0.4762830000000  0.4722120000000  0.5464000000000 1.0
C      1  0.5218130000000  0.4124520000000  0.5357860000000 1.0
C      1  0.4380140000000  0.3769900000000  0.4409460000000 1.0
C      1  0.5521480000000  0.3684390000000  0.4534520000000 1.0
C      1  0.6177580000000  0.4656840000000  0.4410590000000 1.0
C      1  0.6040530000000  0.5855960000000  0.4364730000000 1.0
C      1  0.5039900000000  0.6438580000000  0.4433340000000 1.0
C      1  0.4025590000000  0.5929870000000  0.4424580000000 1.0
C      1  0.3814530000000  0.4809360000000  0.4315820000000 1.0
C      1  0.4425180000000  0.6358040000000  0.4898920000000 1.0
C      1  0.3651990000000  0.5391560000000  0.4805110000000 1.0
C      1  0.3841400000000  0.4175090000000  0.4771010000000 1.0
C      1  0.4882250000000  0.3510680000000  0.4935590000000 1.0
C      1  0.6011940000000  0.4096450000000  0.4950530000000 1.0
C      1  0.6324430000000  0.5294740000000  0.4802930000000 1.0
C      1  0.5663330000000  0.6339320000000  0.4846060000000 1.0
C      1  0.5826330000000  0.5674990000000  0.5923640000000 1.0
C      1  0.5036950000000  0.6050420000000  0.5981920000000 1.0
C      1  0.4244570000000  0.5648160000000  0.5940370000000 1.0
C      1  0.3983980000000  0.4843240000000  0.6092160000000 1.0
C      1  0.4317580000000  0.4140730000000  0.5944680000000 1.0
C      1  0.5267260000000  0.3912970000000  0.6043070000000 1.0
C      1  0.6043370000000  0.4761990000000  0.5958580000000 1.0
C      1  0.4682510000000  0.5688430000000  0.3946670000000 1.0
C      1  0.4481460000000  0.5241910000000  0.3924680000000 1.0
C      1  0.4708870000000  0.4390900000000  0.3950920000000 1.0
C      1  0.5133380000000  0.4161390000000  0.3979390000000 1.0
C      1  0.5491010000000  0.4468960000000  0.3964970000000 1.0
C      1  0.5498160000000  0.5405670000000  0.3913620000000 1.0
C      1  0.5172880000000  0.5767200000000  0.3930550000000 1.0
C      1  0.5298720000000  0.4653360000000  0.6106270000000 1.0
C      1  0.5288060000000  0.4945510000000  0.4016480000000 1.0
C      1  0.5204240000000  0.4599360000000  0.5599540000000 1.0
C      1  0.5361270000000  0.5000210000000  0.4517160000000 1.0
C      1  0.4788750000000  0.4866350000000  0.3908970000000 1.0
END
