TITL C-234776-3684-5 -182.658443953217 125000 -899.18024687328 0 0 125 (C1) n - 1
REM
REM in /rds/project/t2_vol4/rds-t2-cs072/BORA/CARBON/from-Arr/AIRSS/Generating-Clusters/GAP-ML-2020/Higher-Symm/SD-CG/HFTN-CG
REM
REM
REM
REM
REM
REM ./C.cell (b20cbc046b6831c77cfcea5457e17084)
REM AIRSS Version 0.9.1 bugfix July 2018 build 013d7b7c2542+ Fri, 06 Jul 2018 19:26:36 +0100
REM compiler GCC version 9.3.0
REM options -cpp -mtune=generic -march=x86-64 -g -O0
REM seed -1112559153 2137911509 -1058853375 -1892430531 783357052 -747040789 1439245111 580666966 138255524 -439115853 -903171781 -376545109 -605925522 1558801443 312430757 -1663099187 30770400 2053565496 -850021099 1683400861 -1165012320 1124275994 1393926377 582870029 -1592848596 -1981200515 -1037628145 -227307537 -751914742 -992673635 -2104467392 1014368502 449745016
REM
CELL 1.54180   50.00000   50.00000   50.00000   90.00000   90.00000   90.00000
LATT -1
SFAC C  
C      1  0.4320680000000  0.4609440000000  0.5266450000000 1.0
C      1  0.4594080000000  0.5290690000000  0.4289060000000 1.0
C      1  0.5311290000000  0.4276360000000  0.4593730000000 1.0
C      1  0.5700040000000  0.5396780000000  0.5308800000000 1.0
C      1  0.4278390000000  0.5435970000000  0.4654360000000 1.0
C      1  0.5691140000000  0.4572660000000  0.4719390000000 1.0
C      1  0.5413050000000  0.4679160000000  0.4326300000000 1.0
C      1  0.4599440000000  0.4704350000000  0.5700080000000 1.0
C      1  0.5427980000000  0.5313970000000  0.5713670000000 1.0
C      1  0.4696240000000  0.5696150000000  0.4557630000000 1.0
C      1  0.5301050000000  0.5671280000000  0.5393900000000 1.0
C      1  0.4716570000000  0.4334940000000  0.5396170000000 1.0
C      1  0.4452990000000  0.4349030000000  0.5229150000000 1.0
C      1  0.4321220000000  0.5250540000000  0.4404280000000 1.0
C      1  0.5257600000000  0.4413910000000  0.4336320000000 1.0
C      1  0.5563380000000  0.5654780000000  0.5241560000000 1.0
C      1  0.4431630000000  0.5684500000000  0.4716850000000 1.0
C      1  0.5572680000000  0.4307200000000  0.4768070000000 1.0
C      1  0.5675140000000  0.4731410000000  0.4455710000000 1.0
C      1  0.4372360000000  0.4785410000000  0.5513370000000 1.0
C      1  0.5688450000000  0.5253420000000  0.5580990000000 1.0
C      1  0.4761040000000  0.5549820000000  0.4309160000000 1.0
C      1  0.5257980000000  0.5569630000000  0.5674260000000 1.0
C      1  0.4769180000000  0.4457140000000  0.5669150000000 1.0
C      1  0.4752730000000  0.4342760000000  0.4440590000000 1.0
C      1  0.4364040000000  0.4449750000000  0.4739590000000 1.0
C      1  0.4439760000000  0.4740450000000  0.4338420000000 1.0
C      1  0.5257490000000  0.5620670000000  0.4435540000000 1.0
C      1  0.4759260000000  0.5642790000000  0.5533660000000 1.0
C      1  0.5257500000000  0.4368510000000  0.5569120000000 1.0
C      1  0.5646200000000  0.5531970000000  0.4752460000000 1.0
C      1  0.4355540000000  0.5569430000000  0.5220680000000 1.0
C      1  0.5659830000000  0.4426690000000  0.5275700000000 1.0
C      1  0.5565040000000  0.5222270000000  0.4363550000000 1.0
C      1  0.4450620000000  0.5265290000000  0.5621180000000 1.0
C      1  0.5568860000000  0.4752260000000  0.5669940000000 1.0
C      1  0.5909720000000  0.5315980000000  0.5118170000000 1.0
C      1  0.5338360000000  0.5122560000000  0.5925900000000 1.0
C      1  0.5115320000000  0.5882900000000  0.5303000000000 1.0
C      1  0.4107340000000  0.4692110000000  0.5086560000000 1.0
C      1  0.5898340000000  0.4656750000000  0.4912790000000 1.0
C      1  0.4078600000000  0.5348730000000  0.4862070000000 1.0
C      1  0.4682220000000  0.4907160000000  0.5892020000000 1.0
C      1  0.5338900000000  0.4864870000000  0.4111130000000 1.0
C      1  0.4682830000000  0.5089760000000  0.4093050000000 1.0
C      1  0.4897570000000  0.4118120000000  0.5327710000000 1.0
C      1  0.5111380000000  0.4078520000000  0.4676440000000 1.0
C      1  0.4899390000000  0.5893940000000  0.4648150000000 1.0
C      1  0.5098220000000  0.4998040000000  0.5525270000000 1.0
C      1  0.5006470000000  0.5315810000000  0.5092610000000 1.0
C      1  0.5390360000000  0.5054660000000  0.5018580000000 1.0
C      1  0.4865520000000  0.5031660000000  0.5403680000000 1.0
C      1  0.5082230000000  0.4976940000000  0.4648110000000 1.0
C      1  0.4817920000000  0.4952740000000  0.4680160000000 1.0
C      1  0.5047450000000  0.4719140000000  0.5110680000000 1.0
C      1  0.4981190000000  0.4552810000000  0.4895280000000 1.0
C      1  0.4978260000000  0.5471870000000  0.4887630000000 1.0
C      1  0.4678380000000  0.4942530000000  0.4962980000000 1.0
C      1  0.5331190000000  0.4800840000000  0.5071660000000 1.0
C      1  0.4484140000000  0.5130340000000  0.4975030000000 1.0
C      1  0.5985900000000  0.4921000000000  0.4888320000000 1.0
C      1  0.4942870000000  0.4888580000000  0.5998200000000 1.0
C      1  0.4879690000000  0.5981710000000  0.4913410000000 1.0
C      1  0.4009590000000  0.5077710000000  0.4845910000000 1.0
C      1  0.5990440000000  0.5047300000000  0.5144130000000 1.0
C      1  0.4012880000000  0.4958070000000  0.5104660000000 1.0
C      1  0.5066430000000  0.5147130000000  0.5997840000000 1.0
C      1  0.4952400000000  0.5104120000000  0.4020080000000 1.0
C      1  0.5071900000000  0.4846870000000  0.4024480000000 1.0
C      1  0.5132410000000  0.4009820000000  0.4948420000000 1.0
C      1  0.4874760000000  0.4018260000000  0.5066820000000 1.0
C      1  0.5136480000000  0.5974640000000  0.5039830000000 1.0
C      1  0.5199870000000  0.4521730000000  0.4725860000000 1.0
C      1  0.4591190000000  0.4720400000000  0.5150010000000 1.0
C      1  0.4711910000000  0.5200110000000  0.4563480000000 1.0
C      1  0.4777460000000  0.5443750000000  0.4704080000000 1.0
C      1  0.5207890000000  0.5396020000000  0.5278490000000 1.0
C      1  0.4819100000000  0.4600650000000  0.5273600000000 1.0
C      1  0.5442330000000  0.5230440000000  0.5225450000000 1.0
C      1  0.4519000000000  0.5307440000000  0.4766050000000 1.0
C      1  0.5425170000000  0.4687330000000  0.4819410000000 1.0
C      1  0.5261890000000  0.4771860000000  0.4587790000000 1.0
C      1  0.4681530000000  0.4814010000000  0.5429340000000 1.0
C      1  0.5287150000000  0.5193660000000  0.5477090000000 1.0
C      1  0.5898900000000  0.4863590000000  0.5339500000000 1.0
C      1  0.4879290000000  0.5332390000000  0.5887140000000 1.0
C      1  0.5325660000000  0.5872680000000  0.4857750000000 1.0
C      1  0.4105340000000  0.5149140000000  0.5293160000000 1.0
C      1  0.5894290000000  0.5106350000000  0.4693830000000 1.0
C      1  0.4114970000000  0.4886580000000  0.4661660000000 1.0
C      1  0.5134960000000  0.4695640000000  0.5911600000000 1.0
C      1  0.4880170000000  0.4660490000000  0.4113930000000 1.0
C      1  0.5141200000000  0.5293440000000  0.4111560000000 1.0
C      1  0.4685800000000  0.4110660000000  0.4874220000000 1.0
C      1  0.5320790000000  0.4115080000000  0.5135980000000 1.0
C      1  0.4686820000000  0.5892860000000  0.5099810000000 1.0
C      1  0.5550700000000  0.4256460000000  0.5059900000000 1.0
C      1  0.4275010000000  0.5065260000000  0.5507300000000 1.0
C      1  0.5051370000000  0.5515300000000  0.4261880000000 1.0
C      1  0.4460840000000  0.5743480000000  0.5011940000000 1.0
C      1  0.5537320000000  0.5709770000000  0.4953800000000 1.0
C      1  0.4470340000000  0.4273980000000  0.4949390000000 1.0
C      1  0.5744780000000  0.4956510000000  0.5560540000000 1.0
C      1  0.4267260000000  0.4959290000000  0.4436250000000 1.0
C      1  0.5735780000000  0.5016470000000  0.4477090000000 1.0
C      1  0.4966160000000  0.4441800000000  0.4272050000000 1.0
C      1  0.5050510000000  0.4480090000000  0.5741830000000 1.0
C      1  0.4964570000000  0.5545600000000  0.5723200000000 1.0
C      1  0.5850550000000  0.4616060000000  0.5193650000000 1.0
C      1  0.4634310000000  0.5185360000000  0.5827590000000 1.0
C      1  0.5177760000000  0.5823760000000  0.4613380000000 1.0
C      1  0.4140030000000  0.5398240000000  0.5143430000000 1.0
C      1  0.5851340000000  0.5355270000000  0.4835800000000 1.0
C      1  0.4166290000000  0.4643140000000  0.4808840000000 1.0
C      1  0.5386300000000  0.4838450000000  0.5873630000000 1.0
C      1  0.4635120000000  0.4812340000000  0.4150650000000 1.0
C      1  0.5385250000000  0.5144840000000  0.4161760000000 1.0
C      1  0.4832130000000  0.4146500000000  0.4628630000000 1.0
C      1  0.5175720000000  0.4175600000000  0.5376550000000 1.0
C      1  0.4835230000000  0.5837990000000  0.5345570000000 1.0
C      1  0.4507650000000  0.5507880000000  0.5470840000000 1.0
C      1  0.5512430000000  0.4499600000000  0.5523240000000 1.0
C      1  0.5501750000000  0.5470890000000  0.4504550000000 1.0
C      1  0.4502740000000  0.4494000000000  0.4490080000000 1.0
C      1  0.4914560000000  0.5029480000000  0.5120820000000 1.0
END
