TITL C-235504-3840-1 -0.0638460125820225 125000 -331.799346974748 0 0 50 (C1) n - 1
REM
REM in /rds/project/t2_vol4/rds-t2-cs072/BORA/CARBON/from-Arr/AIRSS/Generating-Clusters/GAP-ML-2020/Higher-Symm/SD-CG/HFTN-CG
REM
REM
REM
REM
REM
REM ./C.cell (b20cbc046b6831c77cfcea5457e17084)
REM AIRSS Version 0.9.1 bugfix July 2018 build 013d7b7c2542+ Fri, 06 Jul 2018 19:26:36 +0100
REM compiler GCC version 9.3.0
REM options -cpp -mtune=generic -march=x86-64 -g -O0
REM seed -560600547 1740379714 -1867133365 869447179 1294060235 1273679342 1753239321 1586726660 389844160 1129295158 1662183073 625479887 -1983939009 -1336917215 -1050590273 212124773 -516225750 931572389 -1595618836 593835622 307739769 -1575211312 1776487864 763306983 -1866770230 -314312793 702292675 -208167625 -1160778279 2143783034 1762599855 -79262575 1059524368
REM
CELL 1.54180   50.00000   50.00000   50.00000   90.00000   90.00000   90.00000
LATT -1
SFAC C  
C      1  0.4833810000000  0.5653900000000  0.4786990000000 1.0
C      1  0.5065120000000  0.5499260000000  0.4714130000000 1.0
C      1  0.5319260000000  0.5467290000000  0.4825280000000 1.0
C      1  0.5354990000000  0.5478480000000  0.5106900000000 1.0
C      1  0.5162700000000  0.5496190000000  0.5323180000000 1.0
C      1  0.4884960000000  0.5530990000000  0.5310490000000 1.0
C      1  0.4768190000000  0.5557060000000  0.5051630000000 1.0
C      1  0.5225150000000  0.5029840000000  0.5050190000000 1.0
C      1  0.5015660000000  0.5055620000000  0.5251510000000 1.0
C      1  0.4726350000000  0.5133940000000  0.5211070000000 1.0
C      1  0.4612480000000  0.5309330000000  0.4999790000000 1.0
C      1  0.4666800000000  0.5240750000000  0.4697430000000 1.0
C      1  0.4967470000000  0.5230070000000  0.4625260000000 1.0
C      1  0.5172960000000  0.5043240000000  0.4752160000000 1.0
C      1  0.4877790000000  0.4893930000000  0.4294510000000 1.0
C      1  0.5586460000000  0.4812750000000  0.4558110000000 1.0
C      1  0.5734200000000  0.4932450000000  0.4936470000000 1.0
C      1  0.5537850000000  0.4860100000000  0.5610010000000 1.0
C      1  0.4846190000000  0.4951520000000  0.5759870000000 1.0
C      1  0.4325550000000  0.4864080000000  0.5235300000000 1.0
C      1  0.4351920000000  0.4873570000000  0.4822270000000 1.0
C      1  0.4399150000000  0.4673930000000  0.5020530000000 1.0
C      1  0.4731070000000  0.4794040000000  0.4513520000000 1.0
C      1  0.5325820000000  0.4755780000000  0.4448370000000 1.0
C      1  0.5624420000000  0.4681910000000  0.4820830000000 1.0
C      1  0.5536570000000  0.4811840000000  0.5347110000000 1.0
C      1  0.5070870000000  0.4837590000000  0.5647610000000 1.0
C      1  0.4580390000000  0.4908770000000  0.5363520000000 1.0
C      1  0.5359660000000  0.4634270000000  0.4921520000000 1.0
C      1  0.5299990000000  0.4747880000000  0.5180030000000 1.0
C      1  0.5030980000000  0.4764990000000  0.5358340000000 1.0
C      1  0.4758710000000  0.4677120000000  0.5306110000000 1.0
C      1  0.4654440000000  0.4553510000000  0.5075160000000 1.0
C      1  0.4892700000000  0.4620870000000  0.4674980000000 1.0
C      1  0.5168740000000  0.4727800000000  0.4699740000000 1.0
C      1  0.4551080000000  0.4971460000000  0.4645200000000 1.0
C      1  0.5157490000000  0.4917500000000  0.4284720000000 1.0
C      1  0.5650360000000  0.5066420000000  0.4691190000000 1.0
C      1  0.5669860000000  0.5023450000000  0.5189110000000 1.0
C      1  0.5309940000000  0.5005290000000  0.5632050000000 1.0
C      1  0.4671030000000  0.5083330000000  0.5606720000000 1.0
C      1  0.4237800000000  0.5060780000000  0.5033500000000 1.0
C      1  0.5237000000000  0.5207040000000  0.5428900000000 1.0
C      1  0.4713520000000  0.5319470000000  0.5446730000000 1.0
C      1  0.4317490000000  0.5316050000000  0.5038720000000 1.0
C      1  0.4634660000000  0.5535550000000  0.4620500000000 1.0
C      1  0.4991380000000  0.5147780000000  0.4330610000000 1.0
C      1  0.5418620000000  0.5217100000000  0.4697800000000 1.0
C      1  0.5454220000000  0.5214810000000  0.5200600000000 1.0
C      1  0.4792750000000  0.4452390000000  0.4864020000000 1.0
END
