TITL C-233933-2153-4 0.432181296391877 27000 -322.721368920346 0 0 48 (C1) n - 1
REM
REM in /rds/project/t2_vol4/rds-t2-cs072/BORA/CARBON/from-Arr/AIRSS/Generating-Clusters/GAP-ML-2020/Higher-Symm/SD-CG/HFTN-CG/Box-30A
REM
REM
REM
REM
REM
REM ./C.cell (13fc22856271072ba132eecf8fb47ea5)
REM AIRSS Version 0.9.1 bugfix July 2018 build 013d7b7c2542+ Fri, 06 Jul 2018 19:26:36 +0100
REM compiler GCC version 9.3.0
REM options -cpp -mtune=generic -march=x86-64 -g -O0
REM seed -696468364 -2001619557 1583969893 -503352082 -120566857 1904733154 1981333408 299451730 1974326871 174801837 -940674272 -597900981 -854974787 959475855 -1204057960 1189296816 1857138915 -1924644238 546992076 -717519616 1361250040 1475033337 -260917309 887044554 821484979 1906663376 343792560 1438503776 -825330045 1884579109 -277746405 569745835 410823895
REM
CELL 1.54180   30.00000   30.00000   30.00000   90.00000   90.00000   90.00000
LATT -1
SFAC C  
C      1  0.5311460000000  0.5274620000000  0.3803460000000 1.0
C      1  0.5148220000000  0.5959330000000  0.5680100000000 1.0
C      1  0.5340060000000  0.3879060000000  0.5396310000000 1.0
C      1  0.4891200000000  0.5124240000000  0.3961430000000 1.0
C      1  0.4687550000000  0.5955450000000  0.5649000000000 1.0
C      1  0.4919670000000  0.4079210000000  0.5438680000000 1.0
C      1  0.5552030000000  0.4937340000000  0.4622330000000 1.0
C      1  0.5554060000000  0.5074700000000  0.5367150000000 1.0
C      1  0.5765360000000  0.4765010000000  0.5041730000000 1.0
C      1  0.4092650000000  0.5112250000000  0.4734300000000 1.0
C      1  0.4413210000000  0.5171720000000  0.5117410000000 1.0
C      1  0.4546350000000  0.4754550000000  0.5357300000000 1.0
C      1  0.4886040000000  0.4691090000000  0.4154400000000 1.0
C      1  0.4801810000000  0.5374540000000  0.4918370000000 1.0
C      1  0.4947610000000  0.4534070000000  0.5538370000000 1.0
C      1  0.5315790000000  0.4523010000000  0.4333390000000 1.0
C      1  0.5283960000000  0.5268890000000  0.4936070000000 1.0
C      1  0.5307430000000  0.4796860000000  0.5754780000000 1.0
C      1  0.4703300000000  0.4157490000000  0.4687080000000 1.0
C      1  0.4789210000000  0.5796110000000  0.4406300000000 1.0
C      1  0.4604530000000  0.5190540000000  0.6022590000000 1.0
C      1  0.5172280000000  0.4155360000000  0.4632710000000 1.0
C      1  0.5277200000000  0.5829790000000  0.4429040000000 1.0
C      1  0.5081690000000  0.5184970000000  0.5990690000000 1.0
C      1  0.4543420000000  0.4043240000000  0.5120570000000 1.0
C      1  0.4579620000000  0.5434630000000  0.4137800000000 1.0
C      1  0.4420410000000  0.5589640000000  0.5837900000000 1.0
C      1  0.5474920000000  0.4008450000000  0.4957220000000 1.0
C      1  0.5516540000000  0.5586510000000  0.4113520000000 1.0
C      1  0.5328650000000  0.5575990000000  0.5912400000000 1.0
C      1  0.5658810000000  0.5509610000000  0.5572910000000 1.0
C      1  0.5814710000000  0.4310460000000  0.5143370000000 1.0
C      1  0.5794620000000  0.5200730000000  0.4248580000000 1.0
C      1  0.4226240000000  0.5554680000000  0.5406060000000 1.0
C      1  0.4231940000000  0.4345580000000  0.5315200000000 1.0
C      1  0.4190630000000  0.5217850000000  0.4297510000000 1.0
C      1  0.4101540000000  0.4459290000000  0.5747770000000 1.0
C      1  0.4154780000000  0.4764890000000  0.4424610000000 1.0
C      1  0.4440130000000  0.5955750000000  0.5228920000000 1.0
C      1  0.5689920000000  0.4177700000000  0.5597290000000 1.0
C      1  0.5669660000000  0.4944670000000  0.3845500000000 1.0
C      1  0.5497760000000  0.5903230000000  0.5312370000000 1.0
C      1  0.5609970000000  0.4511990000000  0.3920900000000 1.0
C      1  0.5454520000000  0.5754960000000  0.4881440000000 1.0
C      1  0.5626130000000  0.4452350000000  0.5936660000000 1.0
C      1  0.4529020000000  0.4486890000000  0.4378840000000 1.0
C      1  0.4643390000000  0.5840000000000  0.4841850000000 1.0
C      1  0.4410020000000  0.4780700000000  0.5847800000000 1.0
END
