TITL C-234710-242-7 -1184.84529719674 125000 -984.38043000606 0 0 141 (C1) n - 1
REM
REM in /rds/project/t2_vol4/rds-t2-cs072/BORA/CARBON/from-Arr/AIRSS/Generating-Clusters/GAP-ML-2020/Higher-Symm/SD-CG/HFTN-CG
REM
REM
REM
REM
REM
REM ./C.cell (b20cbc046b6831c77cfcea5457e17084)
REM AIRSS Version 0.9.1 bugfix July 2018 build 013d7b7c2542+ Fri, 06 Jul 2018 19:26:36 +0100
REM compiler GCC version 9.3.0
REM options -cpp -mtune=generic -march=x86-64 -g -O0
REM seed 406228485 2143421451 824417 -642379292 -346915517 980032484 -420366407 538699584 1339520453 -153964814 630926910 -1575981026 -178586919 1854834487 -1622245302 -990360878 -543762978 55091039 -1556766791 -925668379 -2134766253 -1911186701 1532782454 -1068979370 1413873715 1179299981 1887127543 -294290419 193002273 -59486947 269250535 -1364875444 -169058624
REM
CELL 1.54180   50.00000   50.00000   50.00000   90.00000   90.00000   90.00000
LATT -1
SFAC C  
C      1  0.4625980000000  0.4087760000000  0.5552920000000 1.0
C      1  0.5147500000000  0.4766190000000  0.5944230000000 1.0
C      1  0.5119240000000  0.4635770000000  0.4138100000000 1.0
C      1  0.4436950000000  0.5649920000000  0.4932060000000 1.0
C      1  0.5790640000000  0.5121610000000  0.5308170000000 1.0
C      1  0.4537930000000  0.4198900000000  0.4711010000000 1.0
C      1  0.5799760000000  0.4953020000000  0.5681930000000 1.0
C      1  0.5372450000000  0.4800100000000  0.4133450000000 1.0
C      1  0.4673930000000  0.4151530000000  0.4475500000000 1.0
C      1  0.5206350000000  0.6038610000000  0.4551990000000 1.0
C      1  0.5355950000000  0.4180340000000  0.4714410000000 1.0
C      1  0.5166710000000  0.5757260000000  0.5046970000000 1.0
C      1  0.4775670000000  0.5551460000000  0.5808140000000 1.0
C      1  0.4726580000000  0.5459590000000  0.5272990000000 1.0
C      1  0.5034800000000  0.4549090000000  0.5815360000000 1.0
C      1  0.5538110000000  0.4858170000000  0.5707460000000 1.0
C      1  0.4671820000000  0.5763320000000  0.5639120000000 1.0
C      1  0.4082020000000  0.5140240000000  0.5204140000000 1.0
C      1  0.5333380000000  0.4307860000000  0.4450520000000 1.0
C      1  0.5189070000000  0.5212280000000  0.4614120000000 1.0
C      1  0.5814350000000  0.5312280000000  0.5067860000000 1.0
C      1  0.5647090000000  0.5432070000000  0.4383640000000 1.0
C      1  0.5069490000000  0.4199840000000  0.5520100000000 1.0
C      1  0.4898000000000  0.5572840000000  0.4347590000000 1.0
C      1  0.4700830000000  0.4941760000000  0.5217040000000 1.0
C      1  0.5866870000000  0.5225030000000  0.4795130000000 1.0
C      1  0.4076670000000  0.4858840000000  0.5230150000000 1.0
C      1  0.5404560000000  0.5624780000000  0.4371060000000 1.0
C      1  0.5223120000000  0.4351910000000  0.5701320000000 1.0
C      1  0.5508280000000  0.5673570000000  0.5344050000000 1.0
C      1  0.4604160000000  0.4106030000000  0.4975940000000 1.0
C      1  0.4327860000000  0.5052790000000  0.4277430000000 1.0
C      1  0.4962540000000  0.4419890000000  0.4990350000000 1.0
C      1  0.5364470000000  0.4901420000000  0.5442480000000 1.0
C      1  0.5379830000000  0.5223000000000  0.5092800000000 1.0
C      1  0.4633170000000  0.4967100000000  0.4743750000000 1.0
C      1  0.4348730000000  0.4769360000000  0.4312740000000 1.0
C      1  0.4085580000000  0.4708160000000  0.4980120000000 1.0
C      1  0.5492720000000  0.5345280000000  0.5709270000000 1.0
C      1  0.5431230000000  0.4496030000000  0.5108810000000 1.0
C      1  0.4710680000000  0.4341550000000  0.5158120000000 1.0
C      1  0.4211090000000  0.4652160000000  0.4530210000000 1.0
C      1  0.5045910000000  0.3942590000000  0.5078710000000 1.0
C      1  0.5176750000000  0.5247310000000  0.5777140000000 1.0
C      1  0.5488420000000  0.4458710000000  0.5718910000000 1.0
C      1  0.4735460000000  0.5939430000000  0.5198290000000 1.0
C      1  0.4412710000000  0.5340800000000  0.4959630000000 1.0
C      1  0.4962540000000  0.6007550000000  0.4656310000000 1.0
C      1  0.4910580000000  0.5899700000000  0.4953960000000 1.0
C      1  0.5286060000000  0.5566920000000  0.4633930000000 1.0
C      1  0.4807400000000  0.4896120000000  0.4950120000000 1.0
C      1  0.4809610000000  0.4341080000000  0.4331890000000 1.0
C      1  0.5465800000000  0.5606860000000  0.5617790000000 1.0
C      1  0.5101020000000  0.4390150000000  0.4288640000000 1.0
C      1  0.5032370000000  0.5448000000000  0.4609980000000 1.0
C      1  0.4766230000000  0.5813400000000  0.4520440000000 1.0
C      1  0.4275930000000  0.4877410000000  0.5459660000000 1.0
C      1  0.5174140000000  0.5545650000000  0.4195200000000 1.0
C      1  0.5147590000000  0.4736740000000  0.5327750000000 1.0
C      1  0.5123390000000  0.5118100000000  0.5485910000000 1.0
C      1  0.5928620000000  0.4877180000000  0.5436450000000 1.0
C      1  0.5090650000000  0.4998090000000  0.4463490000000 1.0
C      1  0.5407530000000  0.5662290000000  0.4879500000000 1.0
C      1  0.4640190000000  0.5452820000000  0.4232680000000 1.0
C      1  0.4448930000000  0.4488610000000  0.5194110000000 1.0
C      1  0.5709020000000  0.5210190000000  0.5595960000000 1.0
C      1  0.5291990000000  0.5849230000000  0.5290470000000 1.0
C      1  0.5053610000000  0.5514500000000  0.5817160000000 1.0
C      1  0.4057610000000  0.4811830000000  0.4713620000000 1.0
C      1  0.4912590000000  0.4868230000000  0.5425530000000 1.0
C      1  0.4746560000000  0.3887090000000  0.5085900000000 1.0
C      1  0.5212520000000  0.5715080000000  0.5703510000000 1.0
C      1  0.5132730000000  0.5261670000000  0.5234320000000 1.0
C      1  0.4811620000000  0.4622940000000  0.5639860000000 1.0
C      1  0.4562230000000  0.5179040000000  0.4162960000000 1.0
C      1  0.4505750000000  0.5753760000000  0.5207300000000 1.0
C      1  0.4847760000000  0.5429140000000  0.4826850000000 1.0
C      1  0.4968170000000  0.5457450000000  0.5116820000000 1.0
C      1  0.5331990000000  0.5116420000000  0.4830400000000 1.0
C      1  0.5637500000000  0.4241420000000  0.4803910000000 1.0
C      1  0.4280850000000  0.4360360000000  0.5404040000000 1.0
C      1  0.4549120000000  0.5229610000000  0.5223950000000 1.0
C      1  0.5614080000000  0.5850150000000  0.4715520000000 1.0
C      1  0.4658210000000  0.4620750000000  0.4310420000000 1.0
C      1  0.4481210000000  0.5828500000000  0.4470680000000 1.0
C      1  0.5925000000000  0.4517170000000  0.5075230000000 1.0
C      1  0.4622460000000  0.5244830000000  0.4766540000000 1.0
C      1  0.5013080000000  0.5101230000000  0.4182160000000 1.0
C      1  0.4774150000000  0.5012580000000  0.4079020000000 1.0
C      1  0.5202460000000  0.5288080000000  0.4087090000000 1.0
C      1  0.4056640000000  0.5095620000000  0.4700000000000 1.0
C      1  0.4475880000000  0.4763590000000  0.5281620000000 1.0
C      1  0.4408240000000  0.4484430000000  0.4701730000000 1.0
C      1  0.4798390000000  0.4334660000000  0.5477330000000 1.0
C      1  0.5812080000000  0.5456780000000  0.4619570000000 1.0
C      1  0.5685000000000  0.4432240000000  0.5500390000000 1.0
C      1  0.4397010000000  0.5385600000000  0.5604900000000 1.0
C      1  0.5865680000000  0.4950850000000  0.4677520000000 1.0
C      1  0.4611540000000  0.5314010000000  0.5793220000000 1.0
C      1  0.4841800000000  0.4740480000000  0.4124040000000 1.0
C      1  0.4162690000000  0.5217190000000  0.4463450000000 1.0
C      1  0.4721210000000  0.5698870000000  0.4814440000000 1.0
C      1  0.4457970000000  0.5654960000000  0.5488390000000 1.0
C      1  0.4415940000000  0.5611260000000  0.4296140000000 1.0
C      1  0.5590400000000  0.4715110000000  0.4293050000000 1.0
C      1  0.4726850000000  0.5046210000000  0.5865900000000 1.0
C      1  0.5114220000000  0.5893740000000  0.5506980000000 1.0
C      1  0.5732960000000  0.4455640000000  0.4652280000000 1.0
C      1  0.5441000000000  0.5910210000000  0.4482150000000 1.0
C      1  0.4364210000000  0.4181740000000  0.5604920000000 1.0
C      1  0.4609100000000  0.4793270000000  0.5786330000000 1.0
C      1  0.5574170000000  0.4468840000000  0.4421300000000 1.0
C      1  0.4130700000000  0.5235610000000  0.4944890000000 1.0
C      1  0.4214440000000  0.5498290000000  0.4476160000000 1.0
C      1  0.4292820000000  0.5707310000000  0.4670770000000 1.0
C      1  0.4339750000000  0.4724890000000  0.5708020000000 1.0
C      1  0.5638900000000  0.5171580000000  0.4275260000000 1.0
C      1  0.5898450000000  0.4610230000000  0.5352680000000 1.0
C      1  0.5350380000000  0.4840940000000  0.4807780000000 1.0
C      1  0.4305670000000  0.5179790000000  0.5414940000000 1.0
C      1  0.4654410000000  0.4680950000000  0.4619660000000 1.0
C      1  0.5591360000000  0.4299370000000  0.5266540000000 1.0
C      1  0.4284710000000  0.4516570000000  0.4960840000000 1.0
C      1  0.5744400000000  0.4937550000000  0.4409230000000 1.0
C      1  0.5852400000000  0.5730070000000  0.4688410000000 1.0
C      1  0.5124430000000  0.4142070000000  0.4890180000000 1.0
C      1  0.5777300000000  0.4267540000000  0.5054030000000 1.0
C      1  0.5544900000000  0.4744880000000  0.5002120000000 1.0
C      1  0.5560200000000  0.5490550000000  0.5099980000000 1.0
C      1  0.5139890000000  0.4754870000000  0.4637400000000 1.0
C      1  0.5038140000000  0.3957920000000  0.5372910000000 1.0
C      1  0.4912720000000  0.4652100000000  0.4797320000000 1.0
C      1  0.4839520000000  0.5920500000000  0.5462610000000 1.0
C      1  0.5815260000000  0.4689000000000  0.4835840000000 1.0
C      1  0.4746350000000  0.3896200000000  0.5381200000000 1.0
C      1  0.5428190000000  0.4691800000000  0.5893180000000 1.0
C      1  0.5417280000000  0.5094020000000  0.4109450000000 1.0
C      1  0.5537220000000  0.4978570000000  0.5216520000000 1.0
C      1  0.5166440000000  0.4521520000000  0.5168190000000 1.0
C      1  0.4280200000000  0.4449460000000  0.5665440000000 1.0
C      1  0.5024300000000  0.5025140000000  0.5920530000000 1.0
END
