TITL C-237550-13-9 -1020.18588490613 125000 -311.399074263925 0 0 46 (C2) n - 1
REM
REM in /rds/project/t2_vol4/rds-t2-cs072/BORA/CARBON/from-Arr/AIRSS/Generating-Clusters/GAP-ML-2020/Higher-Symm/SD-CG/HFTN-CG
REM
REM
REM
REM
REM
REM ./C.cell (b20cbc046b6831c77cfcea5457e17084)
REM AIRSS Version 0.9.1 bugfix July 2018 build 013d7b7c2542+ Fri, 06 Jul 2018 19:26:36 +0100
REM compiler GCC version 9.3.0
REM options -cpp -mtune=generic -march=x86-64 -g -O0
REM seed -666434708 -557933674 23172667 -2015421050 286343527 1508956976 -2137848598 -593448948 673476366 -1573314176 688084783 -37157264 -1605946744 533379980 -2094538414 -2081035925 -294464796 -1293791707 1312402855 34482646 743583688 454745146 -80760967 -232933742 -1015739708 -74009316 1354630597 925182600 1237110185 1569129878 1361409583 -1374082891 111903580
REM
CELL 1.54180   50.00000   50.00000   50.00000   90.00000   90.00000   90.00000
LATT -1
SFAC C  
C      1  0.5337030000000  0.5447310000000  0.5180730000000 1.0
C      1  0.4664010000000  0.5447950000000  0.4818930000000 1.0
C      1  0.4642350000000  0.4538030000000  0.4650490000000 1.0
C      1  0.5356570000000  0.4537470000000  0.5349870000000 1.0
C      1  0.4846460000000  0.5305510000000  0.5409900000000 1.0
C      1  0.5154250000000  0.5304830000000  0.4589870000000 1.0
C      1  0.5128310000000  0.4895740000000  0.5018870000000 1.0
C      1  0.4871450000000  0.4896030000000  0.4981200000000 1.0
C      1  0.5645560000000  0.5004060000000  0.5370620000000 1.0
C      1  0.4354440000000  0.5005280000000  0.4629380000000 1.0
C      1  0.4721860000000  0.4984460000000  0.4746360000000 1.0
C      1  0.5278100000000  0.4984020000000  0.5253640000000 1.0
C      1  0.4475720000000  0.4840680000000  0.5197890000000 1.0
C      1  0.5523910000000  0.4839310000000  0.4802230000000 1.0
C      1  0.5140730000000  0.5024110000000  0.4521470000000 1.0
C      1  0.4859330000000  0.5024810000000  0.5478510000000 1.0
C      1  0.5356550000000  0.4458120000000  0.5070800000000 1.0
C      1  0.4642200000000  0.4458900000000  0.4929620000000 1.0
C      1  0.4440190000000  0.4657300000000  0.4992950000000 1.0
C      1  0.5559010000000  0.4656000000000  0.5007310000000 1.0
C      1  0.5133870000000  0.4566660000000  0.4663510000000 1.0
C      1  0.4865130000000  0.4567240000000  0.5336820000000 1.0
C      1  0.5057600000000  0.5484350000000  0.5296850000000 1.0
C      1  0.4943520000000  0.5484250000000  0.4702780000000 1.0
C      1  0.5580430000000  0.5107300000000  0.4890490000000 1.0
C      1  0.4419820000000  0.5108730000000  0.5109420000000 1.0
C      1  0.4508870000000  0.5191270000000  0.4816370000000 1.0
C      1  0.5491570000000  0.5190270000000  0.5183480000000 1.0
C      1  0.4662540000000  0.5582180000000  0.5075950000000 1.0
C      1  0.5338810000000  0.5581330000000  0.4923610000000 1.0
C      1  0.5112910000000  0.4624220000000  0.5456500000000 1.0
C      1  0.4886220000000  0.4624130000000  0.4543790000000 1.0
C      1  0.5407770000000  0.5411420000000  0.4694620000000 1.0
C      1  0.4593190000000  0.5412600000000  0.5305070000000 1.0
C      1  0.4691820000000  0.4802400000000  0.5385280000000 1.0
C      1  0.5307720000000  0.4801380000000  0.4614870000000 1.0
C      1  0.4352340000000  0.5291350000000  0.5300930000000 1.0
C      1  0.5648330000000  0.5289620000000  0.4698840000000 1.0
C      1  0.5119890000000  0.4911750000000  0.5491770000000 1.0
C      1  0.4879910000000  0.4911650000000  0.4508300000000 1.0
C      1  0.4874700000000  0.4434410000000  0.5078910000000 1.0
C      1  0.5123990000000  0.4434060000000  0.4921530000000 1.0
C      1  0.5074630000000  0.5680500000000  0.4876110000000 1.0
C      1  0.4926950000000  0.5680770000000  0.5123360000000 1.0
C      1  0.4450670000000  0.4758630000000  0.4711280000000 1.0
C      1  0.5548770000000  0.4757580000000  0.5288910000000 1.0
END
