TITL C-234707-434-9 -34.9520738530193 125000 -700.84559383793 0 0 100 (C1) n - 1
REM
REM in /rds/project/t2_vol4/rds-t2-cs072/BORA/CARBON/from-Arr/AIRSS/Generating-Clusters/GAP-ML-2020/Higher-Symm/SD-CG/HFTN-CG
REM
REM
REM
REM
REM
REM ./C.cell (b20cbc046b6831c77cfcea5457e17084)
REM AIRSS Version 0.9.1 bugfix July 2018 build 013d7b7c2542+ Fri, 06 Jul 2018 19:26:36 +0100
REM compiler GCC version 9.3.0
REM options -cpp -mtune=generic -march=x86-64 -g -O0
REM seed -1110113146 -1862830347 48141338 2056694148 1861376955 127469594 122210629 -686490450 1494091885 1526740524 1369575999 133235916 -239527112 -1042967979 693634877 1855734083 -1355718372 -1268391168 1948572079 -1393934148 417442649 1440890285 1670684020 -790093053 -255830885 739232992 841840338 -1497045209 358033292 1824655573 1198973686 -268605433 -1467712729
REM
CELL 1.54180   50.00000   50.00000   50.00000   90.00000   90.00000   90.00000
LATT -1
SFAC C  
C      1  0.4542830000000  0.5554570000000  0.5419390000000 1.0
C      1  0.5313410000000  0.4664520000000  0.5716230000000 1.0
C      1  0.4439040000000  0.4551310000000  0.4487980000000 1.0
C      1  0.5753580000000  0.5041640000000  0.4698230000000 1.0
C      1  0.5256310000000  0.4441440000000  0.4382250000000 1.0
C      1  0.5081180000000  0.5523070000000  0.5833620000000 1.0
C      1  0.4391730000000  0.5448580000000  0.4552590000000 1.0
C      1  0.5439630000000  0.5498150000000  0.4956400000000 1.0
C      1  0.5602990000000  0.4328900000000  0.4968550000000 1.0
C      1  0.5070540000000  0.5011850000000  0.5901410000000 1.0
C      1  0.4999830000000  0.5119130000000  0.4151580000000 1.0
C      1  0.4607340000000  0.4470030000000  0.5417160000000 1.0
C      1  0.5294730000000  0.5237060000000  0.4812240000000 1.0
C      1  0.5665510000000  0.5337720000000  0.5110590000000 1.0
C      1  0.4968600000000  0.4435760000000  0.4337060000000 1.0
C      1  0.4849180000000  0.5936220000000  0.5144060000000 1.0
C      1  0.4653430000000  0.4758300000000  0.4889000000000 1.0
C      1  0.5554890000000  0.4335490000000  0.5453740000000 1.0
C      1  0.5304120000000  0.4238810000000  0.4582130000000 1.0
C      1  0.4614840000000  0.4867100000000  0.5732880000000 1.0
C      1  0.5705520000000  0.5057170000000  0.5530320000000 1.0
C      1  0.5211120000000  0.4136940000000  0.5195350000000 1.0
C      1  0.5420200000000  0.5354880000000  0.5567660000000 1.0
C      1  0.5406750000000  0.4767640000000  0.4818540000000 1.0
C      1  0.4333380000000  0.5197290000000  0.4420480000000 1.0
C      1  0.5283550000000  0.5608570000000  0.5643680000000 1.0
C      1  0.4719690000000  0.4857990000000  0.4631220000000 1.0
C      1  0.4624880000000  0.5813660000000  0.5005610000000 1.0
C      1  0.4776870000000  0.5111860000000  0.5231110000000 1.0
C      1  0.5027830000000  0.4089690000000  0.4969380000000 1.0
C      1  0.4833330000000  0.5564510000000  0.5363350000000 1.0
C      1  0.4921610000000  0.4691830000000  0.5014250000000 1.0
C      1  0.4966870000000  0.5505610000000  0.5106110000000 1.0
C      1  0.4745560000000  0.5232000000000  0.4204890000000 1.0
C      1  0.4837150000000  0.4653400000000  0.4210340000000 1.0
C      1  0.5630290000000  0.4612310000000  0.4960890000000 1.0
C      1  0.5514570000000  0.5121610000000  0.5737130000000 1.0
C      1  0.4603880000000  0.4766600000000  0.4355590000000 1.0
C      1  0.5117420000000  0.4710490000000  0.4808090000000 1.0
C      1  0.5395850000000  0.5182270000000  0.4499420000000 1.0
C      1  0.4965530000000  0.4878720000000  0.5215220000000 1.0
C      1  0.5542780000000  0.4587670000000  0.5550960000000 1.0
C      1  0.4364920000000  0.4965010000000  0.5434630000000 1.0
C      1  0.4934970000000  0.5838890000000  0.5398060000000 1.0
C      1  0.5201150000000  0.5272040000000  0.4286300000000 1.0
C      1  0.5025350000000  0.4589800000000  0.5705460000000 1.0
C      1  0.4432470000000  0.4313530000000  0.4907700000000 1.0
C      1  0.4985480000000  0.4204870000000  0.5369010000000 1.0
C      1  0.4527990000000  0.5056090000000  0.4274730000000 1.0
C      1  0.5716400000000  0.4798380000000  0.5416710000000 1.0
C      1  0.4494940000000  0.4712840000000  0.5516170000000 1.0
C      1  0.5047720000000  0.4147910000000  0.4691020000000 1.0
C      1  0.5528410000000  0.4225170000000  0.4727800000000 1.0
C      1  0.5392260000000  0.5014230000000  0.4983710000000 1.0
C      1  0.5333680000000  0.4924120000000  0.5832820000000 1.0
C      1  0.4580560000000  0.4340470000000  0.4627260000000 1.0
C      1  0.5001230000000  0.5281670000000  0.5935460000000 1.0
C      1  0.4182810000000  0.5104140000000  0.4657780000000 1.0
C      1  0.5084620000000  0.5520240000000  0.4355600000000 1.0
C      1  0.5012940000000  0.5828350000000  0.4716360000000 1.0
C      1  0.4988370000000  0.4925950000000  0.4657370000000 1.0
C      1  0.5188850000000  0.5203300000000  0.5426800000000 1.0
C      1  0.5753250000000  0.4800850000000  0.5133990000000 1.0
C      1  0.4569120000000  0.4299070000000  0.5168750000000 1.0
C      1  0.5612120000000  0.5392980000000  0.4521060000000 1.0
C      1  0.4619270000000  0.5611200000000  0.4515760000000 1.0
C      1  0.5083970000000  0.5890890000000  0.4983530000000 1.0
C      1  0.5697820000000  0.5063070000000  0.4988230000000 1.0
C      1  0.4876210000000  0.4408410000000  0.5533980000000 1.0
C      1  0.4913260000000  0.5285130000000  0.5455600000000 1.0
C      1  0.4868230000000  0.5269720000000  0.4994440000000 1.0
C      1  0.5028950000000  0.4840780000000  0.4109120000000 1.0
C      1  0.4208490000000  0.4862260000000  0.4781170000000 1.0
C      1  0.4840950000000  0.4272020000000  0.4540830000000 1.0
C      1  0.5205490000000  0.5682690000000  0.4558630000000 1.0
C      1  0.5659970000000  0.5307010000000  0.5388440000000 1.0
C      1  0.4444670000000  0.5613330000000  0.5162070000000 1.0
C      1  0.4258310000000  0.5349680000000  0.4795440000000 1.0
C      1  0.4535930000000  0.5388410000000  0.5656370000000 1.0
C      1  0.4464970000000  0.5109510000000  0.5663190000000 1.0
C      1  0.5239800000000  0.5669810000000  0.5118400000000 1.0
C      1  0.5223790000000  0.4992940000000  0.5237690000000 1.0
C      1  0.4881660000000  0.4815390000000  0.5813430000000 1.0
C      1  0.4210610000000  0.4608840000000  0.4658310000000 1.0
C      1  0.5289950000000  0.4776100000000  0.4144150000000 1.0
C      1  0.5513740000000  0.4893010000000  0.4558410000000 1.0
C      1  0.5215010000000  0.5758760000000  0.5414180000000 1.0
C      1  0.4444230000000  0.5089330000000  0.5181900000000 1.0
C      1  0.5434580000000  0.4677350000000  0.4342770000000 1.0
C      1  0.5013660000000  0.5181520000000  0.4782970000000 1.0
C      1  0.5466620000000  0.5601110000000  0.4673310000000 1.0
C      1  0.4412240000000  0.4872980000000  0.4987080000000 1.0
C      1  0.4803210000000  0.4144520000000  0.5152140000000 1.0
C      1  0.4342070000000  0.5364560000000  0.5062600000000 1.0
C      1  0.4798990000000  0.5492420000000  0.4325580000000 1.0
C      1  0.4179290000000  0.4401460000000  0.4842280000000 1.0
C      1  0.4722600000000  0.5776930000000  0.4725230000000 1.0
C      1  0.5848680000000  0.5259210000000  0.4559830000000 1.0
C      1  0.4820290000000  0.5386740000000  0.5743140000000 1.0
C      1  0.5484570000000  0.4220610000000  0.5218620000000 1.0
END
