TITL C-235481-3760-8 -27.7217867563799 125000 -539.742087800805 0 0 80 (C2v) n - 1
REM
REM in /rds/project/t2_vol4/rds-t2-cs072/BORA/CARBON/from-Arr/AIRSS/Generating-Clusters/GAP-ML-2020/Higher-Symm/SD-CG/HFTN-CG
REM
REM
REM
REM
REM
REM ./C.cell (b20cbc046b6831c77cfcea5457e17084)
REM AIRSS Version 0.9.1 bugfix July 2018 build 013d7b7c2542+ Fri, 06 Jul 2018 19:26:36 +0100
REM compiler GCC version 9.3.0
REM options -cpp -mtune=generic -march=x86-64 -g -O0
REM seed -740303822 874698587 1251588684 27593127 447256153 589353809 -1215132846 -537157911 -2147163162 606291731 896939335 324568432 1374069523 -748246662 847969771 1659990855 -1342335844 -1275452744 -1610699368 766871950 1300317793 730342734 -924557668 -1722563483 -510954203 2090335033 -942507019 1174469441 -612764250 -2099024166 -1014104348 -387755448 48115404
REM
CELL 1.54180   50.00000   50.00000   50.00000   90.00000   90.00000   90.00000
LATT -1
SFAC C  
C      1  0.4444980000000  0.5251570000000  0.4757510000000 1.0
C      1  0.4444920000000  0.4746000000000  0.5236970000000 1.0
C      1  0.4445060000000  0.4745980000000  0.4757530000000 1.0
C      1  0.4444840000000  0.5251590000000  0.5236950000000 1.0
C      1  0.4340760000000  0.4852930000000  0.5506590000000 1.0
C      1  0.4341020000000  0.5144610000000  0.4487820000000 1.0
C      1  0.4340710000000  0.5144660000000  0.5506580000000 1.0
C      1  0.4341070000000  0.4852870000000  0.4487840000000 1.0
C      1  0.5444710000000  0.5294510000000  0.4576970000000 1.0
C      1  0.5444540000000  0.4703380000000  0.5418120000000 1.0
C      1  0.5444800000000  0.4703340000000  0.4577000000000 1.0
C      1  0.5444450000000  0.5294550000000  0.5418090000000 1.0
C      1  0.5258210000000  0.5419510000000  0.5605770000000 1.0
C      1  0.5258710000000  0.4578320000000  0.4389210000000 1.0
C      1  0.5258340000000  0.4578380000000  0.5605810000000 1.0
C      1  0.5258580000000  0.5419450000000  0.4389160000000 1.0
C      1  0.4485440000000  0.5288500000000  0.5689700000000 1.0
C      1  0.4485950000000  0.4709090000000  0.4304810000000 1.0
C      1  0.4485530000000  0.4709160000000  0.5689730000000 1.0
C      1  0.4485860000000  0.5288420000000  0.4304780000000 1.0
C      1  0.4539760000000  0.4489250000000  0.5145060000000 1.0
C      1  0.4539690000000  0.5508350000000  0.4849480000000 1.0
C      1  0.4539600000000  0.5508370000000  0.5145000000000 1.0
C      1  0.4539850000000  0.4489230000000  0.4849530000000 1.0
C      1  0.4984980000000  0.4740300000000  0.5229120000000 1.0
C      1  0.4985030000000  0.5257440000000  0.4765700000000 1.0
C      1  0.4984890000000  0.5257470000000  0.5229090000000 1.0
C      1  0.4985120000000  0.4740280000000  0.4765720000000 1.0
C      1  0.5217990000000  0.5633960000000  0.5426870000000 1.0
C      1  0.5218450000000  0.4363860000000  0.4568080000000 1.0
C      1  0.5218190000000  0.4363910000000  0.5426930000000 1.0
C      1  0.5218250000000  0.5633910000000  0.4568020000000 1.0
C      1  0.5252480000000  0.5137820000000  0.5252620000000 1.0
C      1  0.5252680000000  0.4860010000000  0.4742350000000 1.0
C      1  0.5252520000000  0.4860040000000  0.5252640000000 1.0
C      1  0.5252630000000  0.5137790000000  0.4742340000000 1.0
C      1  0.5440090000000  0.4312420000000  0.5247230000000 1.0
C      1  0.5440030000000  0.5685470000000  0.4747860000000 1.0
C      1  0.5439870000000  0.5685490000000  0.5247160000000 1.0
C      1  0.5440250000000  0.4312400000000  0.4747930000000 1.0
C      1  0.5030750000000  0.4732390000000  0.5709060000000 1.0
C      1  0.5031100000000  0.5265370000000  0.4285780000000 1.0
C      1  0.5030660000000  0.5265450000000  0.5709030000000 1.0
C      1  0.5031180000000  0.4732310000000  0.4285810000000 1.0
C      1  0.4983980000000  0.4407450000000  0.4741040000000 1.0
C      1  0.4983640000000  0.5590290000000  0.5253770000000 1.0
C      1  0.4983790000000  0.5590260000000  0.4740980000000 1.0
C      1  0.4983830000000  0.4407480000000  0.5253830000000 1.0
C      1  0.4740060000000  0.4643370000000  0.5587560000000 1.0
C      1  0.4740310000000  0.5354300000000  0.4407100000000 1.0
C      1  0.4739950000000  0.5354360000000  0.5587520000000 1.0
C      1  0.4740420000000  0.4643300000000  0.4407140000000 1.0
C      1  0.4717920000000  0.5587350000000  0.4636570000000 1.0
C      1  0.4717890000000  0.4410310000000  0.5358080000000 1.0
C      1  0.4718110000000  0.4410270000000  0.4636630000000 1.0
C      1  0.4717700000000  0.5587390000000  0.5358010000000 1.0
C      1  0.4736390000000  0.4853200000000  0.4639380000000 1.0
C      1  0.4736120000000  0.5144460000000  0.5355280000000 1.0
C      1  0.4736340000000  0.5144420000000  0.4639370000000 1.0
C      1  0.4736170000000  0.4853240000000  0.5355290000000 1.0
C      1  0.5611160000000  0.5461820000000  0.4746640000000 1.0
C      1  0.5611150000000  0.4536120000000  0.5248550000000 1.0
C      1  0.5611310000000  0.4536100000000  0.4746690000000 1.0
C      1  0.5611000000000  0.5461850000000  0.5248500000000 1.0
C      1  0.5062390000000  0.4998840000000  0.4220290000000 1.0
C      1  0.5061920000000  0.4998920000000  0.5774570000000 1.0
C      1  0.5338680000000  0.5767770000000  0.4997470000000 1.0
C      1  0.5338930000000  0.4230090000000  0.4997550000000 1.0
C      1  0.5898690000000  0.5129720000000  0.4997680000000 1.0
C      1  0.5898730000000  0.4868320000000  0.4997690000000 1.0
C      1  0.4301440000000  0.5156550000000  0.4997190000000 1.0
C      1  0.4301490000000  0.4840970000000  0.4997200000000 1.0
C      1  0.4902020000000  0.5135330000000  0.4997370000000 1.0
C      1  0.4902060000000  0.4862380000000  0.4997390000000 1.0
C      1  0.5737930000000  0.5362190000000  0.4997620000000 1.0
C      1  0.5738050000000  0.4635790000000  0.4997650000000 1.0
C      1  0.5063100000000  0.5710550000000  0.4997390000000 1.0
C      1  0.5063330000000  0.4287210000000  0.4997470000000 1.0
C      1  0.5349100000000  0.4998930000000  0.4997520000000 1.0
C      1  0.4060280000000  0.4998720000000  0.4997120000000 1.0
END
