TITL C-235505-3651-10 56.3444134425715 125000 -569.623886783769 0 0 83 (C1) n - 1
REM
REM in /rds/project/t2_vol4/rds-t2-cs072/BORA/CARBON/from-Arr/AIRSS/Generating-Clusters/GAP-ML-2020/Higher-Symm/SD-CG/HFTN-CG
REM
REM
REM
REM
REM
REM ./C.cell (b20cbc046b6831c77cfcea5457e17084)
REM AIRSS Version 0.9.1 bugfix July 2018 build 013d7b7c2542+ Fri, 06 Jul 2018 19:26:36 +0100
REM compiler GCC version 9.3.0
REM options -cpp -mtune=generic -march=x86-64 -g -O0
REM seed 484461184 1220278382 924634826 405237128 69259419 1930370596 -601649703 1721819962 873279561 527085116 -1627693708 1677754294 -1372567124 610493506 -776099799 1682178331 -2067411064 2085357587 1698385823 -638773735 1691899895 -1918560140 124160984 221531936 -1377556912 1350099821 -227378039 -1234862641 1556953007 -1773959754 -1474982762 569145365 313134456
REM
CELL 1.54180   50.00000   50.00000   50.00000   90.00000   90.00000   90.00000
LATT -1
SFAC C  
C      1  0.5355440000000  0.4270700000000  0.5103080000000 1.0
C      1  0.5430410000000  0.5609310000000  0.5089370000000 1.0
C      1  0.5216590000000  0.5133120000000  0.4987450000000 1.0
C      1  0.5395830000000  0.4669450000000  0.4468470000000 1.0
C      1  0.5222020000000  0.4166370000000  0.5324980000000 1.0
C      1  0.4711630000000  0.4930790000000  0.5449140000000 1.0
C      1  0.5253320000000  0.4226850000000  0.4577110000000 1.0
C      1  0.4840330000000  0.4547220000000  0.5074230000000 1.0
C      1  0.5296490000000  0.4724570000000  0.5214080000000 1.0
C      1  0.4263360000000  0.5074500000000  0.4899590000000 1.0
C      1  0.4491900000000  0.4520250000000  0.4776280000000 1.0
C      1  0.4893630000000  0.5068130000000  0.4210030000000 1.0
C      1  0.4174060000000  0.5336650000000  0.4840740000000 1.0
C      1  0.5500130000000  0.4518390000000  0.5163620000000 1.0
C      1  0.5168960000000  0.5701890000000  0.5134880000000 1.0
C      1  0.4354420000000  0.5492890000000  0.5263600000000 1.0
C      1  0.5735870000000  0.4742270000000  0.5520300000000 1.0
C      1  0.5345390000000  0.4892400000000  0.4308490000000 1.0
C      1  0.5353310000000  0.4996090000000  0.5842800000000 1.0
C      1  0.5140030000000  0.4840620000000  0.5958070000000 1.0
C      1  0.5654850000000  0.5117030000000  0.4609010000000 1.0
C      1  0.5468000000000  0.5139050000000  0.4386060000000 1.0
C      1  0.4753530000000  0.4514750000000  0.4389690000000 1.0
C      1  0.4833630000000  0.5466200000000  0.4501460000000 1.0
C      1  0.5005390000000  0.4577650000000  0.4285760000000 1.0
C      1  0.4560680000000  0.5520850000000  0.5477400000000 1.0
C      1  0.4828540000000  0.4308440000000  0.5637920000000 1.0
C      1  0.5586630000000  0.5202980000000  0.5290450000000 1.0
C      1  0.5026440000000  0.5654380000000  0.4657150000000 1.0
C      1  0.5077660000000  0.4851270000000  0.4217060000000 1.0
C      1  0.4776210000000  0.4977510000000  0.5132080000000 1.0
C      1  0.5442780000000  0.4730730000000  0.4738020000000 1.0
C      1  0.4557030000000  0.5152910000000  0.5037690000000 1.0
C      1  0.5528830000000  0.4873210000000  0.5634350000000 1.0
C      1  0.5733050000000  0.4677710000000  0.5235110000000 1.0
C      1  0.4530630000000  0.5424780000000  0.4527610000000 1.0
C      1  0.4539600000000  0.4711180000000  0.5514860000000 1.0
C      1  0.5037520000000  0.4610150000000  0.5332130000000 1.0
C      1  0.5226400000000  0.4448830000000  0.4416370000000 1.0
C      1  0.4709240000000  0.4547660000000  0.5695850000000 1.0
C      1  0.5777340000000  0.4882820000000  0.5026300000000 1.0
C      1  0.4997900000000  0.5321050000000  0.4301320000000 1.0
C      1  0.5050800000000  0.4323360000000  0.5466350000000 1.0
C      1  0.5395090000000  0.4972580000000  0.5386770000000 1.0
C      1  0.5301340000000  0.5489010000000  0.5551190000000 1.0
C      1  0.5191360000000  0.4249040000000  0.4846480000000 1.0
C      1  0.4720820000000  0.4396480000000  0.4658690000000 1.0
C      1  0.4884120000000  0.5244380000000  0.4706970000000 1.0
C      1  0.5273240000000  0.5246770000000  0.5720480000000 1.0
C      1  0.5145910000000  0.5086960000000  0.5506010000000 1.0
C      1  0.4389500000000  0.4709860000000  0.4574690000000 1.0
C      1  0.5677440000000  0.5308100000000  0.4815950000000 1.0
C      1  0.4955260000000  0.5299440000000  0.5404080000000 1.0
C      1  0.4458760000000  0.5155260000000  0.4445990000000 1.0
C      1  0.4439990000000  0.5627040000000  0.5012350000000 1.0
C      1  0.4938350000000  0.4742030000000  0.5807130000000 1.0
C      1  0.5507140000000  0.5536190000000  0.4822550000000 1.0
C      1  0.4650600000000  0.5236160000000  0.5491390000000 1.0
C      1  0.4385140000000  0.4703910000000  0.5268140000000 1.0
C      1  0.4973800000000  0.4842540000000  0.5535990000000 1.0
C      1  0.4914720000000  0.4343260000000  0.4871310000000 1.0
C      1  0.4770230000000  0.5338470000000  0.4966280000000 1.0
C      1  0.4313800000000  0.4976650000000  0.4626830000000 1.0
C      1  0.4978910000000  0.5737380000000  0.4924810000000 1.0
C      1  0.5055250000000  0.5592130000000  0.5400440000000 1.0
C      1  0.5223010000000  0.4841040000000  0.4947160000000 1.0
C      1  0.4915680000000  0.4811790000000  0.4923820000000 1.0
C      1  0.4772630000000  0.5666360000000  0.5356640000000 1.0
C      1  0.4728190000000  0.5657600000000  0.5060660000000 1.0
C      1  0.4970160000000  0.5198230000000  0.5140210000000 1.0
C      1  0.5684520000000  0.4868320000000  0.4758220000000 1.0
C      1  0.4259620000000  0.4955700000000  0.5193140000000 1.0
C      1  0.5488420000000  0.5460200000000  0.5331500000000 1.0
C      1  0.5282780000000  0.5526630000000  0.4624430000000 1.0
C      1  0.4841500000000  0.4946530000000  0.4686420000000 1.0
C      1  0.4401940000000  0.5212210000000  0.5288810000000 1.0
C      1  0.4623150000000  0.4990590000000  0.4273840000000 1.0
C      1  0.5741730000000  0.5161770000000  0.5062670000000 1.0
C      1  0.4532870000000  0.4551210000000  0.5061510000000 1.0
C      1  0.4562170000000  0.4717700000000  0.4347840000000 1.0
C      1  0.5273780000000  0.5351470000000  0.4388410000000 1.0
C      1  0.5167310000000  0.5240820000000  0.4737430000000 1.0
C      1  0.4363930000000  0.5511210000000  0.4756420000000 1.0
END
