TITL C-239815-2138-2 -0.217224716613071 125000 -476.259882453802 0 0 68 (Cs) n - 1
REM
REM in /rds/project/t2_vol4/rds-t2-cs072/BORA/CARBON/from-Arr/AIRSS/Generating-Clusters/GAP-ML-2020/Higher-Symm/SD-CG/HFTN-CG
REM
REM
REM
REM
REM
REM ./C.cell (b20cbc046b6831c77cfcea5457e17084)
REM AIRSS Version 0.9.1 bugfix July 2018 build 013d7b7c2542+ Fri, 06 Jul 2018 19:26:36 +0100
REM compiler GCC version 9.3.0
REM options -cpp -mtune=generic -march=x86-64 -g -O0
REM seed 168819201 1768356782 1864408489 -955482038 374032648 1783499272 -1751787739 -160037835 -417408737 780214105 498404396 -1523293212 1009272109 -2136191852 -1568884495 -918809792 -244046939 1982625007 -1643181503 -1849304766 1627881242 -439186327 53281834 1923511420 2039397472 832491187 843341012 496857867 -1934722436 473891192 -1020101566 -225267633 -614719805
REM
CELL 1.54180   50.00000   50.00000   50.00000   90.00000   90.00000   90.00000
LATT -1
SFAC C  
C      1  0.4248370000000  0.4903780000000  0.4887740000000 1.0
C      1  0.5746270000000  0.4891420000000  0.4865430000000 1.0
C      1  0.5304320000000  0.5105850000000  0.5629450000000 1.0
C      1  0.4716350000000  0.5110700000000  0.5638210000000 1.0
C      1  0.4726690000000  0.4488620000000  0.5318910000000 1.0
C      1  0.5274220000000  0.4484100000000  0.5310760000000 1.0
C      1  0.4730590000000  0.5547870000000  0.5451740000000 1.0
C      1  0.5291750000000  0.5543240000000  0.5443380000000 1.0
C      1  0.4433750000000  0.5362090000000  0.5324230000000 1.0
C      1  0.5581550000000  0.5352620000000  0.5307130000000 1.0
C      1  0.5562230000000  0.5576200000000  0.5475000000000 1.0
C      1  0.4461740000000  0.5585280000000  0.5491390000000 1.0
C      1  0.4697860000000  0.4385510000000  0.4843980000000 1.0
C      1  0.5287180000000  0.4380650000000  0.4835200000000 1.0
C      1  0.5362510000000  0.4639600000000  0.5712430000000 1.0
C      1  0.4652980000000  0.4645450000000  0.5723000000000 1.0
C      1  0.5273970000000  0.4977270000000  0.4296700000000 1.0
C      1  0.4704860000000  0.4981970000000  0.4305180000000 1.0
C      1  0.4701500000000  0.4402750000000  0.4562510000000 1.0
C      1  0.5275440000000  0.4398010000000  0.4553960000000 1.0
C      1  0.4326260000000  0.5310870000000  0.4826370000000 1.0
C      1  0.5673310000000  0.5299750000000  0.4806300000000 1.0
C      1  0.5274420000000  0.5395400000000  0.4516040000000 1.0
C      1  0.4717850000000  0.5399990000000  0.4524330000000 1.0
C      1  0.4839060000000  0.4753490000000  0.4222440000000 1.0
C      1  0.5133620000000  0.4751060000000  0.4218060000000 1.0
C      1  0.5588080000000  0.4817660000000  0.5095490000000 1.0
C      1  0.4412100000000  0.4827360000000  0.5113010000000 1.0
C      1  0.4868870000000  0.5632280000000  0.5208250000000 1.0
C      1  0.5147680000000  0.5629980000000  0.5204090000000 1.0
C      1  0.5128010000000  0.5007440000000  0.4924190000000 1.0
C      1  0.4869920000000  0.5009570000000  0.4928030000000 1.0
C      1  0.4508310000000  0.4596200000000  0.5496150000000 1.0
C      1  0.5499520000000  0.4588020000000  0.5481390000000 1.0
C      1  0.5536730000000  0.5427650000000  0.5017920000000 1.0
C      1  0.4471170000000  0.5436440000000  0.5033790000000 1.0
C      1  0.5628060000000  0.4829180000000  0.5374340000000 1.0
C      1  0.4380630000000  0.4839470000000  0.5392920000000 1.0
C      1  0.4848950000000  0.4845920000000  0.5640680000000 1.0
C      1  0.5167500000000  0.4843290000000  0.5635940000000 1.0
C      1  0.5130480000000  0.4475860000000  0.4327290000000 1.0
C      1  0.4840920000000  0.4478240000000  0.4331600000000 1.0
C      1  0.4478350000000  0.5102400000000  0.5480020000000 1.0
C      1  0.5537340000000  0.5093660000000  0.5464240000000 1.0
C      1  0.5147970000000  0.4755270000000  0.5318620000000 1.0
C      1  0.4857570000000  0.4757670000000  0.5322940000000 1.0
C      1  0.4844030000000  0.4355360000000  0.5095130000000 1.0
C      1  0.5148080000000  0.4352850000000  0.5090600000000 1.0
C      1  0.4705290000000  0.4887400000000  0.5104390000000 1.0
C      1  0.5295790000000  0.4882530000000  0.5095590000000 1.0
C      1  0.5893450000000  0.5124640000000  0.4846040000000 1.0
C      1  0.4104540000000  0.5139400000000  0.4872690000000 1.0
C      1  0.5613000000000  0.4785000000000  0.4629970000000 1.0
C      1  0.4372790000000  0.4795230000000  0.4648440000000 1.0
C      1  0.5151920000000  0.5346270000000  0.5602250000000 1.0
C      1  0.4871820000000  0.5348580000000  0.5606430000000 1.0
C      1  0.5131110000000  0.5225960000000  0.4334230000000 1.0
C      1  0.4852860000000  0.5228250000000  0.4338380000000 1.0
C      1  0.4854960000000  0.5553130000000  0.4720680000000 1.0
C      1  0.5145760000000  0.5550730000000  0.4716350000000 1.0
C      1  0.5507500000000  0.4991330000000  0.4460870000000 1.0
C      1  0.4476600000000  0.4999840000000  0.4476230000000 1.0
C      1  0.4474340000000  0.5268310000000  0.4585950000000 1.0
C      1  0.5517450000000  0.5259700000000  0.4570410000000 1.0
C      1  0.5292440000000  0.5571010000000  0.4965590000000 1.0
C      1  0.4716120000000  0.5575770000000  0.4974180000000 1.0
C      1  0.5471890000000  0.4541860000000  0.4685270000000 1.0
C      1  0.4511450000000  0.4549780000000  0.4699580000000 1.0
END
