TITL C-237571-9926-6 0.109076071398384 125000 -474.663866921135 0 0 70 (C1) n - 1
REM
REM in /rds/project/t2_vol4/rds-t2-cs072/BORA/CARBON/from-Arr/AIRSS/Generating-Clusters/GAP-ML-2020/Higher-Symm/SD-CG/HFTN-CG
REM
REM
REM
REM
REM
REM ./C.cell (b20cbc046b6831c77cfcea5457e17084)
REM AIRSS Version 0.9.1 bugfix July 2018 build 013d7b7c2542+ Fri, 06 Jul 2018 19:26:36 +0100
REM compiler GCC version 9.3.0
REM options -cpp -mtune=generic -march=x86-64 -g -O0
REM seed -1598853419 -743142550 -841091554 -1717328603 -1204270442 -1772704598 -1407808249 -559685075 817224008 -606528148 1962184317 552379879 -613140049 -717459952 -172116986 -2094095083 1254163520 1827552133 1857115040 2142095560 -736993274 -316818328 -2047606212 -45531104 578856281 967669106 -1242078214 -1292362939 215789629 -1373865235 442683820 504673233 -1438641372
REM
CELL 1.54180   50.00000   50.00000   50.00000   90.00000   90.00000   90.00000
LATT -1
SFAC C  
C      1  0.4899830000000  0.4434530000000  0.4397620000000 1.0
C      1  0.4688870000000  0.4481770000000  0.4238500000000 1.0
C      1  0.4601850000000  0.4722640000000  0.4342330000000 1.0
C      1  0.4681530000000  0.4964120000000  0.4230810000000 1.0
C      1  0.4815850000000  0.5427370000000  0.4451680000000 1.0
C      1  0.5012410000000  0.5570060000000  0.4335810000000 1.0
C      1  0.5227790000000  0.5433760000000  0.4444020000000 1.0
C      1  0.5376530000000  0.5234990000000  0.4325140000000 1.0
C      1  0.5380690000000  0.4976330000000  0.4436370000000 1.0
C      1  0.5354090000000  0.4715390000000  0.4324530000000 1.0
C      1  0.5179980000000  0.4535840000000  0.4421320000000 1.0
C      1  0.4769820000000  0.5478350000000  0.4735840000000 1.0
C      1  0.5009510000000  0.5530350000000  0.4874280000000 1.0
C      1  0.5242880000000  0.5442180000000  0.4737590000000 1.0
C      1  0.5384070000000  0.5234110000000  0.4850580000000 1.0
C      1  0.5376260000000  0.4982830000000  0.4726180000000 1.0
C      1  0.5201750000000  0.4787120000000  0.4863490000000 1.0
C      1  0.5140060000000  0.4539520000000  0.4712090000000 1.0
C      1  0.4873940000000  0.4433770000000  0.4688920000000 1.0
C      1  0.4652380000000  0.4570340000000  0.4809140000000 1.0
C      1  0.4571210000000  0.4770610000000  0.4634270000000 1.0
C      1  0.4612090000000  0.5264220000000  0.4838320000000 1.0
C      1  0.4583300000000  0.4900340000000  0.5488120000000 1.0
C      1  0.4561540000000  0.5140200000000  0.5604360000000 1.0
C      1  0.4750890000000  0.5326020000000  0.5563050000000 1.0
C      1  0.4978520000000  0.5405770000000  0.5674710000000 1.0
C      1  0.5221710000000  0.5372190000000  0.5569720000000 1.0
C      1  0.5448100000000  0.5236530000000  0.5617990000000 1.0
C      1  0.5483160000000  0.4982220000000  0.5534260000000 1.0
C      1  0.5404710000000  0.4762450000000  0.5667000000000 1.0
C      1  0.5191690000000  0.4614690000000  0.5592350000000 1.0
C      1  0.4946440000000  0.4623890000000  0.5718410000000 1.0
C      1  0.4748370000000  0.4680580000000  0.5540460000000 1.0
C      1  0.5483650000000  0.4263700000000  0.5096060000000 1.0
C      1  0.5008030000000  0.4099040000000  0.5234840000000 1.0
C      1  0.4500510000000  0.4226300000000  0.5274300000000 1.0
C      1  0.4159610000000  0.4608590000000  0.5220920000000 1.0
C      1  0.4086050000000  0.5126100000000  0.5209110000000 1.0
C      1  0.4287550000000  0.5590320000000  0.5291430000000 1.0
C      1  0.4718130000000  0.5884180000000  0.5337750000000 1.0
C      1  0.5236720000000  0.5905140000000  0.5304940000000 1.0
C      1  0.5681070000000  0.5636290000000  0.5238160000000 1.0
C      1  0.5886390000000  0.5165900000000  0.5160410000000 1.0
C      1  0.5799180000000  0.4671640000000  0.5018960000000 1.0
C      1  0.5338770000000  0.4715380000000  0.5119740000000 1.0
C      1  0.5146440000000  0.4552520000000  0.5291920000000 1.0
C      1  0.4839020000000  0.4549430000000  0.5284500000000 1.0
C      1  0.4623580000000  0.4649280000000  0.5097400000000 1.0
C      1  0.4513410000000  0.4919010000000  0.5195530000000 1.0
C      1  0.4545830000000  0.5222850000000  0.5121160000000 1.0
C      1  0.4722810000000  0.5419810000000  0.5278660000000 1.0
C      1  0.4988200000000  0.5525700000000  0.5164790000000 1.0
C      1  0.5250660000000  0.5436620000000  0.5279070000000 1.0
C      1  0.5425650000000  0.5239660000000  0.5135970000000 1.0
C      1  0.5478260000000  0.4959060000000  0.5230650000000 1.0
C      1  0.5231480000000  0.4257420000000  0.5204750000000 1.0
C      1  0.4777250000000  0.4241990000000  0.5277450000000 1.0
C      1  0.4388770000000  0.4467040000000  0.5212900000000 1.0
C      1  0.4203270000000  0.4880780000000  0.5189880000000 1.0
C      1  0.4264400000000  0.5331080000000  0.5207350000000 1.0
C      1  0.4545480000000  0.5674020000000  0.5306070000000 1.0
C      1  0.4977820000000  0.5821660000000  0.5287420000000 1.0
C      1  0.5417380000000  0.5701810000000  0.5268110000000 1.0
C      1  0.5713230000000  0.5369400000000  0.5191260000000 1.0
C      1  0.5766250000000  0.4922080000000  0.5120530000000 1.0
C      1  0.5577570000000  0.4516410000000  0.5051880000000 1.0
C      1  0.4739770000000  0.5148070000000  0.4419300000000 1.0
C      1  0.4710860000000  0.5023840000000  0.4700990000000 1.0
C      1  0.4957160000000  0.4943150000000  0.4942520000000 1.0
C      1  0.4981040000000  0.5036930000000  0.5193010000000 1.0
END
