TITL C-235502-3648-3 -0.173726106798195 125000 -239.772209741939 0 0 37 (Cs) n - 1
REM
REM in /rds/project/t2_vol4/rds-t2-cs072/BORA/CARBON/from-Arr/AIRSS/Generating-Clusters/GAP-ML-2020/Higher-Symm/SD-CG/HFTN-CG
REM
REM
REM
REM
REM
REM ./C.cell (b20cbc046b6831c77cfcea5457e17084)
REM AIRSS Version 0.9.1 bugfix July 2018 build 013d7b7c2542+ Fri, 06 Jul 2018 19:26:36 +0100
REM compiler GCC version 9.3.0
REM options -cpp -mtune=generic -march=x86-64 -g -O0
REM seed 1406939721 -121194697 163611201 1319086662 682057808 -1657403250 -873285280 -581535578 323945533 -38520906 296305919 -908404128 1510516771 -789456012 1654553457 -498941941 1844927687 -7416889 -2101359087 1460558464 422132642 1795995536 -1903331307 619777810 1919212846 -254577741 939727712 -1196911914 -551330969 -1734330696 -1162386305 297318609 -1857128941
REM
CELL 1.54180   50.00000   50.00000   50.00000   90.00000   90.00000   90.00000
LATT -1
SFAC C  
C      1  0.4633290000000  0.5615990000000  0.4923770000000 1.0
C      1  0.5358860000000  0.5615750000000  0.4923540000000 1.0
C      1  0.4642530000000  0.4550180000000  0.4931200000000 1.0
C      1  0.5348900000000  0.4549940000000  0.4930980000000 1.0
C      1  0.5126830000000  0.5720220000000  0.4942180000000 1.0
C      1  0.4865400000000  0.5720300000000  0.4942260000000 1.0
C      1  0.4634550000000  0.5065480000000  0.4516510000000 1.0
C      1  0.5356970000000  0.5065240000000  0.4516280000000 1.0
C      1  0.5540660000000  0.4723850000000  0.4787390000000 1.0
C      1  0.4450800000000  0.4724220000000  0.4787730000000 1.0
C      1  0.5431050000000  0.4789520000000  0.5333550000000 1.0
C      1  0.4560800000000  0.4789810000000  0.5333820000000 1.0
C      1  0.5141270000000  0.4772940000000  0.5655350000000 1.0
C      1  0.4850770000000  0.4773040000000  0.5655440000000 1.0
C      1  0.4870630000000  0.5190150000000  0.4439960000000 1.0
C      1  0.5120930000000  0.5190060000000  0.4439880000000 1.0
C      1  0.5494790000000  0.5145190000000  0.5097610000000 1.0
C      1  0.4497150000000  0.5145530000000  0.5097930000000 1.0
C      1  0.5137300000000  0.4613280000000  0.4726860000000 1.0
C      1  0.4854050000000  0.4613370000000  0.4726950000000 1.0
C      1  0.4505320000000  0.5379100000000  0.4905600000000 1.0
C      1  0.5486660000000  0.5378770000000  0.4905290000000 1.0
C      1  0.4723360000000  0.5051730000000  0.5265490000000 1.0
C      1  0.5268620000000  0.5051540000000  0.5265320000000 1.0
C      1  0.5334210000000  0.4785100000000  0.4587510000000 1.0
C      1  0.4657160000000  0.4785320000000  0.4587720000000 1.0
C      1  0.5551500000000  0.5186170000000  0.4691980000000 1.0
C      1  0.4440210000000  0.5186540000000  0.4692330000000 1.0
C      1  0.5139090000000  0.5048120000000  0.5543250000000 1.0
C      1  0.4853070000000  0.5048220000000  0.5543340000000 1.0
C      1  0.5288440000000  0.4607680000000  0.5483100000000 1.0
C      1  0.4703390000000  0.4607880000000  0.5483280000000 1.0
C      1  0.5625210000000  0.4977870000000  0.4890050000000 1.0
C      1  0.4366490000000  0.4978290000000  0.4890450000000 1.0
C      1  0.5378980000000  0.4544360000000  0.5210160000000 1.0
C      1  0.4612620000000  0.4544620000000  0.5210410000000 1.0
C      1  0.4995970000000  0.5111400000000  0.5139980000000 1.0
END
