TITL C-24499-3790-6 -0.00744513327586045 125000 -103.96929422799 0 0 17 (C1) n - 1
REM
REM in /rds/project/t2_vol4/rds-t2-cs072/BORA/CARBON/from-Arr/AIRSS/Generating-Clusters/GAP-ML-2020/Higher-Symm/SD-CG/HFTN-CG
REM
REM
REM
REM
REM
REM ./C.cell (b20cbc046b6831c77cfcea5457e17084)
REM AIRSS Version 0.9.1 bugfix July 2018 build 013d7b7c2542+ Fri, 06 Jul 2018 19:26:36 +0100
REM compiler GCC version 9.3.0
REM options -cpp -mtune=generic -march=x86-64 -g -O0
REM seed 317008030 -66284061 136015628 816826366 -1193848840 1227664417 1731347604 -1864034835 -1331552686 -697720141 -1974067718 -1273705584 1788249143 -429047735 -119748269 1686615502 1892266658 -460137109 -322737495 -627448228 -477577111 -1526289929 1940866772 1252328751 1017701187 -708321323 1796281205 595749531 -365390726 -1393596171 1387431508 -1018973930 -588859822
REM
CELL 1.54180   50.00000   50.00000   50.00000   90.00000   90.00000   90.00000
LATT -1
SFAC C  
C      1  0.4846060000000  0.4670690000000  0.4902290000000 1.0
C      1  0.4955450000000  0.4517170000000  0.5116630000000 1.0
C      1  0.5255770000000  0.4976400000000  0.4799440000000 1.0
C      1  0.5098430000000  0.5426710000000  0.4825250000000 1.0
C      1  0.4587330000000  0.5168300000000  0.4956840000000 1.0
C      1  0.5316360000000  0.4893730000000  0.5157930000000 1.0
C      1  0.5241110000000  0.5151450000000  0.5262600000000 1.0
C      1  0.5075750000000  0.5178840000000  0.5460480000000 1.0
C      1  0.4928940000000  0.4990180000000  0.5321500000000 1.0
C      1  0.5072930000000  0.4758530000000  0.5242560000000 1.0
C      1  0.5208800000000  0.5640900000000  0.4893910000000 1.0
C      1  0.4432720000000  0.5216410000000  0.5148390000000 1.0
C      1  0.4757570000000  0.4775960000000  0.4682580000000 1.0
C      1  0.5014000000000  0.4253560000000  0.5145730000000 1.0
C      1  0.5468540000000  0.4886800000000  0.4922020000000 1.0
C      1  0.5040320000000  0.5157860000000  0.4799630000000 1.0
C      1  0.4782680000000  0.5048970000000  0.4798170000000 1.0
END
