TITL C-24481-3781-8 -0.141518116232137 125000 -431.305427381413 0 0 63 (C1) n - 1
REM
REM in /rds/project/t2_vol4/rds-t2-cs072/BORA/CARBON/from-Arr/AIRSS/Generating-Clusters/GAP-ML-2020/Higher-Symm/SD-CG/HFTN-CG
REM
REM
REM
REM
REM
REM ./C.cell (b20cbc046b6831c77cfcea5457e17084)
REM AIRSS Version 0.9.1 bugfix July 2018 build 013d7b7c2542+ Fri, 06 Jul 2018 19:26:36 +0100
REM compiler GCC version 9.3.0
REM options -cpp -mtune=generic -march=x86-64 -g -O0
REM seed 1398523737 -2060823596 864402522 -289863047 1216307517 507123903 -879950 -1682245521 -1166540804 -870244658 -200127647 -1333422960 697327647 -1567644007 1817292291 1242310748 -1932270315 -873535959 1942300670 2143858894 1823948480 102103471 -1905514858 902252299 1689800121 821634263 612354719 -2014388476 -388304007 1498004538 -2092297678 -1013458683 1637104050
REM
CELL 1.54180   50.00000   50.00000   50.00000   90.00000   90.00000   90.00000
LATT -1
SFAC C  
C      1  0.4839210000000  0.4251480000000  0.5222270000000 1.0
C      1  0.5079480000000  0.4230550000000  0.4711000000000 1.0
C      1  0.5125000000000  0.4306900000000  0.5202000000000 1.0
C      1  0.4795710000000  0.4232290000000  0.4719080000000 1.0
C      1  0.4832730000000  0.4892420000000  0.5643640000000 1.0
C      1  0.5121250000000  0.4880060000000  0.4414090000000 1.0
C      1  0.5119430000000  0.4905670000000  0.5649200000000 1.0
C      1  0.4834290000000  0.4881550000000  0.4333380000000 1.0
C      1  0.5372990000000  0.5487450000000  0.5276230000000 1.0
C      1  0.4665990000000  0.5462120000000  0.4746900000000 1.0
C      1  0.4653260000000  0.5483450000000  0.5271550000000 1.0
C      1  0.5370440000000  0.5466500000000  0.4777960000000 1.0
C      1  0.4749560000000  0.5147860000000  0.4393310000000 1.0
C      1  0.5196930000000  0.5185600000000  0.5621890000000 1.0
C      1  0.5212170000000  0.5169200000000  0.4406230000000 1.0
C      1  0.4734100000000  0.5158800000000  0.5608370000000 1.0
C      1  0.5749450000000  0.4970210000000  0.5140640000000 1.0
C      1  0.4191480000000  0.4935410000000  0.4853370000000 1.0
C      1  0.4184080000000  0.4938630000000  0.5137180000000 1.0
C      1  0.5738700000000  0.4932130000000  0.4857650000000 1.0
C      1  0.4803530000000  0.4410000000000  0.4476600000000 1.0
C      1  0.5128140000000  0.4463160000000  0.5448220000000 1.0
C      1  0.5096490000000  0.4392720000000  0.4464840000000 1.0
C      1  0.4841460000000  0.4437260000000  0.5454710000000 1.0
C      1  0.5262350000000  0.5005830000000  0.5117320000000 1.0
C      1  0.4817790000000  0.4810560000000  0.4836210000000 1.0
C      1  0.4799300000000  0.4920320000000  0.5093170000000 1.0
C      1  0.5291550000000  0.4903740000000  0.4855240000000 1.0
C      1  0.4385620000000  0.5034060000000  0.5317750000000 1.0
C      1  0.5526500000000  0.5039430000000  0.4717000000000 1.0
C      1  0.5518090000000  0.5043010000000  0.5308640000000 1.0
C      1  0.4394260000000  0.5017940000000  0.4670820000000 1.0
C      1  0.5138210000000  0.5644120000000  0.5270640000000 1.0
C      1  0.4925530000000  0.5510800000000  0.4624040000000 1.0
C      1  0.4912320000000  0.5536580000000  0.5406810000000 1.0
C      1  0.5135620000000  0.5620970000000  0.4779140000000 1.0
C      1  0.5513730000000  0.4758870000000  0.5411130000000 1.0
C      1  0.4544870000000  0.4755850000000  0.4680480000000 1.0
C      1  0.4553100000000  0.4780850000000  0.5280390000000 1.0
C      1  0.5373280000000  0.4610440000000  0.4799460000000 1.0
C      1  0.5253640000000  0.4621290000000  0.4506380000000 1.0
C      1  0.4697740000000  0.4673050000000  0.5508950000000 1.0
C      1  0.4680950000000  0.4656690000000  0.4437140000000 1.0
C      1  0.5275410000000  0.4684470000000  0.5543960000000 1.0
C      1  0.5417250000000  0.5258700000000  0.4584330000000 1.0
C      1  0.4529590000000  0.5250280000000  0.5423980000000 1.0
C      1  0.4552510000000  0.5231760000000  0.4585900000000 1.0
C      1  0.5415700000000  0.5271320000000  0.5461560000000 1.0
C      1  0.4319620000000  0.4649730000000  0.4845120000000 1.0
C      1  0.5680410000000  0.4679170000000  0.5190130000000 1.0
C      1  0.5652890000000  0.4642820000000  0.4907730000000 1.0
C      1  0.4321500000000  0.4659240000000  0.5133970000000 1.0
C      1  0.4975450000000  0.5323060000000  0.4412600000000 1.0
C      1  0.4956460000000  0.5335880000000  0.5602260000000 1.0
C      1  0.5009140000000  0.5071420000000  0.5181940000000 1.0
C      1  0.5047790000000  0.4925780000000  0.4702860000000 1.0
C      1  0.4613060000000  0.5538940000000  0.5007280000000 1.0
C      1  0.5483250000000  0.5437010000000  0.5027090000000 1.0
C      1  0.5177140000000  0.4410050000000  0.4926260000000 1.0
C      1  0.4713270000000  0.4326780000000  0.4977850000000 1.0
C      1  0.4902090000000  0.4556730000000  0.4939760000000 1.0
C      1  0.5103130000000  0.5814390000000  0.5015360000000 1.0
C      1  0.5064300000000  0.6076030000000  0.5005500000000 1.0
END
