TITL C-24472-3900-3 0.00180351070151649 125000 -240.578312450912 0 0 37 (Cs) n - 1
REM
REM in /rds/project/t2_vol4/rds-t2-cs072/BORA/CARBON/from-Arr/AIRSS/Generating-Clusters/GAP-ML-2020/Higher-Symm/SD-CG/HFTN-CG
REM
REM
REM
REM
REM
REM ./C.cell (b20cbc046b6831c77cfcea5457e17084)
REM AIRSS Version 0.9.1 bugfix July 2018 build 013d7b7c2542+ Fri, 06 Jul 2018 19:26:36 +0100
REM compiler GCC version 9.3.0
REM options -cpp -mtune=generic -march=x86-64 -g -O0
REM seed 1594324920 3992039 667161392 1045399048 485936142 -1959850642 1359181840 -939660188 1664026602 -1167987438 -495587806 -2089421194 859130067 -840701143 -990232239 -785765596 1055537315 -595044870 -1287973105 1164774145 -714239886 -277661169 1525529577 -1960096788 1473562206 1765257545 1332971392 922579121 1161489050 -1524451613 184755142 -939018787 -1248347708
REM
CELL 1.54180   50.00000   50.00000   50.00000   90.00000   90.00000   90.00000
LATT -1
SFAC C  
C      1  0.5229180000000  0.4563180000000  0.4733470000000 1.0
C      1  0.5301390000000  0.5496730000000  0.5259860000000 1.0
C      1  0.4715630000000  0.4553470000000  0.5111930000000 1.0
C      1  0.4705350000000  0.5456890000000  0.4741520000000 1.0
C      1  0.5307690000000  0.4729910000000  0.4497330000000 1.0
C      1  0.5223440000000  0.5260880000000  0.5427270000000 1.0
C      1  0.4707100000000  0.5243520000000  0.4529340000000 1.0
C      1  0.4712950000000  0.4878250000000  0.5434890000000 1.0
C      1  0.4815900000000  0.5057820000000  0.5610140000000 1.0
C      1  0.4913990000000  0.5073570000000  0.4476480000000 1.0
C      1  0.5102460000000  0.4915380000000  0.4447940000000 1.0
C      1  0.5011960000000  0.5223660000000  0.5596930000000 1.0
C      1  0.4910390000000  0.5512400000000  0.4912860000000 1.0
C      1  0.4821490000000  0.4378080000000  0.4934200000000 1.0
C      1  0.5018800000000  0.4391990000000  0.4769900000000 1.0
C      1  0.5097300000000  0.5543380000000  0.5072430000000 1.0
C      1  0.4447520000000  0.5350820000000  0.4838190000000 1.0
C      1  0.4438320000000  0.4643490000000  0.5138700000000 1.0
C      1  0.5553180000000  0.5394590000000  0.5114440000000 1.0
C      1  0.5728880000000  0.4775330000000  0.4793680000000 1.0
C      1  0.4436630000000  0.4848680000000  0.5342740000000 1.0
C      1  0.4449210000000  0.5145310000000  0.4633830000000 1.0
C      1  0.5725350000000  0.5203630000000  0.5219580000000 1.0
C      1  0.5557430000000  0.4877970000000  0.4600710000000 1.0
C      1  0.4484680000000  0.5214730000000  0.5088050000000 1.0
C      1  0.4318160000000  0.4720690000000  0.4900860000000 1.0
C      1  0.5399180000000  0.5176510000000  0.5015290000000 1.0
C      1  0.5603270000000  0.4743090000000  0.5044520000000 1.0
C      1  0.4315160000000  0.5085080000000  0.5263220000000 1.0
C      1  0.4487300000000  0.4896530000000  0.4771620000000 1.0
C      1  0.5601550000000  0.4951940000000  0.5252200000000 1.0
C      1  0.5400820000000  0.4977060000000  0.4816960000000 1.0
C      1  0.5316880000000  0.4724250000000  0.4963070000000 1.0
C      1  0.5314350000000  0.5031120000000  0.5268230000000 1.0
C      1  0.4708750000000  0.5011540000000  0.4976010000000 1.0
C      1  0.4859500000000  0.4820250000000  0.5169630000000 1.0
C      1  0.5149410000000  0.4826110000000  0.5166140000000 1.0
END
