TITL C-246661-6579-1 -488.290870542264 125000 -732.951660198844 0 0 101 (C1) n - 1
REM
REM in /rds/project/t2_vol4/rds-t2-cs072/BORA/CARBON/from-Arr/AIRSS/Generating-Clusters/GAP-ML-2020/Higher-Symm/SD-CG/HFTN-CG
REM
REM
REM
REM
REM
REM ./C.cell (b20cbc046b6831c77cfcea5457e17084)
REM AIRSS Version 0.9.1 bugfix July 2018 build 013d7b7c2542+ Fri, 06 Jul 2018 19:26:36 +0100
REM compiler GCC version 9.3.0
REM options -cpp -mtune=generic -march=x86-64 -g -O0
REM seed 829468163 -1487894774 -1802666938 709997989 2096872208 -1880322770 -408785522 -133893859 -2001855793 922525554 -253920997 1011561040 594033874 928518100 1292140461 -284316651 -1164973124 -2066389592 2145405435 1359540246 1881589417 -259443917 -2058536075 401819164 -184285397 1202070761 1803624380 285240173 -2082892525 1143054317 -1694433727 2076133622 -2082007738
REM
CELL 1.54180   50.00000   50.00000   50.00000   90.00000   90.00000   90.00000
LATT -1
SFAC C  
C      1  0.4650620000000  0.4941630000000  0.4237270000000 1.0
C      1  0.4985270000000  0.5287730000000  0.4204020000000 1.0
C      1  0.5118100000000  0.4792740000000  0.4212560000000 1.0
C      1  0.4714210000000  0.4937540000000  0.5739220000000 1.0
C      1  0.5046100000000  0.5281640000000  0.5783120000000 1.0
C      1  0.5181730000000  0.4787530000000  0.5763890000000 1.0
C      1  0.4345150000000  0.4680810000000  0.5534960000000 1.0
C      1  0.5042250000000  0.5705600000000  0.5525670000000 1.0
C      1  0.5617730000000  0.4607400000000  0.5501900000000 1.0
C      1  0.4301560000000  0.4684760000000  0.4482640000000 1.0
C      1  0.5009220000000  0.5710850000000  0.4456150000000 1.0
C      1  0.5568470000000  0.4611090000000  0.4433500000000 1.0
C      1  0.4911640000000  0.5868310000000  0.4859950000000 1.0
C      1  0.5819810000000  0.4600700000000  0.4819670000000 1.0
C      1  0.4235010000000  0.4473660000000  0.4873930000000 1.0
C      1  0.4911680000000  0.5880330000000  0.5136260000000 1.0
C      1  0.5842760000000  0.4602770000000  0.5093840000000 1.0
C      1  0.4250560000000  0.4476500000000  0.5145940000000 1.0
C      1  0.4140720000000  0.4968790000000  0.5164350000000 1.0
C      1  0.5359610000000  0.5635820000000  0.5114730000000 1.0
C      1  0.5393210000000  0.4350740000000  0.5102470000000 1.0
C      1  0.4130660000000  0.4968700000000  0.4872600000000 1.0
C      1  0.5394640000000  0.5696280000000  0.4802390000000 1.0
C      1  0.5410680000000  0.4290130000000  0.4803340000000 1.0
C      1  0.4445450000000  0.4337400000000  0.4740850000000 1.0
C      1  0.4669580000000  0.5769510000000  0.4745330000000 1.0
C      1  0.5866300000000  0.4854800000000  0.4699530000000 1.0
C      1  0.4464880000000  0.4332500000000  0.5267690000000 1.0
C      1  0.4677740000000  0.5779440000000  0.5265890000000 1.0
C      1  0.5883630000000  0.4857310000000  0.5212670000000 1.0
C      1  0.5179430000000  0.4788390000000  0.5251230000000 1.0
C      1  0.4699830000000  0.4894860000000  0.5147550000000 1.0
C      1  0.5030070000000  0.5241050000000  0.5232260000000 1.0
C      1  0.5279640000000  0.4789810000000  0.4816770000000 1.0
C      1  0.4789060000000  0.4914330000000  0.4720000000000 1.0
C      1  0.5118330000000  0.5266140000000  0.4801680000000 1.0
C      1  0.4483530000000  0.4469800000000  0.4493640000000 1.0
C      1  0.4732390000000  0.5666420000000  0.4492020000000 1.0
C      1  0.5729310000000  0.4847000000000  0.4453890000000 1.0
C      1  0.4524070000000  0.4464730000000  0.5512200000000 1.0
C      1  0.4761520000000  0.5669200000000  0.5512910000000 1.0
C      1  0.5768150000000  0.4846270000000  0.5470610000000 1.0
C      1  0.4842770000000  0.4719610000000  0.4258700000000 1.0
C      1  0.4712690000000  0.5231400000000  0.4254710000000 1.0
C      1  0.5432120000000  0.5205310000000  0.4262360000000 1.0
C      1  0.4903970000000  0.4716460000000  0.5715730000000 1.0
C      1  0.4771840000000  0.5224350000000  0.5733790000000 1.0
C      1  0.5487320000000  0.5201550000000  0.5697390000000 1.0
C      1  0.5615030000000  0.4453680000000  0.4675150000000 1.0
C      1  0.4160110000000  0.4712450000000  0.4733190000000 1.0
C      1  0.5139840000000  0.5800500000000  0.4699940000000 1.0
C      1  0.5640400000000  0.4467330000000  0.5247510000000 1.0
C      1  0.4192780000000  0.4714330000000  0.5292380000000 1.0
C      1  0.5146700000000  0.5799930000000  0.5274850000000 1.0
C      1  0.5858480000000  0.5125030000000  0.4814780000000 1.0
C      1  0.4688030000000  0.4233900000000  0.4847220000000 1.0
C      1  0.4455340000000  0.5624390000000  0.4865480000000 1.0
C      1  0.5864390000000  0.5123910000000  0.5101530000000 1.0
C      1  0.4700550000000  0.4230040000000  0.5143600000000 1.0
C      1  0.4465090000000  0.5625830000000  0.5156380000000 1.0
C      1  0.4289950000000  0.5096370000000  0.5592270000000 1.0
C      1  0.5433140000000  0.5461520000000  0.5588600000000 1.0
C      1  0.5276950000000  0.4355670000000  0.5568730000000 1.0
C      1  0.4257370000000  0.5106190000000  0.4439210000000 1.0
C      1  0.5393860000000  0.5469410000000  0.4358710000000 1.0
C      1  0.5222580000000  0.4360610000000  0.4379690000000 1.0
C      1  0.4787370000000  0.5166730000000  0.5107500000000 1.0
C      1  0.5237730000000  0.5053520000000  0.5193340000000 1.0
C      1  0.4933590000000  0.4735430000000  0.5118740000000 1.0
C      1  0.4852180000000  0.5179190000000  0.4807940000000 1.0
C      1  0.5298390000000  0.5058090000000  0.4893700000000 1.0
C      1  0.5001950000000  0.4743700000000  0.4827940000000 1.0
C      1  0.5537950000000  0.5528940000000  0.4605780000000 1.0
C      1  0.5179150000000  0.4251920000000  0.4624220000000 1.0
C      1  0.4202340000000  0.5190130000000  0.4688180000000 1.0
C      1  0.5549290000000  0.5513150000000  0.5324680000000 1.0
C      1  0.5202270000000  0.4259040000000  0.5326390000000 1.0
C      1  0.4225230000000  0.5188230000000  0.5347940000000 1.0
C      1  0.4438040000000  0.4894960000000  0.5686360000000 1.0
C      1  0.5174030000000  0.5520450000000  0.5681520000000 1.0
C      1  0.5378890000000  0.4587050000000  0.5666070000000 1.0
C      1  0.4384790000000  0.4899370000000  0.4327130000000 1.0
C      1  0.5126840000000  0.5526600000000  0.4290170000000 1.0
C      1  0.5320050000000  0.4593170000000  0.4287950000000 1.0
C      1  0.5724520000000  0.5297620000000  0.4617100000000 1.0
C      1  0.4884260000000  0.4281980000000  0.4626650000000 1.0
C      1  0.4374170000000  0.5425650000000  0.4660250000000 1.0
C      1  0.5739420000000  0.5290490000000  0.5307830000000 1.0
C      1  0.4914620000000  0.4280000000000  0.5350750000000 1.0
C      1  0.4395570000000  0.5427920000000  0.5367560000000 1.0
C      1  0.4573310000000  0.5438440000000  0.4425030000000 1.0
C      1  0.5660980000000  0.5116090000000  0.4397830000000 1.0
C      1  0.4754160000000  0.4468580000000  0.4410860000000 1.0
C      1  0.4614160000000  0.5435530000000  0.5582110000000 1.0
C      1  0.5701510000000  0.5112440000000  0.5536630000000 1.0
C      1  0.4801330000000  0.4462550000000  0.5578200000000 1.0
C      1  0.5125710000000  0.5440970000000  0.5046140000000 1.0
C      1  0.4584430000000  0.4825240000000  0.4894080000000 1.0
C      1  0.5358910000000  0.4651140000000  0.5073780000000 1.0
C      1  0.5179530000000  0.5075260000000  0.4192670000000 1.0
C      1  0.5244150000000  0.5071520000000  0.5798450000000 1.0
END
