TITL C-24418-2566-5 -0.150050574130376 125000 -335.143363981361 0 0 51 (C5) n - 1
REM
REM in /rds/project/t2_vol4/rds-t2-cs072/BORA/CARBON/from-Arr/AIRSS/Generating-Clusters/GAP-ML-2020/Higher-Symm/SD-CG/HFTN-CG
REM
REM
REM
REM
REM
REM ./C.cell (b20cbc046b6831c77cfcea5457e17084)
REM AIRSS Version 0.9.1 bugfix July 2018 build 013d7b7c2542+ Fri, 06 Jul 2018 19:26:36 +0100
REM compiler GCC version 9.3.0
REM options -cpp -mtune=generic -march=x86-64 -g -O0
REM seed -295400166 -218816364 -1812766525 -1458755572 -418460786 533044609 -408217059 517020059 -1079199497 -756944269 -1887473710 -1231775411 -1644607795 -1302879146 -1134832793 314092803 956630679 -1586226227 -1374294451 1018590857 -1429182027 -867804880 992476048 1794886500 -981488904 1244462733 1184508341 1920324153 -186862026 -934810545 1129885940 -1432341877 -2090471507
REM
CELL 1.54180   50.00000   50.00000   50.00000   90.00000   90.00000   90.00000
LATT -1
SFAC C  
C      1  0.4808530000000  0.4518570000000  0.5157370000000 1.0
C      1  0.4792980000000  0.4515900000000  0.4860920000000 1.0
C      1  0.5070130000000  0.4514220000000  0.4754530000000 1.0
C      1  0.5256960000000  0.4515840000000  0.4985230000000 1.0
C      1  0.5095290000000  0.4518530000000  0.5234190000000 1.0
C      1  0.5042950000000  0.5621040000000  0.5230020000000 1.0
C      1  0.4788710000000  0.5620480000000  0.5096650000000 1.0
C      1  0.4837000000000  0.5617770000000  0.4813660000000 1.0
C      1  0.5121070000000  0.5616660000000  0.4772130000000 1.0
C      1  0.5248360000000  0.5618680000000  0.5029460000000 1.0
C      1  0.4909100000000  0.5320220000000  0.5623440000000 1.0
C      1  0.4375280000000  0.5316750000000  0.5093590000000 1.0
C      1  0.4714240000000  0.5309750000000  0.4422190000000 1.0
C      1  0.5457560000000  0.5308890000000  0.4537100000000 1.0
C      1  0.5577980000000  0.5315360000000  0.5279510000000 1.0
C      1  0.5112540000000  0.5136980000000  0.5230810000000 1.0
C      1  0.4812810000000  0.5137170000000  0.5167310000000 1.0
C      1  0.4780580000000  0.5134470000000  0.4862640000000 1.0
C      1  0.5060380000000  0.5132610000000  0.4737850000000 1.0
C      1  0.5265550000000  0.5134160000000  0.4965390000000 1.0
C      1  0.5439950000000  0.5399410000000  0.5059530000000 1.0
C      1  0.5075070000000  0.5403670000000  0.5423450000000 1.0
C      1  0.4616190000000  0.5402710000000  0.5188880000000 1.0
C      1  0.4697470000000  0.5397850000000  0.4680000000000 1.0
C      1  0.5206580000000  0.5395810000000  0.4600060000000 1.0
C      1  0.5017530000000  0.4947430000000  0.4513970000000 1.0
C      1  0.5466490000000  0.4949410000000  0.4857060000000 1.0
C      1  0.5278930000000  0.4954750000000  0.5390050000000 1.0
C      1  0.4714050000000  0.4956080000000  0.5376360000000 1.0
C      1  0.4552490000000  0.4951560000000  0.4834920000000 1.0
C      1  0.4591000000000  0.4676760000000  0.4728010000000 1.0
C      1  0.5133000000000  0.4673460000000  0.4519960000000 1.0
C      1  0.5498370000000  0.4676640000000  0.4971120000000 1.0
C      1  0.5182190000000  0.4681900000000  0.5458010000000 1.0
C      1  0.4621410000000  0.4681970000000  0.5307760000000 1.0
C      1  0.4891740000000  0.4848020000000  0.5798840000000 1.0
C      1  0.4206360000000  0.4843720000000  0.5135430000000 1.0
C      1  0.4625520000000  0.4834820000000  0.4278630000000 1.0
C      1  0.5569950000000  0.4833610000000  0.4412510000000 1.0
C      1  0.5734490000000  0.4841770000000  0.5352050000000 1.0
C      1  0.4789910000000  0.5048340000000  0.4358950000000 1.0
C      1  0.5542890000000  0.5048520000000  0.4591800000000 1.0
C      1  0.5554130000000  0.5055690000000  0.5379840000000 1.0
C      1  0.4808100000000  0.5059930000000  0.5634040000000 1.0
C      1  0.4335780000000  0.5055380000000  0.5003090000000 1.0
C      1  0.5047920000000  0.4667030000000  0.5702830000000 1.0
C      1  0.4347180000000  0.4664750000000  0.5255860000000 1.0
C      1  0.4555730000000  0.4656870000000  0.4451330000000 1.0
C      1  0.5385370000000  0.4654280000000  0.4401080000000 1.0
C      1  0.5689550000000  0.4660560000000  0.5174550000000 1.0
C      1  0.5005280000000  0.4711870000000  0.4996660000000 1.0
END
