TITL C-246641-6733-2 0.00985188194468608 125000 -87.2869020471539 0 0 14 (C2) n - 1
REM
REM in /rds/project/t2_vol4/rds-t2-cs072/BORA/CARBON/from-Arr/AIRSS/Generating-Clusters/GAP-ML-2020/Higher-Symm/SD-CG/HFTN-CG
REM
REM
REM
REM
REM
REM ./C.cell (b20cbc046b6831c77cfcea5457e17084)
REM AIRSS Version 0.9.1 bugfix July 2018 build 013d7b7c2542+ Fri, 06 Jul 2018 19:26:36 +0100
REM compiler GCC version 9.3.0
REM options -cpp -mtune=generic -march=x86-64 -g -O0
REM seed 419405563 349412025 -1094179620 1174365404 1159453317 -880001628 169945789 1206107397 1165547637 -1466534049 91097264 -2056435816 -383768201 -1801818199 1508271805 1130655564 1373417311 1470776245 -396468784 347709340 453932331 -333227772 87545973 1343930798 873212099 -1817851840 248713941 -115020445 1942414680 734293202 231273717 418811734 -1088453915
REM
CELL 1.54180   50.00000   50.00000   50.00000   90.00000   90.00000   90.00000
LATT -1
SFAC C  
C      1  0.5300020000000  0.4670210000000  0.5207700000000 1.0
C      1  0.5485200000000  0.5012760000000  0.4830720000000 1.0
C      1  0.5292300000000  0.5386540000000  0.5171420000000 1.0
C      1  0.4907640000000  0.5436440000000  0.4792880000000 1.0
C      1  0.4527030000000  0.5279670000000  0.5133190000000 1.0
C      1  0.4557100000000  0.4772530000000  0.4998780000000 1.0
C      1  0.4952350000000  0.4452950000000  0.4865380000000 1.0
C      1  0.5330970000000  0.5169980000000  0.5000910000000 1.0
C      1  0.5068200000000  0.5347670000000  0.5002950000000 1.0
C      1  0.4768510000000  0.5288560000000  0.4986130000000 1.0
C      1  0.4595410000000  0.5035510000000  0.5038740000000 1.0
C      1  0.4793330000000  0.4650560000000  0.4959580000000 1.0
C      1  0.5099610000000  0.4643710000000  0.5013510000000 1.0
C      1  0.5322330000000  0.4852900000000  0.4998120000000 1.0
END
