TITL C-24417-2528-4 0.123306858494812 125000 -1029.91874004661 0 0 144 (C4) n - 1
REM
REM in /rds/project/t2_vol4/rds-t2-cs072/BORA/CARBON/from-Arr/AIRSS/Generating-Clusters/GAP-ML-2020/Higher-Symm/SD-CG/HFTN-CG
REM
REM
REM
REM
REM
REM ./C.cell (b20cbc046b6831c77cfcea5457e17084)
REM AIRSS Version 0.9.1 bugfix July 2018 build 013d7b7c2542+ Fri, 06 Jul 2018 19:26:36 +0100
REM compiler GCC version 9.3.0
REM options -cpp -mtune=generic -march=x86-64 -g -O0
REM seed -297389136 -423984045 -427645409 -1023879637 1325978835 -710689832 -801429741 810618511 -1531959985 306780125 756131684 -142580689 763470238 1849105185 429968498 1611551407 1582113010 879987198 1191111761 -124434826 2136048133 1510481786 1555964690 -1369969588 170662762 297324521 -1125266778 395762016 -649382790 -1456509490 -181940381 -238964698 -1667557929
REM
CELL 1.54180   50.00000   50.00000   50.00000   90.00000   90.00000   90.00000
LATT -1
SFAC C  
C      1  0.5232080000000  0.4437970000000  0.4009350000000 1.0
C      1  0.4438050000000  0.4767910000000  0.4009310000000 1.0
C      1  0.4767990000000  0.5561950000000  0.4009290000000 1.0
C      1  0.5562020000000  0.5232010000000  0.4009330000000 1.0
C      1  0.5232100000000  0.5561990000000  0.5990660000000 1.0
C      1  0.4438020000000  0.5232170000000  0.5990650000000 1.0
C      1  0.4767830000000  0.4438090000000  0.5990700000000 1.0
C      1  0.5561920000000  0.4767910000000  0.5990710000000 1.0
C      1  0.4923540000000  0.4640270000000  0.5346190000000 1.0
C      1  0.4640250000000  0.5076470000000  0.5346160000000 1.0
C      1  0.5076440000000  0.5359750000000  0.5346160000000 1.0
C      1  0.5359730000000  0.4923560000000  0.5346190000000 1.0
C      1  0.4923610000000  0.5359740000000  0.4653810000000 1.0
C      1  0.4640260000000  0.4923590000000  0.4653810000000 1.0
C      1  0.5076410000000  0.4640230000000  0.4653840000000 1.0
C      1  0.5359760000000  0.5076380000000  0.4653830000000 1.0
C      1  0.5669850000000  0.5429440000000  0.4716880000000 1.0
C      1  0.5429460000000  0.4330140000000  0.4716920000000 1.0
C      1  0.4330170000000  0.4570540000000  0.4716870000000 1.0
C      1  0.4570560000000  0.5669830000000  0.4716840000000 1.0
C      1  0.5669770000000  0.4570460000000  0.5283160000000 1.0
C      1  0.5429540000000  0.5669790000000  0.5283110000000 1.0
C      1  0.4330210000000  0.5429560000000  0.5283080000000 1.0
C      1  0.4570440000000  0.4330230000000  0.5283140000000 1.0
C      1  0.4309530000000  0.4997090000000  0.5878420000000 1.0
C      1  0.4997030000000  0.5690480000000  0.5878420000000 1.0
C      1  0.5690420000000  0.5002980000000  0.5878470000000 1.0
C      1  0.5002920000000  0.4309590000000  0.5878470000000 1.0
C      1  0.4309580000000  0.5003020000000  0.4121530000000 1.0
C      1  0.4996980000000  0.4309520000000  0.4121580000000 1.0
C      1  0.5690470000000  0.4996910000000  0.4121580000000 1.0
C      1  0.5003080000000  0.5690410000000  0.4121530000000 1.0
C      1  0.5143420000000  0.5694310000000  0.5357510000000 1.0
C      1  0.5694280000000  0.4856580000000  0.5357560000000 1.0
C      1  0.4856560000000  0.4305720000000  0.5357550000000 1.0
C      1  0.4305690000000  0.5143450000000  0.5357500000000 1.0
C      1  0.5143330000000  0.4305670000000  0.4642500000000 1.0
C      1  0.5694330000000  0.5143310000000  0.4642490000000 1.0
C      1  0.4856690000000  0.5694300000000  0.4642440000000 1.0
C      1  0.4305700000000  0.4856660000000  0.4642450000000 1.0
C      1  0.4402350000000  0.4521700000000  0.5710690000000 1.0
C      1  0.4521650000000  0.5597650000000  0.5710650000000 1.0
C      1  0.5597600000000  0.5478360000000  0.5710690000000 1.0
C      1  0.5478310000000  0.4402400000000  0.5710730000000 1.0
C      1  0.4402470000000  0.5478400000000  0.4289270000000 1.0
C      1  0.4521600000000  0.4402420000000  0.4289320000000 1.0
C      1  0.5597580000000  0.4521550000000  0.4289350000000 1.0
C      1  0.5478450000000  0.5597520000000  0.4289300000000 1.0
C      1  0.5508190000000  0.4291790000000  0.4976520000000 1.0
C      1  0.4291790000000  0.4491810000000  0.4976470000000 1.0
C      1  0.4491810000000  0.5708210000000  0.4976430000000 1.0
C      1  0.5708210000000  0.5508190000000  0.4976480000000 1.0
C      1  0.5508300000000  0.5708130000000  0.5023510000000 1.0
C      1  0.4291870000000  0.5508300000000  0.5023480000000 1.0
C      1  0.4491700000000  0.4291870000000  0.5023540000000 1.0
C      1  0.5708130000000  0.4491700000000  0.5023570000000 1.0
C      1  0.5323730000000  0.4252580000000  0.5193050000000 1.0
C      1  0.4252570000000  0.4676270000000  0.5193000000000 1.0
C      1  0.4676260000000  0.5747430000000  0.5192970000000 1.0
C      1  0.5747420000000  0.5323740000000  0.5193020000000 1.0
C      1  0.5323860000000  0.5747370000000  0.4806970000000 1.0
C      1  0.4252630000000  0.5323840000000  0.4806950000000 1.0
C      1  0.4676160000000  0.4252620000000  0.4807010000000 1.0
C      1  0.5747380000000  0.4676140000000  0.4807020000000 1.0
C      1  0.4724000000000  0.4692980000000  0.3981880000000 1.0
C      1  0.4693060000000  0.5275990000000  0.3981860000000 1.0
C      1  0.5276070000000  0.5306940000000  0.3981880000000 1.0
C      1  0.5307010000000  0.4723920000000  0.3981900000000 1.0
C      1  0.4723980000000  0.5307060000000  0.6018100000000 1.0
C      1  0.4692950000000  0.4724050000000  0.6018120000000 1.0
C      1  0.5275950000000  0.4693020000000  0.6018140000000 1.0
C      1  0.5306990000000  0.5276030000000  0.6018120000000 1.0
C      1  0.5166810000000  0.4231220000000  0.4353440000000 1.0
C      1  0.4231270000000  0.4833180000000  0.4353380000000 1.0
C      1  0.4833230000000  0.5768730000000  0.4353370000000 1.0
C      1  0.5768780000000  0.5166770000000  0.4353420000000 1.0
C      1  0.5166890000000  0.5768750000000  0.5646570000000 1.0
C      1  0.4231250000000  0.5166940000000  0.5646560000000 1.0
C      1  0.4833070000000  0.4231300000000  0.5646620000000 1.0
C      1  0.5768710000000  0.4833110000000  0.5646630000000 1.0
C      1  0.5421950000000  0.4441080000000  0.5415540000000 1.0
C      1  0.4441050000000  0.4578050000000  0.5415500000000 1.0
C      1  0.4578020000000  0.5558960000000  0.5415460000000 1.0
C      1  0.5558930000000  0.5421980000000  0.5415500000000 1.0
C      1  0.5422060000000  0.5558860000000  0.4584490000000 1.0
C      1  0.4441140000000  0.5422030000000  0.4584470000000 1.0
C      1  0.4577960000000  0.4441110000000  0.4584510000000 1.0
C      1  0.5558890000000  0.4577930000000  0.4584540000000 1.0
C      1  0.5162790000000  0.5128530000000  0.6225260000000 1.0
C      1  0.5128440000000  0.4837220000000  0.6225270000000 1.0
C      1  0.4837130000000  0.4871560000000  0.6225250000000 1.0
C      1  0.4871470000000  0.5162880000000  0.6225240000000 1.0
C      1  0.5162850000000  0.4871440000000  0.3774760000000 1.0
C      1  0.5128550000000  0.5162760000000  0.3774740000000 1.0
C      1  0.4837230000000  0.5128460000000  0.3774730000000 1.0
C      1  0.4871530000000  0.4837140000000  0.3774750000000 1.0
C      1  0.5669240000000  0.4598360000000  0.5785210000000 1.0
C      1  0.4598300000000  0.4330770000000  0.5785190000000 1.0
C      1  0.4330710000000  0.5401700000000  0.5785140000000 1.0
C      1  0.5401650000000  0.5669300000000  0.5785160000000 1.0
C      1  0.5669350000000  0.5401540000000  0.4214830000000 1.0
C      1  0.4598460000000  0.5669290000000  0.4214780000000 1.0
C      1  0.4330700000000  0.4598400000000  0.4214820000000 1.0
C      1  0.5401590000000  0.4330640000000  0.4214870000000 1.0
C      1  0.4705550000000  0.5119600000000  0.5062330000000 1.0
C      1  0.5119600000000  0.5294450000000  0.5062330000000 1.0
C      1  0.5294440000000  0.4880400000000  0.5062360000000 1.0
C      1  0.4880400000000  0.4705560000000  0.5062350000000 1.0
C      1  0.4705540000000  0.4880440000000  0.4937650000000 1.0
C      1  0.5119560000000  0.4705540000000  0.4937670000000 1.0
C      1  0.5294460000000  0.5119550000000  0.4937660000000 1.0
C      1  0.4880450000000  0.5294460000000  0.4937640000000 1.0
C      1  0.5202230000000  0.4706400000000  0.5473510000000 1.0
C      1  0.4706370000000  0.4797780000000  0.5473490000000 1.0
C      1  0.4797740000000  0.5293640000000  0.5473470000000 1.0
C      1  0.5293600000000  0.5202260000000  0.5473490000000 1.0
C      1  0.5202310000000  0.5293570000000  0.4526510000000 1.0
C      1  0.4706430000000  0.5202270000000  0.4526500000000 1.0
C      1  0.4797730000000  0.4706400000000  0.4526520000000 1.0
C      1  0.5293600000000  0.4797690000000  0.4526530000000 1.0
C      1  0.4407470000000  0.4736460000000  0.5911180000000 1.0
C      1  0.4736390000000  0.5592540000000  0.5911160000000 1.0
C      1  0.5592470000000  0.5263620000000  0.5911200000000 1.0
C      1  0.5263550000000  0.4407530000000  0.5911230000000 1.0
C      1  0.4407570000000  0.5263640000000  0.4088780000000 1.0
C      1  0.4736360000000  0.4407500000000  0.4088820000000 1.0
C      1  0.5592490000000  0.4736290000000  0.4088840000000 1.0
C      1  0.5263700000000  0.5592420000000  0.4088790000000 1.0
C      1  0.5807250000000  0.5047450000000  0.5137280000000 1.0
C      1  0.5047440000000  0.4192760000000  0.5137290000000 1.0
C      1  0.4192750000000  0.4952560000000  0.5137230000000 1.0
C      1  0.4952550000000  0.5807260000000  0.5137220000000 1.0
C      1  0.5807250000000  0.4952420000000  0.4862770000000 1.0
C      1  0.5047580000000  0.5807240000000  0.4862710000000 1.0
C      1  0.4192760000000  0.5047570000000  0.4862710000000 1.0
C      1  0.4952430000000  0.4192750000000  0.4862770000000 1.0
C      1  0.5169940000000  0.4863900000000  0.4256110000000 1.0
C      1  0.4863960000000  0.4830060000000  0.4256100000000 1.0
C      1  0.4830110000000  0.5136030000000  0.4256090000000 1.0
C      1  0.5136090000000  0.5169880000000  0.4256090000000 1.0
C      1  0.5169910000000  0.5136070000000  0.5743900000000 1.0
C      1  0.4863940000000  0.5169960000000  0.5743890000000 1.0
C      1  0.4830040000000  0.4863990000000  0.5743900000000 1.0
C      1  0.5136010000000  0.4830100000000  0.5743920000000 1.0
END
