TITL C-246645-7633-8 105.533048157994 125000 -743.874050280606 0 0 102 (C1) n - 1
REM
REM in /rds/project/t2_vol4/rds-t2-cs072/BORA/CARBON/from-Arr/AIRSS/Generating-Clusters/GAP-ML-2020/Higher-Symm/SD-CG/HFTN-CG
REM
REM
REM
REM
REM
REM ./C.cell (b20cbc046b6831c77cfcea5457e17084)
REM AIRSS Version 0.9.1 bugfix July 2018 build 013d7b7c2542+ Fri, 06 Jul 2018 19:26:36 +0100
REM compiler GCC version 9.3.0
REM options -cpp -mtune=generic -march=x86-64 -g -O0
REM seed -709037319 549151857 738383099 763518396 1192847526 -1800179019 1230409432 -2046692887 1152448633 -2116739414 -1676746337 -180357803 -1044848290 1585027837 1704211085 -1849416709 1443201813 -374151482 1812980323 1969507011 1380642779 -77444613 932711236 -680454983 1717331779 -523073396 310287264 -1030825488 -1152444722 -921707845 -1495639366 -1006969593 452114028
REM
CELL 1.54180   50.00000   50.00000   50.00000   90.00000   90.00000   90.00000
LATT -1
SFAC C  
C      1  0.4641780000000  0.4435480000000  0.4441920000000 1.0
C      1  0.4644620000000  0.4165920000000  0.4867270000000 1.0
C      1  0.4641040000000  0.4207130000000  0.5335760000000 1.0
C      1  0.4655010000000  0.4530000000000  0.5701970000000 1.0
C      1  0.4652580000000  0.4979080000000  0.5836220000000 1.0
C      1  0.4634460000000  0.5449810000000  0.5710480000000 1.0
C      1  0.4633510000000  0.5778820000000  0.5371130000000 1.0
C      1  0.4648770000000  0.5871220000000  0.4880450000000 1.0
C      1  0.4661420000000  0.5671400000000  0.4449800000000 1.0
C      1  0.4646100000000  0.5234550000000  0.4199790000000 1.0
C      1  0.4688300000000  0.4775780000000  0.4131190000000 1.0
C      1  0.4762290000000  0.4246710000000  0.4622390000000 1.0
C      1  0.4793850000000  0.4118270000000  0.5109230000000 1.0
C      1  0.4774380000000  0.4311000000000  0.5567020000000 1.0
C      1  0.4802010000000  0.4735320000000  0.5834840000000 1.0
C      1  0.4767570000000  0.5236600000000  0.5846820000000 1.0
C      1  0.4783090000000  0.5658030000000  0.5584710000000 1.0
C      1  0.4758920000000  0.5898150000000  0.5143390000000 1.0
C      1  0.4808850000000  0.5829290000000  0.4643260000000 1.0
C      1  0.4778020000000  0.5481640000000  0.4271460000000 1.0
C      1  0.4815530000000  0.5024330000000  0.4092800000000 1.0
C      1  0.4809440000000  0.4541000000000  0.4230750000000 1.0
C      1  0.5213770000000  0.5642320000000  0.4469800000000 1.0
C      1  0.5218190000000  0.5253670000000  0.4206180000000 1.0
C      1  0.5226060000000  0.4766750000000  0.4154510000000 1.0
C      1  0.5206500000000  0.4352570000000  0.4428900000000 1.0
C      1  0.5194970000000  0.4147270000000  0.4853180000000 1.0
C      1  0.5208440000000  0.4210830000000  0.5345870000000 1.0
C      1  0.5207320000000  0.4517460000000  0.5705400000000 1.0
C      1  0.5203220000000  0.4993770000000  0.5856250000000 1.0
C      1  0.5196520000000  0.5449770000000  0.5732390000000 1.0
C      1  0.5185990000000  0.5806810000000  0.5384830000000 1.0
C      1  0.5199150000000  0.5877260000000  0.4919850000000 1.0
C      1  0.5090140000000  0.4525400000000  0.4234360000000 1.0
C      1  0.5043480000000  0.4214840000000  0.4617900000000 1.0
C      1  0.5076050000000  0.4112800000000  0.5111030000000 1.0
C      1  0.5058220000000  0.4309240000000  0.5569720000000 1.0
C      1  0.5083520000000  0.4734400000000  0.5844560000000 1.0
C      1  0.5049200000000  0.5238670000000  0.5855560000000 1.0
C      1  0.5063610000000  0.5662150000000  0.5595720000000 1.0
C      1  0.5039500000000  0.5903450000000  0.5156500000000 1.0
C      1  0.5091100000000  0.5820180000000  0.4659120000000 1.0
C      1  0.5063510000000  0.5482270000000  0.4280220000000 1.0
C      1  0.5097260000000  0.5020160000000  0.4105240000000 1.0
C      1  0.4836900000000  0.5310010000000  0.4808640000000 1.0
C      1  0.4744800000000  0.5057170000000  0.4754390000000 1.0
C      1  0.4958600000000  0.4918350000000  0.4656190000000 1.0
C      1  0.5166710000000  0.4847280000000  0.4817060000000 1.0
C      1  0.5045180000000  0.4674100000000  0.5008770000000 1.0
C      1  0.4770660000000  0.4706140000000  0.5083420000000 1.0
C      1  0.4992370000000  0.4765140000000  0.5265000000000 1.0
C      1  0.5006650000000  0.5036950000000  0.5324440000000 1.0
C      1  0.5160080000000  0.5217000000000  0.5135540000000 1.0
C      1  0.4745500000000  0.5145070000000  0.5230360000000 1.0
C      1  0.4898820000000  0.5352820000000  0.5068580000000 1.0
C      1  0.5633180000000  0.5300810000000  0.5444540000000 1.0
C      1  0.5633320000000  0.5516010000000  0.5268290000000 1.0
C      1  0.5637320000000  0.5589730000000  0.4983170000000 1.0
C      1  0.5605600000000  0.5440690000000  0.4758350000000 1.0
C      1  0.5598930000000  0.5059160000000  0.4518820000000 1.0
C      1  0.5641580000000  0.4789020000000  0.4459420000000 1.0
C      1  0.5650000000000  0.4565200000000  0.4631750000000 1.0
C      1  0.5640820000000  0.4470240000000  0.4910190000000 1.0
C      1  0.5626610000000  0.4540000000000  0.5180450000000 1.0
C      1  0.5616980000000  0.4741900000000  0.5396000000000 1.0
C      1  0.5624870000000  0.5006250000000  0.5489180000000 1.0
C      1  0.5453760000000  0.5344350000000  0.5678760000000 1.0
C      1  0.5446250000000  0.5744600000000  0.5303680000000 1.0
C      1  0.5452960000000  0.5808310000000  0.5019500000000 1.0
C      1  0.5454440000000  0.5498890000000  0.4521780000000 1.0
C      1  0.5457460000000  0.5256320000000  0.4365740000000 1.0
C      1  0.5475690000000  0.4764700000000  0.4246390000000 1.0
C      1  0.5465400000000  0.4356820000000  0.4543880000000 1.0
C      1  0.5454810000000  0.4248790000000  0.4814630000000 1.0
C      1  0.5455820000000  0.4352040000000  0.5347730000000 1.0
C      1  0.5450040000000  0.4546320000000  0.5561530000000 1.0
C      1  0.5451090000000  0.5058950000000  0.5732820000000 1.0
C      1  0.4234750000000  0.5520210000000  0.4923700000000 1.0
C      1  0.4240240000000  0.5406000000000  0.4652350000000 1.0
C      1  0.4227010000000  0.5147050000000  0.4541590000000 1.0
C      1  0.4136430000000  0.4933940000000  0.4687750000000 1.0
C      1  0.4228520000000  0.4675530000000  0.4686100000000 1.0
C      1  0.4227190000000  0.4496380000000  0.4907520000000 1.0
C      1  0.4211960000000  0.4524320000000  0.5201650000000 1.0
C      1  0.4221460000000  0.4712890000000  0.5403740000000 1.0
C      1  0.4228110000000  0.4996610000000  0.5475800000000 1.0
C      1  0.4216640000000  0.5261600000000  0.5403890000000 1.0
C      1  0.4216480000000  0.5467380000000  0.5195810000000 1.0
C      1  0.4407330000000  0.5096680000000  0.4311390000000 1.0
C      1  0.4449090000000  0.4819590000000  0.4272430000000 1.0
C      1  0.4414090000000  0.4616270000000  0.4467930000000 1.0
C      1  0.4392160000000  0.4260420000000  0.4943210000000 1.0
C      1  0.4388190000000  0.4287360000000  0.5234870000000 1.0
C      1  0.4412870000000  0.4649990000000  0.5623650000000 1.0
C      1  0.4412290000000  0.4926550000000  0.5702180000000 1.0
C      1  0.4384420000000  0.5442790000000  0.5578930000000 1.0
C      1  0.4385520000000  0.5644580000000  0.5370070000000 1.0
C      1  0.4403080000000  0.5745890000000  0.4829500000000 1.0
C      1  0.4407710000000  0.5625600000000  0.4561430000000 1.0
C      1  0.5315780000000  0.5077220000000  0.4935950000000 1.0
C      1  0.5575300000000  0.5153670000000  0.4793890000000 1.0
C      1  0.4625900000000  0.4947290000000  0.5027220000000 1.0
END
