TITL C-246646-6464-6 -0.0264786440094991 125000 -358.434349145426 0 0 54 (C3) n - 1
REM
REM in /rds/project/t2_vol4/rds-t2-cs072/BORA/CARBON/from-Arr/AIRSS/Generating-Clusters/GAP-ML-2020/Higher-Symm/SD-CG/HFTN-CG
REM
REM
REM
REM
REM
REM ./C.cell (b20cbc046b6831c77cfcea5457e17084)
REM AIRSS Version 0.9.1 bugfix July 2018 build 013d7b7c2542+ Fri, 06 Jul 2018 19:26:36 +0100
REM compiler GCC version 9.3.0
REM options -cpp -mtune=generic -march=x86-64 -g -O0
REM seed 330131556 838349538 -1373328133 -574388964 507741037 818379213 2139005840 -1238900001 -885540721 -1830412843 -263555415 -625647822 -1514143004 1549889978 -1822766142 -253053177 1067913682 -2013767587 -1384597838 568147951 1952778026 -538293019 -452632532 987322399 -1096120219 1225934866 -553370453 1862626518 697995344 -1562831917 131535183 -336157822 1409334633
REM
CELL 1.54180   50.00000   50.00000   50.00000   90.00000   90.00000   90.00000
LATT -1
SFAC C  
C      1  0.4379310000000  0.5257820000000  0.4653520000000 1.0
C      1  0.4379290000000  0.4571040000000  0.4950130000000 1.0
C      1  0.4379400000000  0.5171300000000  0.5396590000000 1.0
C      1  0.5110540000000  0.5049800000000  0.4518470000000 1.0
C      1  0.5110580000000  0.4558080000000  0.5197610000000 1.0
C      1  0.5110660000000  0.5392090000000  0.5283880000000 1.0
C      1  0.4758760000000  0.4874800000000  0.4874880000000 1.0
C      1  0.4758810000000  0.4954250000000  0.5171050000000 1.0
C      1  0.4758800000000  0.5171010000000  0.4954160000000 1.0
C      1  0.4482900000000  0.4777130000000  0.4767690000000 1.0
C      1  0.4482980000000  0.4910260000000  0.5309300000000 1.0
C      1  0.4482960000000  0.5312750000000  0.4923200000000 1.0
C      1  0.5494440000000  0.4653830000000  0.4960720000000 1.0
C      1  0.5494530000000  0.5139060000000  0.5319300000000 1.0
C      1  0.5494460000000  0.5206980000000  0.4719790000000 1.0
C      1  0.4868120000000  0.4394080000000  0.5108710000000 1.0
C      1  0.4868260000000  0.5397110000000  0.5470430000000 1.0
C      1  0.4868110000000  0.5208850000000  0.4420920000000 1.0
C      1  0.4833290000000  0.4418890000000  0.4825520000000 1.0
C      1  0.4833450000000  0.5139460000000  0.5590540000000 1.0
C      1  0.4833350000000  0.5441700000000  0.4584000000000 1.0
C      1  0.5564330000000  0.4884710000000  0.5416790000000 1.0
C      1  0.5564310000000  0.5418580000000  0.4891300000000 1.0
C      1  0.5564220000000  0.4696560000000  0.4691700000000 1.0
C      1  0.4454720000000  0.4631910000000  0.5223170000000 1.0
C      1  0.4454790000000  0.5377330000000  0.5207340000000 1.0
C      1  0.4454670000000  0.4990910000000  0.4569700000000 1.0
C      1  0.5562930000000  0.4654060000000  0.5242520000000 1.0
C      1  0.5562980000000  0.5382980000000  0.5178190000000 1.0
C      1  0.5562870000000  0.4962810000000  0.4579080000000 1.0
C      1  0.5220940000000  0.4628180000000  0.4945870000000 1.0
C      1  0.5221030000000  0.5139020000000  0.5349010000000 1.0
C      1  0.5220960000000  0.5232740000000  0.4705040000000 1.0
C      1  0.5334350000000  0.5783920000000  0.5073640000000 1.0
C      1  0.5334150000000  0.4671810000000  0.4284200000000 1.0
C      1  0.5334310000000  0.4544190000000  0.5642040000000 1.0
C      1  0.5345340000000  0.4933030000000  0.4379580000000 1.0
C      1  0.5345430000000  0.4496180000000  0.5368120000000 1.0
C      1  0.5345510000000  0.5570700000000  0.5252170000000 1.0
C      1  0.5325590000000  0.4810000000000  0.5627120000000 1.0
C      1  0.5325570000000  0.5638090000000  0.4850900000000 1.0
C      1  0.5325430000000  0.4551820000000  0.4521860000000 1.0
C      1  0.4920540000000  0.4755130000000  0.5331300000000 1.0
C      1  0.4920560000000  0.5409350000000  0.5046430000000 1.0
C      1  0.4920460000000  0.4835540000000  0.4622300000000 1.0
C      1  0.5067280000000  0.5475060000000  0.4786440000000 1.0
C      1  0.5067190000000  0.4577520000000  0.4695350000000 1.0
C      1  0.5067320000000  0.4947400000000  0.5518180000000 1.0
C      1  0.4706480000000  0.5486170000000  0.5254440000000 1.0
C      1  0.4706340000000  0.4977280000000  0.4451820000000 1.0
C      1  0.4706400000000  0.4536630000000  0.5293850000000 1.0
C      1  0.4570010000000  0.5463020000000  0.4686570000000 1.0
C      1  0.4569930000000  0.4497060000000  0.4755850000000 1.0
C      1  0.4570080000000  0.5040040000000  0.5557750000000 1.0
END
