TITL C-24485-3761-5 0.0271829799472654 125000 -195.340582773056 0 0 30 (C1) n - 1
REM
REM in /rds/project/t2_vol4/rds-t2-cs072/BORA/CARBON/from-Arr/AIRSS/Generating-Clusters/GAP-ML-2020/Higher-Symm/SD-CG/HFTN-CG
REM
REM
REM
REM
REM
REM ./C.cell (b20cbc046b6831c77cfcea5457e17084)
REM AIRSS Version 0.9.1 bugfix July 2018 build 013d7b7c2542+ Fri, 06 Jul 2018 19:26:36 +0100
REM compiler GCC version 9.3.0
REM options -cpp -mtune=generic -march=x86-64 -g -O0
REM seed 855932 -1504588210 1138709560 -18189643 -281542248 -1070603794 -1081692484 879232545 241171546 -1396414507 1636359148 -905369639 1577933715 -2021253672 -1944839859 1741969945 381058080 -929811807 -2113531338 -1392911875 1126398441 -1765363638 697806237 -611661981 1925951537 1430151155 1958607883 882799697 1308820862 -289338912 -843411153 -1957391618 55726013
REM
CELL 1.54180   50.00000   50.00000   50.00000   90.00000   90.00000   90.00000
LATT -1
SFAC C  
C      1  0.5297990000000  0.5347180000000  0.4868460000000 1.0
C      1  0.4607610000000  0.5084150000000  0.4887660000000 1.0
C      1  0.4996490000000  0.4632940000000  0.4924380000000 1.0
C      1  0.4699610000000  0.5306060000000  0.5013990000000 1.0
C      1  0.5397680000000  0.5160030000000  0.5085250000000 1.0
C      1  0.4805210000000  0.4588990000000  0.5141180000000 1.0
C      1  0.4522290000000  0.4632430000000  0.5075840000000 1.0
C      1  0.5421250000000  0.4884580000000  0.5033120000000 1.0
C      1  0.4915500000000  0.5442980000000  0.5115740000000 1.0
C      1  0.5265740000000  0.4691080000000  0.4981530000000 1.0
C      1  0.4455450000000  0.4862750000000  0.4999880000000 1.0
C      1  0.5130230000000  0.5546530000000  0.4949920000000 1.0
C      1  0.4842840000000  0.4880940000000  0.4224260000000 1.0
C      1  0.5305030000000  0.4821310000000  0.4309770000000 1.0
C      1  0.5056070000000  0.5274040000000  0.4390520000000 1.0
C      1  0.5278470000000  0.4830370000000  0.5707890000000 1.0
C      1  0.4773310000000  0.4791970000000  0.5638620000000 1.0
C      1  0.4960610000000  0.5206640000000  0.5597490000000 1.0
C      1  0.5233670000000  0.5073350000000  0.5591240000000 1.0
C      1  0.4739410000000  0.5065510000000  0.5674520000000 1.0
C      1  0.5060030000000  0.4702620000000  0.5610760000000 1.0
C      1  0.4800270000000  0.5105560000000  0.4382500000000 1.0
C      1  0.5275650000000  0.5082330000000  0.4390330000000 1.0
C      1  0.5045750000000  0.4747250000000  0.4387230000000 1.0
C      1  0.5253560000000  0.5281270000000  0.4587800000000 1.0
C      1  0.4743500000000  0.4975050000000  0.4644930000000 1.0
C      1  0.5041710000000  0.5363900000000  0.5361040000000 1.0
C      1  0.5296610000000  0.5229210000000  0.5347240000000 1.0
C      1  0.4868650000000  0.4642790000000  0.5416370000000 1.0
C      1  0.4909790000000  0.4746210000000  0.4660540000000 1.0
END
