TITL C-24482-3805-1 0.000936140429373899 125000 -68.2499598831852 0 0 11 (D3h) n - 1
REM
REM in /rds/project/t2_vol4/rds-t2-cs072/BORA/CARBON/from-Arr/AIRSS/Generating-Clusters/GAP-ML-2020/Higher-Symm/SD-CG/HFTN-CG
REM
REM
REM
REM
REM
REM ./C.cell (b20cbc046b6831c77cfcea5457e17084)
REM AIRSS Version 0.9.1 bugfix July 2018 build 013d7b7c2542+ Fri, 06 Jul 2018 19:26:36 +0100
REM compiler GCC version 9.3.0
REM options -cpp -mtune=generic -march=x86-64 -g -O0
REM seed -1233448219 871606681 -1028450569 -1075943102 -177683215 183238347 276893453 -1526120530 586763627 -37927275 206928308 -849961554 -1969886476 1672370830 -1850213001 342479101 -697891184 -433727146 -356092183 -1821950778 -1628690618 237225957 1455665215 -1239097453 1942056845 -174327566 -1575946820 1065116353 1831903481 66978218 -1700474943 748333972 -1831997706
REM
CELL 1.54180   50.00000   50.00000   50.00000   90.00000   90.00000   90.00000
LATT -1
SFAC C  
C      1  0.4755070000000  0.5096640000000  0.4793480000000 1.0
C      1  0.5218460000000  0.5149790000000  0.4787000000000 1.0
C      1  0.5032910000000  0.4721970000000  0.4798700000000 1.0
C      1  0.4759960000000  0.5106210000000  0.5220920000000 1.0
C      1  0.5223340000000  0.5159370000000  0.5214430000000 1.0
C      1  0.5037800000000  0.4731550000000  0.5226140000000 1.0
C      1  0.4615680000000  0.5162950000000  0.5007440000000 1.0
C      1  0.5345080000000  0.5246620000000  0.4997230000000 1.0
C      1  0.5053020000000  0.4573200000000  0.5015660000000 1.0
C      1  0.5007460000000  0.4999890000000  0.5258210000000 1.0
C      1  0.5001720000000  0.4988620000000  0.4755350000000 1.0
END
