TITL C-246640-9590-9 1187.99151516044 125000 -830.939982855005 0 0 122 (C1) n - 1
REM
REM in /rds/project/t2_vol4/rds-t2-cs072/BORA/CARBON/from-Arr/AIRSS/Generating-Clusters/GAP-ML-2020/Higher-Symm/SD-CG/HFTN-CG
REM
REM
REM
REM
REM
REM ./C.cell (b20cbc046b6831c77cfcea5457e17084)
REM AIRSS Version 0.9.1 bugfix July 2018 build 013d7b7c2542+ Fri, 06 Jul 2018 19:26:36 +0100
REM compiler GCC version 9.3.0
REM options -cpp -mtune=generic -march=x86-64 -g -O0
REM seed -691200846 -1891851242 35433854 -725790842 -440262080 1114581116 -868455912 -1274994220 982041011 1122317486 443007492 -516091996 542061698 -360017784 -1589216377 -561358148 -1402233870 10900370 -874070275 565142084 -1059177668 736047267 -289392849 279823056 1686120096 86330494 -1117855829 287681997 680502502 637096872 185969402 1519792273 -787152192
REM
CELL 1.54180   50.00000   50.00000   50.00000   90.00000   90.00000   90.00000
LATT -1
SFAC C  
C      1  0.5959290000000  0.5058500000000  0.4577110000000 1.0
C      1  0.4014750000000  0.4649830000000  0.4733240000000 1.0
C      1  0.5989780000000  0.4621510000000  0.5193520000000 1.0
C      1  0.4059250000000  0.4946830000000  0.5461140000000 1.0
C      1  0.5931830000000  0.5400370000000  0.5332850000000 1.0
C      1  0.4046420000000  0.5487400000000  0.4832710000000 1.0
C      1  0.5728910000000  0.4681670000000  0.5582370000000 1.0
C      1  0.4288320000000  0.5341930000000  0.5574510000000 1.0
C      1  0.5707150000000  0.5657190000000  0.4967090000000 1.0
C      1  0.4266940000000  0.5301340000000  0.4426650000000 1.0
C      1  0.5726970000000  0.4679200000000  0.4466930000000 1.0
C      1  0.4281170000000  0.4377650000000  0.4993100000000 1.0
C      1  0.5722030000000  0.5487670000000  0.4737030000000 1.0
C      1  0.4253780000000  0.5018770000000  0.4464530000000 1.0
C      1  0.5664130000000  0.4649230000000  0.4764620000000 1.0
C      1  0.4336760000000  0.4625000000000  0.5163160000000 1.0
C      1  0.5682380000000  0.4962590000000  0.5495320000000 1.0
C      1  0.4313290000000  0.5404720000000  0.5281540000000 1.0
C      1  0.5501430000000  0.4380440000000  0.4743140000000 1.0
C      1  0.4504250000000  0.4483340000000  0.5383150000000 1.0
C      1  0.5508650000000  0.5076590000000  0.5709550000000 1.0
C      1  0.4494980000000  0.5647970000000  0.5281990000000 1.0
C      1  0.5500740000000  0.5564860000000  0.4555610000000 1.0
C      1  0.4475630000000  0.4901360000000  0.4300730000000 1.0
C      1  0.4774410000000  0.5693700000000  0.4582190000000 1.0
C      1  0.5204700000000  0.4994030000000  0.4146110000000 1.0
C      1  0.4803100000000  0.4266020000000  0.4569490000000 1.0
C      1  0.5191850000000  0.4267970000000  0.5426620000000 1.0
C      1  0.4816050000000  0.5011760000000  0.5833640000000 1.0
C      1  0.5219770000000  0.5696850000000  0.5387880000000 1.0
C      1  0.4714420000000  0.4549080000000  0.4561370000000 1.0
C      1  0.5284260000000  0.4410500000000  0.5185110000000 1.0
C      1  0.4722350000000  0.4887510000000  0.5579720000000 1.0
C      1  0.5338110000000  0.5421780000000  0.5393790000000 1.0
C      1  0.4696000000000  0.5553030000000  0.4837830000000 1.0
C      1  0.5285920000000  0.5144800000000  0.4387320000000 1.0
C      1  0.4497450000000  0.4790670000000  0.4956270000000 1.0
C      1  0.5508430000000  0.4876160000000  0.5263800000000 1.0
C      1  0.4494290000000  0.5169180000000  0.5219890000000 1.0
C      1  0.5527420000000  0.5055340000000  0.5039210000000 1.0
C      1  0.4523720000000  0.5073090000000  0.4958480000000 1.0
C      1  0.5500150000000  0.4901540000000  0.4793140000000 1.0
C      1  0.5078170000000  0.5293680000000  0.5005210000000 1.0
C      1  0.4953020000000  0.5169760000000  0.4736790000000 1.0
C      1  0.5042100000000  0.4873650000000  0.4701350000000 1.0
C      1  0.4964330000000  0.4693320000000  0.4945260000000 1.0
C      1  0.5038600000000  0.4816030000000  0.5221990000000 1.0
C      1  0.4981590000000  0.5121530000000  0.5256320000000 1.0
C      1  0.5306830000000  0.4945040000000  0.4614790000000 1.0
C      1  0.4695690000000  0.4649470000000  0.4846450000000 1.0
C      1  0.5300970000000  0.4704560000000  0.5260420000000 1.0
C      1  0.4711710000000  0.5101300000000  0.5364530000000 1.0
C      1  0.5363870000000  0.5301250000000  0.5090740000000 1.0
C      1  0.4671500000000  0.5243580000000  0.4789390000000 1.0
C      1  0.4652800000000  0.4262190000000  0.5268310000000 1.0
C      1  0.5345760000000  0.4858810000000  0.5814140000000 1.0
C      1  0.4667220000000  0.5633470000000  0.5516690000000 1.0
C      1  0.5324860000000  0.5758520000000  0.4691400000000 1.0
C      1  0.4644950000000  0.5118710000000  0.4191530000000 1.0
C      1  0.5352300000000  0.4384070000000  0.4494560000000 1.0
C      1  0.4116790000000  0.4843100000000  0.5210200000000 1.0
C      1  0.5879750000000  0.5131170000000  0.5320450000000 1.0
C      1  0.4102060000000  0.5328450000000  0.5053750000000 1.0
C      1  0.5882220000000  0.5235790000000  0.4770420000000 1.0
C      1  0.4087800000000  0.4914840000000  0.4702300000000 1.0
C      1  0.5878050000000  0.4754290000000  0.4977650000000 1.0
C      1  0.4939130000000  0.4381440000000  0.4158740000000 1.0
C      1  0.5065390000000  0.3976650000000  0.5111700000000 1.0
C      1  0.4900370000000  0.4593020000000  0.5924570000000 1.0
C      1  0.5107670000000  0.5602770000000  0.5804580000000 1.0
C      1  0.4896410000000  0.6006740000000  0.4868850000000 1.0
C      1  0.5055800000000  0.5403650000000  0.4034370000000 1.0
C      1  0.5016940000000  0.5843340000000  0.5057730000000 1.0
C      1  0.4956120000000  0.5487170000000  0.4280950000000 1.0
C      1  0.5045220000000  0.4633650000000  0.4209990000000 1.0
C      1  0.4968740000000  0.4148450000000  0.4913190000000 1.0
C      1  0.5024840000000  0.4522480000000  0.5684310000000 1.0
C      1  0.4995990000000  0.5354500000000  0.5739380000000 1.0
C      1  0.5472620000000  0.5364930000000  0.5669520000000 1.0
C      1  0.4544130000000  0.5757280000000  0.5018370000000 1.0
C      1  0.5432770000000  0.5406820000000  0.4318480000000 1.0
C      1  0.4557370000000  0.4617790000000  0.4307560000000 1.0
C      1  0.5439630000000  0.4231130000000  0.4989290000000 1.0
C      1  0.4556890000000  0.4636550000000  0.5626530000000 1.0
C      1  0.5376290000000  0.5565200000000  0.5833220000000 1.0
C      1  0.4625400000000  0.6003960000000  0.4926740000000 1.0
C      1  0.5315550000000  0.5474540000000  0.4078260000000 1.0
C      1  0.4674900000000  0.4447010000000  0.4126820000000 1.0
C      1  0.5328220000000  0.3984670000000  0.5039170000000 1.0
C      1  0.4627030000000  0.4565220000000  0.5884100000000 1.0
C      1  0.5474920000000  0.4609140000000  0.5718810000000 1.0
C      1  0.4538820000000  0.5433780000000  0.5694870000000 1.0
C      1  0.5456110000000  0.5808930000000  0.4948340000000 1.0
C      1  0.4516360000000  0.5365070000000  0.4280230000000 1.0
C      1  0.5487620000000  0.4583740000000  0.4323300000000 1.0
C      1  0.4521350000000  0.4208840000000  0.5008580000000 1.0
C      1  0.4941240000000  0.4713850000000  0.4479180000000 1.0
C      1  0.5068170000000  0.4422080000000  0.4983930000000 1.0
C      1  0.4927290000000  0.4707520000000  0.5473310000000 1.0
C      1  0.5118680000000  0.5250410000000  0.5482370000000 1.0
C      1  0.4939850000000  0.5555870000000  0.5000220000000 1.0
C      1  0.5050390000000  0.5288530000000  0.4485930000000 1.0
C      1  0.5302740000000  0.4719320000000  0.4143600000000 1.0
C      1  0.4711660000000  0.4123410000000  0.4805580000000 1.0
C      1  0.5279290000000  0.4404250000000  0.5669420000000 1.0
C      1  0.4740540000000  0.5289930000000  0.5842720000000 1.0
C      1  0.5278000000000  0.5861870000000  0.5160670000000 1.0
C      1  0.4695830000000  0.5578700000000  0.4330700000000 1.0
C      1  0.5941280000000  0.4564290000000  0.5443300000000 1.0
C      1  0.4108020000000  0.5133420000000  0.5631550000000 1.0
C      1  0.5867170000000  0.5606600000000  0.5193100000000 1.0
C      1  0.4109500000000  0.5474680000000  0.4584760000000 1.0
C      1  0.5939500000000  0.4854070000000  0.4422210000000 1.0
C      1  0.4062690000000  0.4415460000000  0.4825980000000 1.0
C      1  0.5046660000000  0.4845300000000  0.5913650000000 1.0
C      1  0.4972490000000  0.5697520000000  0.5565270000000 1.0
C      1  0.5021320000000  0.5850900000000  0.4658380000000 1.0
C      1  0.4945100000000  0.5136080000000  0.4069910000000 1.0
C      1  0.5054890000000  0.4276630000000  0.4405890000000 1.0
C      1  0.4944180000000  0.4132730000000  0.5325950000000 1.0
C      1  0.5836350000000  0.5059900000000  0.5028210000000 1.0
C      1  0.4074400000000  0.5035830000000  0.4985400000000 1.0
END
