TITL C-24410-2463-9 0.124390810082858 125000 -625.648597216752 0 0 95 (C5) n - 1
REM
REM in /rds/project/t2_vol4/rds-t2-cs072/BORA/CARBON/from-Arr/AIRSS/Generating-Clusters/GAP-ML-2020/Higher-Symm/SD-CG/HFTN-CG
REM
REM
REM
REM
REM
REM ./C.cell (b20cbc046b6831c77cfcea5457e17084)
REM AIRSS Version 0.9.1 bugfix July 2018 build 013d7b7c2542+ Fri, 06 Jul 2018 19:26:36 +0100
REM compiler GCC version 9.3.0
REM options -cpp -mtune=generic -march=x86-64 -g -O0
REM seed -2621320 -1920082161 -1179246457 -1519824045 -1330260509 -837119602 1052222345 625466659 -674862117 1979979427 -11423648 -1774370321 1517599776 -2116668433 712404006 693898328 -63610505 1873047743 1887443884 -742671784 1124785118 -60984337 -1296730449 356039815 429528440 -2018640662 -2062640536 1853858665 -1109659601 -830787713 1557369944 -961451525 -551096042
REM
CELL 1.54180   50.00000   50.00000   50.00000   90.00000   90.00000   90.00000
LATT -1
SFAC C  
C      1  0.4341510000000  0.4970310000000  0.4563200000000 1.0
C      1  0.4341430000000  0.5406200000000  0.4836960000000 1.0
C      1  0.4341510000000  0.5280530000000  0.5336120000000 1.0
C      1  0.4341630000000  0.4766970000000  0.5370850000000 1.0
C      1  0.4341630000000  0.4575240000000  0.4893160000000 1.0
C      1  0.5635990000000  0.4970610000000  0.4563080000000 1.0
C      1  0.5635920000000  0.5406500000000  0.4836850000000 1.0
C      1  0.5635990000000  0.5280830000000  0.5336010000000 1.0
C      1  0.5636110000000  0.4767270000000  0.5370740000000 1.0
C      1  0.5636110000000  0.4575540000000  0.4893040000000 1.0
C      1  0.5134890000000  0.5495730000000  0.4294740000000 1.0
C      1  0.5134900000000  0.5823940000000  0.5253490000000 1.0
C      1  0.5135140000000  0.5013540000000  0.5861900000000 1.0
C      1  0.5135280000000  0.4184480000000  0.5279180000000 1.0
C      1  0.5135130000000  0.4482480000000  0.4310620000000 1.0
C      1  0.4842320000000  0.5495660000000  0.4294770000000 1.0
C      1  0.4842330000000  0.5823870000000  0.5253510000000 1.0
C      1  0.4842570000000  0.5013480000000  0.5861930000000 1.0
C      1  0.4842710000000  0.4184410000000  0.5279210000000 1.0
C      1  0.4842560000000  0.4482420000000  0.4310650000000 1.0
C      1  0.5139010000000  0.5747040000000  0.4475420000000 1.0
C      1  0.5139110000000  0.5729770000000  0.5548320000000 1.0
C      1  0.5139380000000  0.4704030000000  0.5863450000000 1.0
C      1  0.5139440000000  0.4087360000000  0.4985300000000 1.0
C      1  0.5139220000000  0.4731970000000  0.4127450000000 1.0
C      1  0.4838120000000  0.5746970000000  0.4475440000000 1.0
C      1  0.4838210000000  0.5729700000000  0.5548350000000 1.0
C      1  0.4838480000000  0.4703960000000  0.5863480000000 1.0
C      1  0.4838540000000  0.4087290000000  0.4985320000000 1.0
C      1  0.4838320000000  0.4731900000000  0.4127470000000 1.0
C      1  0.5193500000000  0.4785420000000  0.4671010000000 1.0
C      1  0.5193400000000  0.5246600000000  0.4694200000000 1.0
C      1  0.5193410000000  0.5367050000000  0.5139970000000 1.0
C      1  0.5193520000000  0.4980320000000  0.5392290000000 1.0
C      1  0.5193580000000  0.4620850000000  0.5102450000000 1.0
C      1  0.4784100000000  0.4785320000000  0.4671040000000 1.0
C      1  0.4784000000000  0.5246500000000  0.4694230000000 1.0
C      1  0.4784010000000  0.5366960000000  0.5140010000000 1.0
C      1  0.4784120000000  0.4980220000000  0.5392320000000 1.0
C      1  0.4784180000000  0.4620750000000  0.5102480000000 1.0
C      1  0.4543830000000  0.4752930000000  0.5006520000000 1.0
C      1  0.4543770000000  0.4917420000000  0.4767160000000 1.0
C      1  0.4543720000000  0.5195890000000  0.4849630000000 1.0
C      1  0.4543740000000  0.5203510000000  0.5139960000000 1.0
C      1  0.4543810000000  0.4929740000000  0.5236920000000 1.0
C      1  0.5433850000000  0.4753140000000  0.5006440000000 1.0
C      1  0.5433790000000  0.4917620000000  0.4767080000000 1.0
C      1  0.5433730000000  0.5196100000000  0.4849550000000 1.0
C      1  0.5433760000000  0.5203710000000  0.5139880000000 1.0
C      1  0.5433830000000  0.4929950000000  0.5236840000000 1.0
C      1  0.4631620000000  0.4175830000000  0.4836970000000 1.0
C      1  0.4631390000000  0.4900340000000  0.4165890000000 1.0
C      1  0.4631240000000  0.5762470000000  0.4647560000000 1.0
C      1  0.4631370000000  0.5570780000000  0.5616340000000 1.0
C      1  0.4631600000000  0.4590180000000  0.5733400000000 1.0
C      1  0.5346300000000  0.4175990000000  0.4836910000000 1.0
C      1  0.5346070000000  0.4900500000000  0.4165820000000 1.0
C      1  0.5345920000000  0.5762630000000  0.4647500000000 1.0
C      1  0.5346050000000  0.5570940000000  0.5616280000000 1.0
C      1  0.5346280000000  0.4590340000000  0.5733340000000 1.0
C      1  0.4109580000000  0.5238670000000  0.4919530000000 1.0
C      1  0.4109630000000  0.5150220000000  0.5202370000000 1.0
C      1  0.4109700000000  0.4853890000000  0.5205650000000 1.0
C      1  0.4109690000000  0.4759200000000  0.4924840000000 1.0
C      1  0.4109620000000  0.4997010000000  0.4748000000000 1.0
C      1  0.5867860000000  0.5239080000000  0.4919370000000 1.0
C      1  0.5867900000000  0.5150630000000  0.5202210000000 1.0
C      1  0.5867970000000  0.4854300000000  0.5205490000000 1.0
C      1  0.5867970000000  0.4759600000000  0.4924680000000 1.0
C      1  0.5867900000000  0.4997410000000  0.4747850000000 1.0
C      1  0.5467120000000  0.5332280000000  0.5578060000000 1.0
C      1  0.5467290000000  0.4552950000000  0.5494510000000 1.0
C      1  0.5467260000000  0.4391580000000  0.4727510000000 1.0
C      1  0.5467070000000  0.5071180000000  0.4337020000000 1.0
C      1  0.5466980000000  0.5652560000000  0.4862690000000 1.0
C      1  0.4510400000000  0.5332060000000  0.5578140000000 1.0
C      1  0.4510570000000  0.4552730000000  0.5494600000000 1.0
C      1  0.4510540000000  0.4391360000000  0.4727600000000 1.0
C      1  0.4510350000000  0.5070950000000  0.4337100000000 1.0
C      1  0.4510260000000  0.5652340000000  0.4862770000000 1.0
C      1  0.5287920000000  0.4533910000000  0.4540330000000 1.0
C      1  0.5287730000000  0.5293170000000  0.4414590000000 1.0
C      1  0.5287710000000  0.5647370000000  0.5097840000000 1.0
C      1  0.5287890000000  0.5107020000000  0.5645840000000 1.0
C      1  0.5288010000000  0.4418870000000  0.5301280000000 1.0
C      1  0.4689780000000  0.4533770000000  0.4540380000000 1.0
C      1  0.4689600000000  0.5293030000000  0.4414650000000 1.0
C      1  0.4689570000000  0.5647230000000  0.5097890000000 1.0
C      1  0.4689750000000  0.5106890000000  0.5645890000000 1.0
C      1  0.4689880000000  0.4418730000000  0.5301330000000 1.0
C      1  0.4988750000000  0.5009110000000  0.4607260000000 1.0
C      1  0.4988690000000  0.5376330000000  0.4887300000000 1.0
C      1  0.4988870000000  0.4761790000000  0.5312380000000 1.0
C      1  0.4988860000000  0.4629300000000  0.4869980000000 1.0
C      1  0.4988760000000  0.5223480000000  0.5323080000000 1.0
END
