TITL C-24487-3760-1 -0.0562571566014532 125000 -168.661455316351 0 0 25 (Cs) n - 1
REM
REM in /rds/project/t2_vol4/rds-t2-cs072/BORA/CARBON/from-Arr/AIRSS/Generating-Clusters/GAP-ML-2020/Higher-Symm/SD-CG/HFTN-CG
REM
REM
REM
REM
REM
REM ./C.cell (b20cbc046b6831c77cfcea5457e17084)
REM AIRSS Version 0.9.1 bugfix July 2018 build 013d7b7c2542+ Fri, 06 Jul 2018 19:26:36 +0100
REM compiler GCC version 9.3.0
REM options -cpp -mtune=generic -march=x86-64 -g -O0
REM seed -1095514342 -1571660319 -1579570013 1449873106 1700400708 297900767 480011006 -950779269 1782924849 -1938273164 -2105933395 -105247251 592154537 809724865 1664911974 -709485880 231180979 1232101999 1126246894 244686275 903238139 -887029081 359504497 -1336231480 198313033 486200456 -1106395866 867903195 1710961879 1990522877 -1810036177 1874384913 -342513715
REM
CELL 1.54180   50.00000   50.00000   50.00000   90.00000   90.00000   90.00000
LATT -1
SFAC C  
C      1  0.4585270000000  0.5139890000000  0.4798090000000 1.0
C      1  0.4583220000000  0.5229500000000  0.5072820000000 1.0
C      1  0.4586270000000  0.4998750000000  0.5249460000000 1.0
C      1  0.4587360000000  0.4763190000000  0.5084000000000 1.0
C      1  0.4584980000000  0.4851050000000  0.4807000000000 1.0
C      1  0.4939800000000  0.5271220000000  0.5360100000000 1.0
C      1  0.4994670000000  0.4764990000000  0.5334550000000 1.0
C      1  0.4943070000000  0.4568870000000  0.4866780000000 1.0
C      1  0.4975490000000  0.4985350000000  0.4576220000000 1.0
C      1  0.4973540000000  0.5403460000000  0.4869900000000 1.0
C      1  0.4830360000000  0.5005120000000  0.5406370000000 1.0
C      1  0.4832170000000  0.4614940000000  0.5132310000000 1.0
C      1  0.4819950000000  0.4750450000000  0.4674110000000 1.0
C      1  0.4832360000000  0.5228840000000  0.4673090000000 1.0
C      1  0.4816980000000  0.5390090000000  0.5123400000000 1.0
C      1  0.5216580000000  0.4542560000000  0.4854200000000 1.0
C      1  0.5261840000000  0.4982630000000  0.4631660000000 1.0
C      1  0.5260110000000  0.5354020000000  0.4892520000000 1.0
C      1  0.5213090000000  0.5293680000000  0.5381790000000 1.0
C      1  0.5278590000000  0.4809880000000  0.5272520000000 1.0
C      1  0.5373870000000  0.5314600000000  0.5155410000000 1.0
C      1  0.5375070000000  0.5078700000000  0.5309360000000 1.0
C      1  0.5376910000000  0.4684630000000  0.5032560000000 1.0
C      1  0.5376500000000  0.4749420000000  0.4758420000000 1.0
C      1  0.5381970000000  0.5224170000000  0.4683390000000 1.0
END
