TITL C-24411-2511-5 0.00779973360375225 125000 -39.9160321923492 0 0 7 (C1) n - 1
REM
REM in /rds/project/t2_vol4/rds-t2-cs072/BORA/CARBON/from-Arr/AIRSS/Generating-Clusters/GAP-ML-2020/Higher-Symm/SD-CG/HFTN-CG
REM
REM
REM
REM
REM
REM ./C.cell (b20cbc046b6831c77cfcea5457e17084)
REM AIRSS Version 0.9.1 bugfix July 2018 build 013d7b7c2542+ Fri, 06 Jul 2018 19:26:36 +0100
REM compiler GCC version 9.3.0
REM options -cpp -mtune=generic -march=x86-64 -g -O0
REM seed 1027214842 -2099534804 402527632 -1347431530 -1064445549 909741444 790400900 -1831190836 224617348 1840265993 1786789979 -1223172519 -165524084 144832390 1788020475 1961514458 -1933442326 -90118070 880546853 -638617437 -416099866 -1375593657 -914669525 -1178758606 -1008030665 163374772 -400508875 -252070300 -2055566739 -89392939 824274594 -989994749 1037528244
REM
CELL 1.54180   50.00000   50.00000   50.00000   90.00000   90.00000   90.00000
LATT -1
SFAC C  
C      1  0.4866250000000  0.5176420000000  0.5041900000000 1.0
C      1  0.4773840000000  0.5108660000000  0.4765920000000 1.0
C      1  0.5479710000000  0.4786240000000  0.5252270000000 1.0
C      1  0.5016250000000  0.4914420000000  0.5065740000000 1.0
C      1  0.4748410000000  0.5351320000000  0.4869110000000 1.0
C      1  0.5238210000000  0.4806390000000  0.5185870000000 1.0
C      1  0.4877330000000  0.4856560000000  0.4819190000000 1.0
END
