TITL C-24477-4007-6 -0.281448432683411 125000 -884.92872514822 0 0 129 (C1) n - 1
REM
REM in /rds/project/t2_vol4/rds-t2-cs072/BORA/CARBON/from-Arr/AIRSS/Generating-Clusters/GAP-ML-2020/Higher-Symm/SD-CG/HFTN-CG
REM
REM
REM
REM
REM
REM ./C.cell (b20cbc046b6831c77cfcea5457e17084)
REM AIRSS Version 0.9.1 bugfix July 2018 build 013d7b7c2542+ Fri, 06 Jul 2018 19:26:36 +0100
REM compiler GCC version 9.3.0
REM options -cpp -mtune=generic -march=x86-64 -g -O0
REM seed -1021452942 1485960545 373636206 -2110669630 148227861 731246513 -1164700719 -1787115366 80410197 -1396120029 -1006725868 -77566877 437275999 1594290715 -1060697893 357088697 -684189139 -264779593 -2102033417 -783735472 -1693885501 848828752 -101166623 -207978917 -920452130 956804416 -20100251 -859646466 250028043 881509006 -714765636 679522802 2036713625
REM
CELL 1.54180   50.00000   50.00000   50.00000   90.00000   90.00000   90.00000
LATT -1
SFAC C  
C      1  0.5007890000000  0.4791860000000  0.4245840000000 1.0
C      1  0.4998270000000  0.5204170000000  0.4093420000000 1.0
C      1  0.5029330000000  0.4797930000000  0.5811900000000 1.0
C      1  0.5009650000000  0.5217040000000  0.5930170000000 1.0
C      1  0.4780830000000  0.5020210000000  0.4227400000000 1.0
C      1  0.5199860000000  0.5002300000000  0.4105840000000 1.0
C      1  0.4799650000000  0.5024280000000  0.5808220000000 1.0
C      1  0.5219270000000  0.5009830000000  0.5935600000000 1.0
C      1  0.4312530000000  0.5206840000000  0.4263060000000 1.0
C      1  0.5647930000000  0.4800530000000  0.4279690000000 1.0
C      1  0.5672640000000  0.5211130000000  0.5742720000000 1.0
C      1  0.4341460000000  0.4800430000000  0.5714110000000 1.0
C      1  0.5195940000000  0.4331370000000  0.4279410000000 1.0
C      1  0.4793970000000  0.5648670000000  0.4273210000000 1.0
C      1  0.5208660000000  0.5671470000000  0.5738820000000 1.0
C      1  0.4803200000000  0.4341700000000  0.5719530000000 1.0
C      1  0.4506760000000  0.5010880000000  0.5837890000000 1.0
C      1  0.5503930000000  0.5003880000000  0.5881110000000 1.0
C      1  0.5483980000000  0.5011530000000  0.4147490000000 1.0
C      1  0.4486510000000  0.4992950000000  0.4154390000000 1.0
C      1  0.5016160000000  0.4504540000000  0.5843420000000 1.0
C      1  0.5001690000000  0.5501160000000  0.5876600000000 1.0
C      1  0.5005920000000  0.5486920000000  0.4141060000000 1.0
C      1  0.4984930000000  0.4501980000000  0.4166940000000 1.0
C      1  0.4676930000000  0.4924740000000  0.4708040000000 1.0
C      1  0.5302020000000  0.5080780000000  0.4894990000000 1.0
C      1  0.5304860000000  0.4929130000000  0.5159160000000 1.0
C      1  0.4736460000000  0.5058510000000  0.5207130000000 1.0
C      1  0.4876810000000  0.4728630000000  0.4774670000000 1.0
C      1  0.5078890000000  0.5298300000000  0.4887830000000 1.0
C      1  0.4924670000000  0.5293720000000  0.5145730000000 1.0
C      1  0.5083590000000  0.4725280000000  0.5228600000000 1.0
C      1  0.4371820000000  0.5411030000000  0.4462290000000 1.0
C      1  0.5599810000000  0.4594030000000  0.4475450000000 1.0
C      1  0.5629090000000  0.5424610000000  0.5547800000000 1.0
C      1  0.4398880000000  0.4599920000000  0.5512390000000 1.0
C      1  0.5400220000000  0.4389550000000  0.4474610000000 1.0
C      1  0.4583210000000  0.5606320000000  0.4465740000000 1.0
C      1  0.5423500000000  0.5628960000000  0.5545820000000 1.0
C      1  0.4603010000000  0.4401390000000  0.5515960000000 1.0
C      1  0.5965330000000  0.4912260000000  0.5123510000000 1.0
C      1  0.4031310000000  0.5087530000000  0.5107650000000 1.0
C      1  0.4020940000000  0.4904640000000  0.4877850000000 1.0
C      1  0.5965130000000  0.5090780000000  0.4891740000000 1.0
C      1  0.4908570000000  0.5957990000000  0.5119640000000 1.0
C      1  0.5084330000000  0.4032560000000  0.5107850000000 1.0
C      1  0.4898930000000  0.4035280000000  0.4881900000000 1.0
C      1  0.5086780000000  0.5960700000000  0.4887710000000 1.0
C      1  0.5371720000000  0.5583880000000  0.4534000000000 1.0
C      1  0.4591100000000  0.4394470000000  0.4499290000000 1.0
C      1  0.4626290000000  0.5583200000000  0.5480160000000 1.0
C      1  0.5387790000000  0.4405290000000  0.5487140000000 1.0
C      1  0.5582260000000  0.5374520000000  0.4536390000000 1.0
C      1  0.4372600000000  0.4601050000000  0.4492090000000 1.0
C      1  0.5592590000000  0.4624000000000  0.5489380000000 1.0
C      1  0.4412960000000  0.5375120000000  0.5476520000000 1.0
C      1  0.4221720000000  0.5555270000000  0.5335970000000 1.0
C      1  0.5791110000000  0.4438480000000  0.5351470000000 1.0
C      1  0.5783270000000  0.5563740000000  0.4656420000000 1.0
C      1  0.4189020000000  0.4424720000000  0.4649930000000 1.0
C      1  0.5569780000000  0.4216620000000  0.5344720000000 1.0
C      1  0.4438520000000  0.5779890000000  0.5345440000000 1.0
C      1  0.5559860000000  0.5785170000000  0.4655340000000 1.0
C      1  0.4421080000000  0.4198910000000  0.4649870000000 1.0
C      1  0.4178780000000  0.5000370000000  0.5588090000000 1.0
C      1  0.5820840000000  0.5004360000000  0.5611090000000 1.0
C      1  0.5809350000000  0.5000210000000  0.4410050000000 1.0
C      1  0.4151790000000  0.5002010000000  0.4383560000000 1.0
C      1  0.5002940000000  0.4178970000000  0.5593540000000 1.0
C      1  0.5000810000000  0.5816150000000  0.5604780000000 1.0
C      1  0.4994870000000  0.5806850000000  0.4405800000000 1.0
C      1  0.4990830000000  0.4174450000000  0.4400420000000 1.0
C      1  0.5049310000000  0.5250610000000  0.5404280000000 1.0
C      1  0.5060630000000  0.4847340000000  0.5508610000000 1.0
C      1  0.5001690000000  0.5202850000000  0.4618810000000 1.0
C      1  0.5081750000000  0.4765290000000  0.4557440000000 1.0
C      1  0.5251680000000  0.5061320000000  0.5412240000000 1.0
C      1  0.4846770000000  0.5048590000000  0.5499250000000 1.0
C      1  0.5205600000000  0.4995470000000  0.4629180000000 1.0
C      1  0.4762830000000  0.5108280000000  0.4518630000000 1.0
C      1  0.5902310000000  0.4587250000000  0.5133360000000 1.0
C      1  0.4106110000000  0.5406190000000  0.5121770000000 1.0
C      1  0.4090540000000  0.4582380000000  0.4870230000000 1.0
C      1  0.5908170000000  0.5421350000000  0.4871960000000 1.0
C      1  0.4585270000000  0.5895010000000  0.5129130000000 1.0
C      1  0.5417160000000  0.4105990000000  0.5126420000000 1.0
C      1  0.4579790000000  0.4098050000000  0.4867930000000 1.0
C      1  0.5415720000000  0.5907650000000  0.4871140000000 1.0
C      1  0.5655680000000  0.4802310000000  0.5726450000000 1.0
C      1  0.4331730000000  0.5208410000000  0.5707270000000 1.0
C      1  0.4307020000000  0.4788930000000  0.4265900000000 1.0
C      1  0.5650230000000  0.5205050000000  0.4297750000000 1.0
C      1  0.4800370000000  0.5649130000000  0.5718700000000 1.0
C      1  0.5214360000000  0.4327430000000  0.5714700000000 1.0
C      1  0.4779020000000  0.4325600000000  0.4278310000000 1.0
C      1  0.5201200000000  0.5649900000000  0.4293600000000 1.0
C      1  0.5028390000000  0.5781360000000  0.5314530000000 1.0
C      1  0.4983930000000  0.4228540000000  0.5297430000000 1.0
C      1  0.4969630000000  0.5778610000000  0.4696950000000 1.0
C      1  0.5002220000000  0.4233470000000  0.4693650000000 1.0
C      1  0.5788570000000  0.5030170000000  0.5320620000000 1.0
C      1  0.4225090000000  0.4978210000000  0.5293090000000 1.0
C      1  0.5779900000000  0.4975880000000  0.4702560000000 1.0
C      1  0.4199790000000  0.5016320000000  0.4677640000000 1.0
C      1  0.4586600000000  0.5628820000000  0.4982430000000 1.0
C      1  0.5398310000000  0.4377930000000  0.4992990000000 1.0
C      1  0.5422470000000  0.5648480000000  0.5027170000000 1.0
C      1  0.4589220000000  0.4374800000000  0.4997310000000 1.0
C      1  0.5633090000000  0.4591710000000  0.4991740000000 1.0
C      1  0.4375520000000  0.5392030000000  0.4982960000000 1.0
C      1  0.5650200000000  0.5423770000000  0.5029150000000 1.0
C      1  0.4370030000000  0.4598870000000  0.4991950000000 1.0
C      1  0.5199050000000  0.4455620000000  0.5236270000000 1.0
C      1  0.4805350000000  0.5548110000000  0.5224150000000 1.0
C      1  0.4776730000000  0.4454580000000  0.4749780000000 1.0
C      1  0.5198400000000  0.5551940000000  0.4801810000000 1.0
C      1  0.4463140000000  0.5181560000000  0.5220480000000 1.0
C      1  0.5558150000000  0.4805660000000  0.5233900000000 1.0
C      1  0.4426100000000  0.4801980000000  0.4726700000000 1.0
C      1  0.5553860000000  0.5201970000000  0.4806310000000 1.0
C      1  0.4687880000000  0.5691780000000  0.4715670000000 1.0
C      1  0.5286640000000  0.4319970000000  0.4722980000000 1.0
C      1  0.5318030000000  0.5713800000000  0.5295690000000 1.0
C      1  0.4702940000000  0.4319080000000  0.5268650000000 1.0
C      1  0.5690270000000  0.4695510000000  0.4724070000000 1.0
C      1  0.4294190000000  0.5299570000000  0.4709630000000 1.0
C      1  0.5715810000000  0.5319180000000  0.5298830000000 1.0
C      1  0.4311020000000  0.4699050000000  0.5265290000000 1.0
C      1  0.4868040000000  0.4824450000000  0.5068340000000 1.0
END
