TITL C-24477-4007-1 -0.0131025468058791 125000 -41.8553018939973 0 0 7 (D7h) n - 1
REM
REM in /rds/project/t2_vol4/rds-t2-cs072/BORA/CARBON/from-Arr/AIRSS/Generating-Clusters/GAP-ML-2020/Higher-Symm/SD-CG/HFTN-CG
REM
REM
REM
REM
REM
REM ./C.cell (b20cbc046b6831c77cfcea5457e17084)
REM AIRSS Version 0.9.1 bugfix July 2018 build 013d7b7c2542+ Fri, 06 Jul 2018 19:26:36 +0100
REM compiler GCC version 9.3.0
REM options -cpp -mtune=generic -march=x86-64 -g -O0
REM seed -1204609533 1815392357 515022588 -1939785844 1515169181 972997429 1779229177 -1535672808 219863422 -1174286460 -2070791016 523254234 -177732233 -738688525 -1983544748 -927636973 989588263 -2117700112 2131646196 -1726693590 931384222 -1361483836 -1932793545 29797344 1273617587 1767246610 809363236 429912095 -1875812430 354572475 -1641798696 1124266497 -505517559
REM
CELL 1.54180   50.00000   50.00000   50.00000   90.00000   90.00000   90.00000
LATT -1
SFAC C  
C      1  0.5303230000000  0.5024400000000  0.5000000000000 1.0
C      1  0.5169990000000  0.5252290000000  0.5000000000000 1.0
C      1  0.4908740000000  0.5290200000000  0.5000000000000 1.0
C      1  0.4716210000000  0.5109590000000  0.5000000000000 1.0
C      1  0.4737380000000  0.4846450000000  0.5000000000000 1.0
C      1  0.4956310000000  0.4698940000000  0.5000000000000 1.0
C      1  0.5208130000000  0.4778140000000  0.5000000000000 1.0
END
