TITL C-24401-2425-6 -225.154190528972 125000 -997.227305279984 0 0 141 (C1) n - 1
REM
REM in /rds/project/t2_vol4/rds-t2-cs072/BORA/CARBON/from-Arr/AIRSS/Generating-Clusters/GAP-ML-2020/Higher-Symm/SD-CG/HFTN-CG
REM
REM
REM
REM
REM
REM ./C.cell (b20cbc046b6831c77cfcea5457e17084)
REM AIRSS Version 0.9.1 bugfix July 2018 build 013d7b7c2542+ Fri, 06 Jul 2018 19:26:36 +0100
REM compiler GCC version 9.3.0
REM options -cpp -mtune=generic -march=x86-64 -g -O0
REM seed 517060221 194586365 -845296234 -969693455 -1358935968 779368510 1855235929 287053985 1585396912 -268087544 -217183278 -1899935633 -2117079109 889342049 -1982003838 -1196173412 -964327907 -1415069243 175572145 -1665720429 -1857152086 10977302 -1308035759 1296182310 -513038965 1228770647 -402140471 1965908421 1345973050 -1660525861 -652217728 650508531 -400623559
REM
CELL 1.54180   50.00000   50.00000   50.00000   90.00000   90.00000   90.00000
LATT -1
SFAC C  
C      1  0.4179750000000  0.4771110000000  0.5585320000000 1.0
C      1  0.5297110000000  0.4772940000000  0.5978460000000 1.0
C      1  0.6012850000000  0.4768610000000  0.5015250000000 1.0
C      1  0.5324130000000  0.4781190000000  0.4042990000000 1.0
C      1  0.4196960000000  0.4751110000000  0.4391620000000 1.0
C      1  0.4680060000000  0.5154400000000  0.5857540000000 1.0
C      1  0.5709460000000  0.5138760000000  0.5570210000000 1.0
C      1  0.5762190000000  0.5156040000000  0.4494950000000 1.0
C      1  0.4719040000000  0.5167710000000  0.4116730000000 1.0
C      1  0.4099250000000  0.5148920000000  0.4956640000000 1.0
C      1  0.5661630000000  0.4354700000000  0.4499380000000 1.0
C      1  0.4748380000000  0.4368200000000  0.4245580000000 1.0
C      1  0.4194170000000  0.4353220000000  0.5015170000000 1.0
C      1  0.4749810000000  0.4345400000000  0.5803310000000 1.0
C      1  0.5609210000000  0.4439260000000  0.5422800000000 1.0
C      1  0.5491050000000  0.5204820000000  0.4895570000000 1.0
C      1  0.5040740000000  0.5172100000000  0.4513950000000 1.0
C      1  0.4545760000000  0.5225810000000  0.4802990000000 1.0
C      1  0.4682630000000  0.5179480000000  0.5362570000000 1.0
C      1  0.5249120000000  0.5169920000000  0.5421690000000 1.0
C      1  0.5536300000000  0.4984740000000  0.4399020000000 1.0
C      1  0.4460590000000  0.5057710000000  0.4164290000000 1.0
C      1  0.4231830000000  0.4980110000000  0.5163170000000 1.0
C      1  0.4914760000000  0.4980010000000  0.5811790000000 1.0
C      1  0.5727760000000  0.4959280000000  0.5327900000000 1.0
C      1  0.4745260000000  0.4879820000000  0.5346000000000 1.0
C      1  0.5242770000000  0.4871250000000  0.5360520000000 1.0
C      1  0.5464010000000  0.4920250000000  0.4877980000000 1.0
C      1  0.4984960000000  0.4879500000000  0.4556940000000 1.0
C      1  0.4549090000000  0.4940720000000  0.4785300000000 1.0
C      1  0.5254350000000  0.5924650000000  0.5077430000000 1.0
C      1  0.5159790000000  0.5932010000000  0.4785100000000 1.0
C      1  0.4850760000000  0.5937330000000  0.4782250000000 1.0
C      1  0.4753660000000  0.5930500000000  0.5075670000000 1.0
C      1  0.5004340000000  0.5924930000000  0.5257430000000 1.0
C      1  0.4631720000000  0.4603970000000  0.4121650000000 1.0
C      1  0.4042860000000  0.4589650000000  0.5082230000000 1.0
C      1  0.4772660000000  0.4587070000000  0.5969470000000 1.0
C      1  0.5846640000000  0.4596730000000  0.5512080000000 1.0
C      1  0.5740010000000  0.4593630000000  0.4355320000000 1.0
C      1  0.5221630000000  0.4209840000000  0.5570640000000 1.0
C      1  0.5601280000000  0.4193490000000  0.4944110000000 1.0
C      1  0.5160880000000  0.4189300000000  0.4386300000000 1.0
C      1  0.4498690000000  0.4194120000000  0.4687660000000 1.0
C      1  0.4529580000000  0.4200700000000  0.5407170000000 1.0
C      1  0.4956720000000  0.4105080000000  0.4553240000000 1.0
C      1  0.4563800000000  0.4105110000000  0.4945070000000 1.0
C      1  0.4796940000000  0.4126120000000  0.5408480000000 1.0
C      1  0.5290070000000  0.4130940000000  0.5312330000000 1.0
C      1  0.5409640000000  0.4091280000000  0.4766010000000 1.0
C      1  0.6030280000000  0.5030110000000  0.4887850000000 1.0
C      1  0.5196260000000  0.5041670000000  0.3999170000000 1.0
C      1  0.4124620000000  0.5014020000000  0.4479770000000 1.0
C      1  0.4242100000000  0.5033870000000  0.5697560000000 1.0
C      1  0.5424580000000  0.5033690000000  0.5950890000000 1.0
C      1  0.5422340000000  0.4186610000000  0.4507100000000 1.0
C      1  0.4700910000000  0.4201770000000  0.4485740000000 1.0
C      1  0.4400970000000  0.4196520000000  0.5150530000000 1.0
C      1  0.4941010000000  0.4201570000000  0.5633010000000 1.0
C      1  0.5536570000000  0.4221700000000  0.5220880000000 1.0
C      1  0.5010620000000  0.6237800000000  0.5251450000000 1.0
C      1  0.5247700000000  0.6238280000000  0.5078670000000 1.0
C      1  0.5155280000000  0.6245750000000  0.4800670000000 1.0
C      1  0.4862000000000  0.6249750000000  0.4801840000000 1.0
C      1  0.4772120000000  0.6243840000000  0.5081320000000 1.0
C      1  0.4510980000000  0.4719040000000  0.5927960000000 1.0
C      1  0.5722760000000  0.4718210000000  0.5752440000000 1.0
C      1  0.5926330000000  0.4720910000000  0.4545640000000 1.0
C      1  0.4855880000000  0.4730880000000  0.3991970000000 1.0
C      1  0.3999200000000  0.4715290000000  0.4819030000000 1.0
C      1  0.5486350000000  0.4584010000000  0.5847760000000 1.0
C      1  0.5948030000000  0.4581410000000  0.4795180000000 1.0
C      1  0.5101580000000  0.4589300000000  0.4033840000000 1.0
C      1  0.4122850000000  0.4567670000000  0.4606070000000 1.0
C      1  0.4347510000000  0.4581030000000  0.5737520000000 1.0
C      1  0.4712050000000  0.5777750000000  0.4576030000000 1.0
C      1  0.4509980000000  0.5776250000000  0.5143210000000 1.0
C      1  0.4999110000000  0.5767100000000  0.5505980000000 1.0
C      1  0.5490350000000  0.5764740000000  0.5156980000000 1.0
C      1  0.5310580000000  0.5779950000000  0.4582310000000 1.0
C      1  0.4828460000000  0.4787150000000  0.5594660000000 1.0
C      1  0.5490640000000  0.4744720000000  0.5319770000000 1.0
C      1  0.5442160000000  0.4809660000000  0.4630500000000 1.0
C      1  0.4761200000000  0.4782160000000  0.4692550000000 1.0
C      1  0.4439160000000  0.4816330000000  0.5005450000000 1.0
C      1  0.4506290000000  0.5682740000000  0.5420820000000 1.0
C      1  0.5258580000000  0.5675770000000  0.5598010000000 1.0
C      1  0.5660520000000  0.5680150000000  0.4938550000000 1.0
C      1  0.5155880000000  0.5690330000000  0.4352610000000 1.0
C      1  0.4448270000000  0.5675540000000  0.4638360000000 1.0
C      1  0.4381980000000  0.5221080000000  0.5276690000000 1.0
C      1  0.5069470000000  0.5212540000000  0.5681020000000 1.0
C      1  0.5674120000000  0.5211320000000  0.5153980000000 1.0
C      1  0.5345030000000  0.5218830000000  0.4406750000000 1.0
C      1  0.4545580000000  0.5322190000000  0.4520640000000 1.0
C      1  0.5959540000000  0.5001060000000  0.4608800000000 1.0
C      1  0.4911660000000  0.5008950000000  0.3979450000000 1.0
C      1  0.4013050000000  0.4994860000000  0.4746080000000 1.0
C      1  0.4452940000000  0.5000690000000  0.5889700000000 1.0
C      1  0.5670980000000  0.4997030000000  0.5803490000000 1.0
C      1  0.5028390000000  0.4359390000000  0.4187120000000 1.0
C      1  0.4251330000000  0.4345440000000  0.4732920000000 1.0
C      1  0.4499540000000  0.4349580000000  0.5659110000000 1.0
C      1  0.5442470000000  0.4375250000000  0.5656300000000 1.0
C      1  0.5774250000000  0.4353140000000  0.4765260000000 1.0
C      1  0.4777030000000  0.5332230000000  0.5634340000000 1.0
C      1  0.5542110000000  0.5327380000000  0.5413210000000 1.0
C      1  0.5563320000000  0.5345340000000  0.4609510000000 1.0
C      1  0.4801500000000  0.5331150000000  0.4356640000000 1.0
C      1  0.4319200000000  0.5349040000000  0.4981510000000 1.0
C      1  0.5309400000000  0.5283940000000  0.4116630000000 1.0
C      1  0.4297320000000  0.5210000000000  0.4353730000000 1.0
C      1  0.4231190000000  0.5273660000000  0.5534350000000 1.0
C      1  0.5266690000000  0.5273870000000  0.5903560000000 1.0
C      1  0.5942770000000  0.5268260000000  0.5029370000000 1.0
C      1  0.4850230000000  0.4629590000000  0.4930290000000 1.0
C      1  0.4667050000000  0.4709680000000  0.5134040000000 1.0
C      1  0.5008670000000  0.4730160000000  0.5401390000000 1.0
C      1  0.5330460000000  0.4759230000000  0.5073150000000 1.0
C      1  0.5186220000000  0.4697840000000  0.4642460000000 1.0
C      1  0.5297010000000  0.5525650000000  0.5826870000000 1.0
C      1  0.5883560000000  0.5520280000000  0.4963400000000 1.0
C      1  0.5257210000000  0.5545010000000  0.4138970000000 1.0
C      1  0.4338450000000  0.5500000000000  0.4437380000000 1.0
C      1  0.4303010000000  0.5529010000000  0.5531750000000 1.0
C      1  0.4090420000000  0.4768650000000  0.5310180000000 1.0
C      1  0.5008420000000  0.4766640000000  0.5994750000000 1.0
C      1  0.5947900000000  0.4768880000000  0.5295600000000 1.0
C      1  0.5568110000000  0.4774450000000  0.4196990000000 1.0
C      1  0.4410360000000  0.4774710000000  0.4193310000000 1.0
C      1  0.5031610000000  0.5314360000000  0.4763990000000 1.0
C      1  0.4791350000000  0.5329210000000  0.4903140000000 1.0
C      1  0.4845660000000  0.5318690000000  0.5174060000000 1.0
C      1  0.5121890000000  0.5312420000000  0.5207200000000 1.0
C      1  0.5237310000000  0.5323220000000  0.4952480000000 1.0
C      1  0.5468310000000  0.5621430000000  0.5403540000000 1.0
C      1  0.5539630000000  0.5637920000000  0.4675350000000 1.0
C      1  0.4875430000000  0.5631200000000  0.4392680000000 1.0
C      1  0.4375650000000  0.5640890000000  0.4926220000000 1.0
C      1  0.4756760000000  0.5626170000000  0.5560880000000 1.0
C      1  0.5127580000000  0.4599820000000  0.4921440000000 1.0
END
