TITL C-24415-2497-6 -0.00195463931675091 125000 -305.686244415916 0 0 44 (C3h) n - 1
REM
REM in /rds/project/t2_vol4/rds-t2-cs072/BORA/CARBON/from-Arr/AIRSS/Generating-Clusters/GAP-ML-2020/Higher-Symm/SD-CG/HFTN-CG
REM
REM
REM
REM
REM
REM ./C.cell (b20cbc046b6831c77cfcea5457e17084)
REM AIRSS Version 0.9.1 bugfix July 2018 build 013d7b7c2542+ Fri, 06 Jul 2018 19:26:36 +0100
REM compiler GCC version 9.3.0
REM options -cpp -mtune=generic -march=x86-64 -g -O0
REM seed -1006568928 -978500739 518932010 -1780295493 655105064 -486501588 1945253675 1869632394 -2001997267 -829644490 -746852903 1883660820 -1003574903 -1483141770 -388019837 -80033007 1346087532 1783698945 2012402714 -2131513100 -438661438 -260481086 1739247465 1678166000 -1104287357 374183421 -2078862202 1763777882 33443903 273914751 -728080480 398484973 -710878369
REM
CELL 1.54180   50.00000   50.00000   50.00000   90.00000   90.00000   90.00000
LATT -1
SFAC C  
C      1  0.5361880000000  0.5144940000000  0.4281620000000 1.0
C      1  0.4190280000000  0.5127090000000  0.5049900000000 1.0
C      1  0.5441320000000  0.5148370000000  0.5680510000000 1.0
C      1  0.5365970000000  0.4893270000000  0.4282000000000 1.0
C      1  0.4194360000000  0.4875420000000  0.5050290000000 1.0
C      1  0.5445410000000  0.4896700000000  0.5680900000000 1.0
C      1  0.5520260000000  0.4870920000000  0.5013090000000 1.0
C      1  0.4750880000000  0.4857720000000  0.4551520000000 1.0
C      1  0.4735870000000  0.4858850000000  0.5448700000000 1.0
C      1  0.5515330000000  0.5174520000000  0.5012630000000 1.0
C      1  0.4745950000000  0.5161320000000  0.4551050000000 1.0
C      1  0.4730940000000  0.5162450000000  0.5448230000000 1.0
C      1  0.4906010000000  0.4627450000000  0.4618840000000 1.0
C      1  0.4721970000000  0.4625480000000  0.5284480000000 1.0
C      1  0.5390370000000  0.4636070000000  0.5111050000000 1.0
C      1  0.4893520000000  0.5396710000000  0.4617660000000 1.0
C      1  0.4709480000000  0.5394740000000  0.5283310000000 1.0
C      1  0.5377880000000  0.5405330000000  0.5109870000000 1.0
C      1  0.5387980000000  0.5289730000000  0.4526350000000 1.0
C      1  0.4385830000000  0.5274040000000  0.4902570000000 1.0
C      1  0.5212660000000  0.5288510000000  0.5582450000000 1.0
C      1  0.5396740000000  0.4750140000000  0.4527180000000 1.0
C      1  0.4394590000000  0.4734450000000  0.4903390000000 1.0
C      1  0.5221420000000  0.4748910000000  0.5583280000000 1.0
C      1  0.4957700000000  0.5549990000000  0.5268810000000 1.0
C      1  0.5237740000000  0.5553970000000  0.4899650000000 1.0
C      1  0.4778070000000  0.5546420000000  0.4841690000000 1.0
C      1  0.4975100000000  0.4478330000000  0.5270450000000 1.0
C      1  0.5255140000000  0.4482310000000  0.4901300000000 1.0
C      1  0.4795470000000  0.4474760000000  0.4843330000000 1.0
C      1  0.4596040000000  0.4584070000000  0.5019220000000 1.0
C      1  0.5224530000000  0.4594790000000  0.5353400000000 1.0
C      1  0.5199670000000  0.4593290000000  0.4641940000000 1.0
C      1  0.4582290000000  0.5431230000000  0.5017920000000 1.0
C      1  0.5210780000000  0.5441950000000  0.5352100000000 1.0
C      1  0.5185920000000  0.5440450000000  0.4640640000000 1.0
C      1  0.5567210000000  0.4880460000000  0.4721090000000 1.0
C      1  0.4474340000000  0.4862620000000  0.4656700000000 1.0
C      1  0.4965000000000  0.4872090000000  0.5635470000000 1.0
C      1  0.5562580000000  0.5165610000000  0.4720650000000 1.0
C      1  0.4469710000000  0.5147770000000  0.4656260000000 1.0
C      1  0.4960370000000  0.5157230000000  0.5635040000000 1.0
C      1  0.4989730000000  0.5638950000000  0.5003250000000 1.0
C      1  0.5010010000000  0.4389650000000  0.5005160000000 1.0
END
