TITL C-24495-4063-1 -0.00116532709595753 125000 -276.185795853825 0 0 43 (C1) n - 1
REM
REM in /rds/project/t2_vol4/rds-t2-cs072/BORA/CARBON/from-Arr/AIRSS/Generating-Clusters/GAP-ML-2020/Higher-Symm/SD-CG/HFTN-CG
REM
REM
REM
REM
REM
REM ./C.cell (b20cbc046b6831c77cfcea5457e17084)
REM AIRSS Version 0.9.1 bugfix July 2018 build 013d7b7c2542+ Fri, 06 Jul 2018 19:26:36 +0100
REM compiler GCC version 9.3.0
REM options -cpp -mtune=generic -march=x86-64 -g -O0
REM seed -2067986942 1154633107 29310012 -2026320779 167338596 -2065975279 -973018226 1439738493 58213531 1017837796 1598709171 -515090554 -2032047028 412395946 -1618457571 1874683093 1529971409 -1680863038 892674136 214032018 1780896732 -1477516652 -444296505 -152495165 685163694 -2052920094 -705109226 -933210642 815871418 -54597266 362516350 -1949467776 -337244604
REM
CELL 1.54180   50.00000   50.00000   50.00000   90.00000   90.00000   90.00000
LATT -1
SFAC C  
C      1  0.5054340000000  0.4541230000000  0.5458740000000 1.0
C      1  0.5318620000000  0.4518710000000  0.5336870000000 1.0
C      1  0.5373450000000  0.4381590000000  0.5108210000000 1.0
C      1  0.5360330000000  0.4409900000000  0.4851850000000 1.0
C      1  0.5308840000000  0.4581330000000  0.4651520000000 1.0
C      1  0.5044400000000  0.4650780000000  0.4519870000000 1.0
C      1  0.4790960000000  0.4580300000000  0.4590230000000 1.0
C      1  0.4601810000000  0.4753040000000  0.4727540000000 1.0
C      1  0.4513610000000  0.4770190000000  0.5012630000000 1.0
C      1  0.4589720000000  0.4634170000000  0.5274560000000 1.0
C      1  0.4808760000000  0.4438780000000  0.5331070000000 1.0
C      1  0.4962050000000  0.5696280000000  0.5499210000000 1.0
C      1  0.5203020000000  0.5653390000000  0.5402900000000 1.0
C      1  0.5408390000000  0.5674330000000  0.5244000000000 1.0
C      1  0.5302060000000  0.5725320000000  0.4983180000000 1.0
C      1  0.5353430000000  0.5615110000000  0.4727630000000 1.0
C      1  0.5145320000000  0.5546270000000  0.4593490000000 1.0
C      1  0.4903360000000  0.5417750000000  0.4567930000000 1.0
C      1  0.4672990000000  0.5500470000000  0.4706220000000 1.0
C      1  0.4549060000000  0.5554850000000  0.4918500000000 1.0
C      1  0.4564630000000  0.5642300000000  0.5168760000000 1.0
C      1  0.4759990000000  0.5690560000000  0.5329820000000 1.0
C      1  0.4866860000000  0.4975830000000  0.5542420000000 1.0
C      1  0.5093900000000  0.4829100000000  0.5518420000000 1.0
C      1  0.5368640000000  0.4816620000000  0.5382330000000 1.0
C      1  0.5486040000000  0.4949730000000  0.5170700000000 1.0
C      1  0.5499740000000  0.4969990000000  0.4912730000000 1.0
C      1  0.5374430000000  0.4877880000000  0.4677210000000 1.0
C      1  0.5128300000000  0.4943540000000  0.4517540000000 1.0
C      1  0.4903470000000  0.5129390000000  0.4528110000000 1.0
C      1  0.4663290000000  0.5015120000000  0.4627170000000 1.0
C      1  0.4583010000000  0.5022610000000  0.5142540000000 1.0
C      1  0.4644600000000  0.4895370000000  0.5401270000000 1.0
C      1  0.4911550000000  0.5077380000000  0.5054630000000 1.0
C      1  0.4961150000000  0.4025730000000  0.5060140000000 1.0
C      1  0.5038750000000  0.5842370000000  0.4953420000000 1.0
C      1  0.4856280000000  0.4207280000000  0.5190280000000 1.0
C      1  0.4853850000000  0.6285420000000  0.4762910000000 1.0
C      1  0.5010820000000  0.4801050000000  0.5023180000000 1.0
C      1  0.4984290000000  0.6083660000000  0.4844500000000 1.0
C      1  0.5173640000000  0.3669750000000  0.4754180000000 1.0
C      1  0.5094560000000  0.3874250000000  0.4885910000000 1.0
C      1  0.5037290000000  0.5304870000000  0.5074810000000 1.0
END
