TITL C-246631-6484-6 33.8276280392984 125000 -285.546050291186 0 0 42 (C1) n - 1
REM
REM in /rds/project/t2_vol4/rds-t2-cs072/BORA/CARBON/from-Arr/AIRSS/Generating-Clusters/GAP-ML-2020/Higher-Symm/SD-CG/HFTN-CG
REM
REM
REM
REM
REM
REM ./C.cell (b20cbc046b6831c77cfcea5457e17084)
REM AIRSS Version 0.9.1 bugfix July 2018 build 013d7b7c2542+ Fri, 06 Jul 2018 19:26:36 +0100
REM compiler GCC version 9.3.0
REM options -cpp -mtune=generic -march=x86-64 -g -O0
REM seed -2128341128 -146687030 1615900647 1020412395 -650192025 -968175659 1756462833 1850954627 -2033235770 -737004527 -1087272962 -1626650658 -1336038301 816788702 1493987324 1751648633 1299996165 2109947992 826724860 1783274565 297798177 -1181786447 -1658608798 -582120031 -1966997799 802991587 418046689 -302052594 -250054649 -483025011 -1568329069 -1999144423 -1757578706
REM
CELL 1.54180   50.00000   50.00000   50.00000   90.00000   90.00000   90.00000
LATT -1
SFAC C  
C      1  0.4978000000000  0.5373060000000  0.4616020000000 1.0
C      1  0.4731360000000  0.5030070000000  0.4383980000000 1.0
C      1  0.4782680000000  0.4741660000000  0.4408420000000 1.0
C      1  0.5072860000000  0.4707750000000  0.4448080000000 1.0
C      1  0.5198140000000  0.4975850000000  0.4445350000000 1.0
C      1  0.5176950000000  0.4493910000000  0.4589280000000 1.0
C      1  0.5441130000000  0.5033420000000  0.4573690000000 1.0
C      1  0.4991940000000  0.5640880000000  0.4646930000000 1.0
C      1  0.4492670000000  0.5139480000000  0.4475800000000 1.0
C      1  0.4598480000000  0.4573150000000  0.4526700000000 1.0
C      1  0.4749300000000  0.4611070000000  0.5456350000000 1.0
C      1  0.5317820000000  0.4594760000000  0.5534940000000 1.0
C      1  0.5529500000000  0.5118720000000  0.5578120000000 1.0
C      1  0.5100870000000  0.5477140000000  0.5529380000000 1.0
C      1  0.4604700000000  0.5180530000000  0.5416280000000 1.0
C      1  0.5171280000000  0.4794020000000  0.5660020000000 1.0
C      1  0.5271680000000  0.5054180000000  0.5706290000000 1.0
C      1  0.5053330000000  0.5236950000000  0.5644080000000 1.0
C      1  0.4809640000000  0.5086820000000  0.5572830000000 1.0
C      1  0.4880560000000  0.4805890000000  0.5594970000000 1.0
C      1  0.5213740000000  0.5054070000000  0.5220020000000 1.0
C      1  0.5062070000000  0.5268720000000  0.5112310000000 1.0
C      1  0.4872130000000  0.4942990000000  0.4834980000000 1.0
C      1  0.4889220000000  0.4781810000000  0.5048210000000 1.0
C      1  0.5152120000000  0.4799490000000  0.5141170000000 1.0
C      1  0.5070870000000  0.5526510000000  0.5256280000000 1.0
C      1  0.4474260000000  0.5238560000000  0.5205100000000 1.0
C      1  0.4689820000000  0.4592240000000  0.5186940000000 1.0
C      1  0.5284600000000  0.4568590000000  0.5262590000000 1.0
C      1  0.5494320000000  0.5111690000000  0.5306180000000 1.0
C      1  0.5319440000000  0.4378820000000  0.5062790000000 1.0
C      1  0.5602760000000  0.5121210000000  0.5050750000000 1.0
C      1  0.5035480000000  0.5770850000000  0.5115280000000 1.0
C      1  0.4391400000000  0.5253850000000  0.4957800000000 1.0
C      1  0.4510410000000  0.4485090000000  0.5007740000000 1.0
C      1  0.5565840000000  0.5093970000000  0.4796100000000 1.0
C      1  0.4992260000000  0.5791160000000  0.4860810000000 1.0
C      1  0.4396660000000  0.5223140000000  0.4700210000000 1.0
C      1  0.4504680000000  0.4486880000000  0.4749870000000 1.0
C      1  0.5260210000000  0.4394970000000  0.4810820000000 1.0
C      1  0.4982710000000  0.5169260000000  0.4399980000000 1.0
C      1  0.4969880000000  0.5204550000000  0.4859670000000 1.0
END
