TITL C-246639-6519-4 0.0989875034065018 125000 -373.420178355572 0 0 56 (C1) n - 1
REM
REM in /rds/project/t2_vol4/rds-t2-cs072/BORA/CARBON/from-Arr/AIRSS/Generating-Clusters/GAP-ML-2020/Higher-Symm/SD-CG/HFTN-CG
REM
REM
REM
REM
REM
REM ./C.cell (b20cbc046b6831c77cfcea5457e17084)
REM AIRSS Version 0.9.1 bugfix July 2018 build 013d7b7c2542+ Fri, 06 Jul 2018 19:26:36 +0100
REM compiler GCC version 9.3.0
REM options -cpp -mtune=generic -march=x86-64 -g -O0
REM seed 564564248 -1689061045 1208901844 351836426 -305952258 -1003529029 -1743476291 1746228412 2146329429 1309380218 2141066597 -1632286584 1860817146 256625810 -1044376206 285321010 668722015 -1061504966 -86956337 -1623924098 -954719069 -61234023 1707128809 -339787814 1979727381 -2186289 287340936 850462428 332387497 2024578819 163398237 1589812818 -1824287874
REM
CELL 1.54180   50.00000   50.00000   50.00000   90.00000   90.00000   90.00000
LATT -1
SFAC C  
C      1  0.4721030000000  0.5199030000000  0.5520590000000 1.0
C      1  0.4661770000000  0.4903330000000  0.5535330000000 1.0
C      1  0.4866120000000  0.4699510000000  0.5562400000000 1.0
C      1  0.5161340000000  0.4722450000000  0.5552790000000 1.0
C      1  0.5337440000000  0.4947820000000  0.5531560000000 1.0
C      1  0.5250250000000  0.5226850000000  0.5510530000000 1.0
C      1  0.4983470000000  0.5344590000000  0.5519660000000 1.0
C      1  0.4876550000000  0.4777400000000  0.4947900000000 1.0
C      1  0.5137670000000  0.4757250000000  0.4979880000000 1.0
C      1  0.5306640000000  0.4972820000000  0.5032820000000 1.0
C      1  0.5210720000000  0.5238030000000  0.5078670000000 1.0
C      1  0.4942210000000  0.5335380000000  0.5073420000000 1.0
C      1  0.4713640000000  0.5177140000000  0.5121270000000 1.0
C      1  0.4712800000000  0.4908050000000  0.5118070000000 1.0
C      1  0.5045450000000  0.5728020000000  0.5068240000000 1.0
C      1  0.4409020000000  0.5462920000000  0.5135790000000 1.0
C      1  0.4315050000000  0.4804060000000  0.5081780000000 1.0
C      1  0.4782770000000  0.4344980000000  0.5153880000000 1.0
C      1  0.5237250000000  0.4459060000000  0.5081460000000 1.0
C      1  0.5746870000000  0.4901120000000  0.5182250000000 1.0
C      1  0.5611140000000  0.5385710000000  0.5102940000000 1.0
C      1  0.4849730000000  0.5577540000000  0.4880260000000 1.0
C      1  0.4271810000000  0.5273420000000  0.4925590000000 1.0
C      1  0.4418650000000  0.4625000000000  0.4871770000000 1.0
C      1  0.4828450000000  0.4354400000000  0.4745590000000 1.0
C      1  0.5493250000000  0.4495640000000  0.4929210000000 1.0
C      1  0.5559720000000  0.4967430000000  0.4837660000000 1.0
C      1  0.5495140000000  0.5574930000000  0.4905690000000 1.0
C      1  0.5170750000000  0.4482720000000  0.5372470000000 1.0
C      1  0.5497370000000  0.4899740000000  0.5297160000000 1.0
C      1  0.5396970000000  0.5359100000000  0.5293210000000 1.0
C      1  0.4960530000000  0.5552060000000  0.5299380000000 1.0
C      1  0.4533960000000  0.5300120000000  0.5320580000000 1.0
C      1  0.4495850000000  0.4808860000000  0.5305650000000 1.0
C      1  0.4883290000000  0.4453080000000  0.5391280000000 1.0
C      1  0.4558440000000  0.5585150000000  0.4919470000000 1.0
C      1  0.4188010000000  0.5030890000000  0.4981580000000 1.0
C      1  0.4601460000000  0.4414770000000  0.4925350000000 1.0
C      1  0.5005810000000  0.4297760000000  0.4971560000000 1.0
C      1  0.5663310000000  0.4714700000000  0.4962470000000 1.0
C      1  0.5724000000000  0.5146350000000  0.5011320000000 1.0
C      1  0.5298600000000  0.5755260000000  0.4987780000000 1.0
C      1  0.5467640000000  0.4973160000000  0.4560500000000 1.0
C      1  0.5412860000000  0.5468150000000  0.4654900000000 1.0
C      1  0.4892220000000  0.5450880000000  0.4614000000000 1.0
C      1  0.4445150000000  0.5395840000000  0.4727200000000 1.0
C      1  0.4489120000000  0.4791500000000  0.4641290000000 1.0
C      1  0.4893130000000  0.4524060000000  0.4526260000000 1.0
C      1  0.5396940000000  0.4493600000000  0.4654800000000 1.0
C      1  0.4622940000000  0.5005980000000  0.4507780000000 1.0
C      1  0.4717280000000  0.4744820000000  0.4480830000000 1.0
C      1  0.5171610000000  0.4538880000000  0.4501440000000 1.0
C      1  0.5385440000000  0.4720740000000  0.4479720000000 1.0
C      1  0.5363580000000  0.5228090000000  0.4512810000000 1.0
C      1  0.5159910000000  0.5418440000000  0.4537620000000 1.0
C      1  0.4657900000000  0.5281400000000  0.4574590000000 1.0
END
