TITL C-246652-6746-5 -0.13899461475039 125000 -387.103034536491 0 0 58 (Ci) n - 1
REM
REM in /rds/project/t2_vol4/rds-t2-cs072/BORA/CARBON/from-Arr/AIRSS/Generating-Clusters/GAP-ML-2020/Higher-Symm/SD-CG/HFTN-CG
REM
REM
REM
REM
REM
REM ./C.cell (b20cbc046b6831c77cfcea5457e17084)
REM AIRSS Version 0.9.1 bugfix July 2018 build 013d7b7c2542+ Fri, 06 Jul 2018 19:26:36 +0100
REM compiler GCC version 9.3.0
REM options -cpp -mtune=generic -march=x86-64 -g -O0
REM seed 1983512648 -449185765 1105996361 1004755153 -1651106355 -808749616 931262657 115567267 -2002285930 -89701536 1747658835 1142312761 -1268697905 363207446 1329063970 1869177796 -1451834422 1071633467 -1581255387 -912158489 1920032825 1488631494 -180966460 -65618387 923961794 -2038630554 373637212 -790771370 -830989493 1346410766 -118667299 -1956668678 -1926811620
REM
CELL 1.54180   50.00000   50.00000   50.00000   90.00000   90.00000   90.00000
LATT -1
SFAC C  
C      1  0.4544360000000  0.4850490000000  0.4452420000000 1.0
C      1  0.4503030000000  0.5178110000000  0.5554990000000 1.0
C      1  0.5518660000000  0.4821890000000  0.4445010000000 1.0
C      1  0.5477330000000  0.5149510000000  0.5547580000000 1.0
C      1  0.4847390000000  0.5383240000000  0.4453590000000 1.0
C      1  0.4918740000000  0.4717480000000  0.5564990000000 1.0
C      1  0.5102950000000  0.5282520000000  0.4435010000000 1.0
C      1  0.5174300000000  0.4616760000000  0.5546410000000 1.0
C      1  0.4787070000000  0.5004700000000  0.5207850000000 1.0
C      1  0.4797620000000  0.5024390000000  0.4790800000000 1.0
C      1  0.5224080000000  0.4975610000000  0.5209200000000 1.0
C      1  0.5234620000000  0.4995300000000  0.4792150000000 1.0
C      1  0.4505040000000  0.5017700000000  0.4695000000000 1.0
C      1  0.4500840000000  0.5006080000000  0.5311980000000 1.0
C      1  0.5520850000000  0.4993920000000  0.4688020000000 1.0
C      1  0.5516660000000  0.4982300000000  0.5305000000000 1.0
C      1  0.4861200000000  0.4795540000000  0.4985000000000 1.0
C      1  0.4868910000000  0.5221890000000  0.5012000000000 1.0
C      1  0.5152790000000  0.4778110000000  0.4988000000000 1.0
C      1  0.5160500000000  0.5204460000000  0.5015000000000 1.0
C      1  0.5133830000000  0.5454090000000  0.5509280000000 1.0
C      1  0.5166800000000  0.4527480000000  0.4484020000000 1.0
C      1  0.4854900000000  0.5472520000000  0.5515980000000 1.0
C      1  0.4887860000000  0.4545910000000  0.4490720000000 1.0
C      1  0.5359250000000  0.5529600000000  0.5333920000000 1.0
C      1  0.5378750000000  0.4457860000000  0.4674120000000 1.0
C      1  0.4642940000000  0.5542140000000  0.5325880000000 1.0
C      1  0.4662450000000  0.4470400000000  0.4666080000000 1.0
C      1  0.5356370000000  0.5362350000000  0.4497790000000 1.0
C      1  0.5416630000000  0.4578320000000  0.5494540000000 1.0
C      1  0.4605070000000  0.5421680000000  0.4505460000000 1.0
C      1  0.4665330000000  0.4637650000000  0.5502210000000 1.0
C      1  0.4686050000000  0.4555850000000  0.4939210000000 1.0
C      1  0.4685890000000  0.5452530000000  0.5056070000000 1.0
C      1  0.5335800000000  0.4547470000000  0.4943930000000 1.0
C      1  0.5335650000000  0.5444150000000  0.5060790000000 1.0
C      1  0.5559320000000  0.5284560000000  0.4664470000000 1.0
C      1  0.5600180000000  0.4704080000000  0.5318540000000 1.0
C      1  0.4421520000000  0.5295920000000  0.4681460000000 1.0
C      1  0.4462380000000  0.4715440000000  0.5335530000000 1.0
C      1  0.5666290000000  0.5222810000000  0.5176060000000 1.0
C      1  0.5692270000000  0.4763680000000  0.4819890000000 1.0
C      1  0.4329430000000  0.5236320000000  0.5180110000000 1.0
C      1  0.4355400000000  0.4777190000000  0.4823940000000 1.0
C      1  0.5619770000000  0.4594650000000  0.4587770000000 1.0
C      1  0.5588800000000  0.5377110000000  0.5416890000000 1.0
C      1  0.4432900000000  0.4622890000000  0.4583110000000 1.0
C      1  0.4401930000000  0.5405350000000  0.5412230000000 1.0
C      1  0.4771510000000  0.5213570000000  0.5608980000000 1.0
C      1  0.4822240000000  0.4814650000000  0.4413060000000 1.0
C      1  0.5199460000000  0.5185350000000  0.5586940000000 1.0
C      1  0.5250190000000  0.4786430000000  0.4391020000000 1.0
C      1  0.5586730000000  0.5372870000000  0.4940110000000 1.0
C      1  0.5596860000000  0.4625460000000  0.5049360000000 1.0
C      1  0.4424830000000  0.5374540000000  0.4950640000000 1.0
C      1  0.4434970000000  0.4627130000000  0.5059890000000 1.0
C      1  0.5046160000000  0.5001540000000  0.4536020000000 1.0
C      1  0.4975540000000  0.4998460000000  0.5463980000000 1.0
END
