TITL C-246651-6472-3 -108.92263185292 125000 -941.860997437559 0 0 132 (D2) n - 1
REM
REM in /rds/project/t2_vol4/rds-t2-cs072/BORA/CARBON/from-Arr/AIRSS/Generating-Clusters/GAP-ML-2020/Higher-Symm/SD-CG/HFTN-CG
REM
REM
REM
REM
REM
REM ./C.cell (b20cbc046b6831c77cfcea5457e17084)
REM AIRSS Version 0.9.1 bugfix July 2018 build 013d7b7c2542+ Fri, 06 Jul 2018 19:26:36 +0100
REM compiler GCC version 9.3.0
REM options -cpp -mtune=generic -march=x86-64 -g -O0
REM seed 1473603637 -1396449847 -1260347137 1333285587 1544539504 1013815153 -1078230345 -351990435 -1283356516 -1667402571 629253705 170373961 -600296669 -1909323477 760222975 -1774850141 -1979727565 -1136199438 1531113396 740637904 -2074443776 -1586281793 878761549 1919996571 -1595567570 -1956752804 62773419 -1946724278 804450233 2021481141 1182779123 1401314353 -557382352
REM
CELL 1.54180   50.00000   50.00000   50.00000   90.00000   90.00000   90.00000
LATT -1
SFAC C  
C      1  0.5284870000000  0.5390070000000  0.4936410000000 1.0
C      1  0.4709710000000  0.5386330000000  0.5061890000000 1.0
C      1  0.4712460000000  0.4609670000000  0.4951940000000 1.0
C      1  0.5292960000000  0.4613930000000  0.5049750000000 1.0
C      1  0.4574350000000  0.5373230000000  0.5675120000000 1.0
C      1  0.5420410000000  0.5376190000000  0.4323250000000 1.0
C      1  0.5457490000000  0.4629900000000  0.5655730000000 1.0
C      1  0.4547740000000  0.4620680000000  0.4345900000000 1.0
C      1  0.4638720000000  0.4987760000000  0.5870460000000 1.0
C      1  0.5361440000000  0.4989010000000  0.4129590000000 1.0
C      1  0.5402490000000  0.5016290000000  0.5852120000000 1.0
C      1  0.4597350000000  0.5006950000000  0.4147830000000 1.0
C      1  0.5136730000000  0.5959410000000  0.5215960000000 1.0
C      1  0.4849890000000  0.5956450000000  0.4779860000000 1.0
C      1  0.4873860000000  0.4041630000000  0.5226750000000 1.0
C      1  0.5139520000000  0.4042510000000  0.4777420000000 1.0
C      1  0.4192210000000  0.5141610000000  0.5565170000000 1.0
C      1  0.5805750000000  0.5150410000000  0.4434190000000 1.0
C      1  0.5833910000000  0.4860960000000  0.5526550000000 1.0
C      1  0.4168130000000  0.4847020000000  0.4474080000000 1.0
C      1  0.4685600000000  0.4704550000000  0.5887050000000 1.0
C      1  0.5318520000000  0.4705110000000  0.4114240000000 1.0
C      1  0.5356430000000  0.5299570000000  0.5869600000000 1.0
C      1  0.4639450000000  0.5290770000000  0.4129110000000 1.0
C      1  0.4080130000000  0.4931460000000  0.5386340000000 1.0
C      1  0.5920750000000  0.4942640000000  0.4613940000000 1.0
C      1  0.5937290000000  0.5070240000000  0.5341580000000 1.0
C      1  0.4061840000000  0.5055650000000  0.4658150000000 1.0
C      1  0.4818330000000  0.4545780000000  0.5232230000000 1.0
C      1  0.5188000000000  0.4547350000000  0.4769740000000 1.0
C      1  0.5192510000000  0.5455290000000  0.5221150000000 1.0
C      1  0.4801150000000  0.5451580000000  0.4776870000000 1.0
C      1  0.5192840000000  0.5223250000000  0.4480490000000 1.0
C      1  0.4804040000000  0.5222800000000  0.5518530000000 1.0
C      1  0.4782560000000  0.4774330000000  0.4491370000000 1.0
C      1  0.5220560000000  0.4779610000000  0.5509610000000 1.0
C      1  0.5670560000000  0.4412520000000  0.5332470000000 1.0
C      1  0.4337720000000  0.4401760000000  0.4670110000000 1.0
C      1  0.4346040000000  0.5589110000000  0.5361400000000 1.0
C      1  0.5645680000000  0.5596610000000  0.4636010000000 1.0
C      1  0.5483510000000  0.5824300000000  0.5071170000000 1.0
C      1  0.4505020000000  0.5817140000000  0.4925260000000 1.0
C      1  0.4520540000000  0.4176100000000  0.5098070000000 1.0
C      1  0.5490930000000  0.4182460000000  0.4905500000000 1.0
C      1  0.5498330000000  0.5501880000000  0.5708290000000 1.0
C      1  0.4494730000000  0.5491780000000  0.4289540000000 1.0
C      1  0.4536170000000  0.4501500000000  0.5733660000000 1.0
C      1  0.5470770000000  0.4504840000000  0.4268500000000 1.0
C      1  0.4637650000000  0.5265750000000  0.4624810000000 1.0
C      1  0.5358590000000  0.5272420000000  0.5374010000000 1.0
C      1  0.5344020000000  0.4732450000000  0.4609160000000 1.0
C      1  0.4659740000000  0.4729380000000  0.5392010000000 1.0
C      1  0.4709140000000  0.5002680000000  0.5351380000000 1.0
C      1  0.5290810000000  0.5005220000000  0.4648600000000 1.0
C      1  0.5307340000000  0.4998930000000  0.5337080000000 1.0
C      1  0.4692720000000  0.4993170000000  0.4662940000000 1.0
C      1  0.5593650000000  0.5598120000000  0.4933930000000 1.0
C      1  0.4398050000000  0.5590050000000  0.5063480000000 1.0
C      1  0.4403940000000  0.4401640000000  0.4965200000000 1.0
C      1  0.5604360000000  0.4410190000000  0.5037390000000 1.0
C      1  0.4153300000000  0.5325840000000  0.4683330000000 1.0
C      1  0.5842050000000  0.5339010000000  0.5315220000000 1.0
C      1  0.5830620000000  0.4672590000000  0.4644740000000 1.0
C      1  0.4174030000000  0.4662570000000  0.5356710000000 1.0
C      1  0.4690610000000  0.4237350000000  0.5341040000000 1.0
C      1  0.5320030000000  0.4240270000000  0.4662280000000 1.0
C      1  0.5325260000000  0.5764210000000  0.5322270000000 1.0
C      1  0.4664100000000  0.5758180000000  0.4674410000000 1.0
C      1  0.4162660000000  0.5449430000000  0.4945570000000 1.0
C      1  0.5830980000000  0.5461320000000  0.5052450000000 1.0
C      1  0.5833830000000  0.4550220000000  0.4907690000000 1.0
C      1  0.4172530000000  0.4539020000000  0.5094290000000 1.0
C      1  0.5444440000000  0.5625780000000  0.4443470000000 1.0
C      1  0.4546850000000  0.5621930000000  0.5553810000000 1.0
C      1  0.4529530000000  0.4371660000000  0.4468310000000 1.0
C      1  0.5479190000000  0.4380620000000  0.5534410000000 1.0
C      1  0.4379460000000  0.5373350000000  0.4519990000000 1.0
C      1  0.5615240000000  0.5384080000000  0.5478360000000 1.0
C      1  0.5596910000000  0.4624330000000  0.4492620000000 1.0
C      1  0.4408380000000  0.4618240000000  0.5509030000000 1.0
C      1  0.5049420000000  0.5629190000000  0.5683890000000 1.0
C      1  0.4941810000000  0.5625450000000  0.4313380000000 1.0
C      1  0.4983410000000  0.4374030000000  0.5688410000000 1.0
C      1  0.5025350000000  0.4371330000000  0.4314320000000 1.0
C      1  0.5836980000000  0.5393550000000  0.4587540000000 1.0
C      1  0.4157590000000  0.5383610000000  0.5410770000000 1.0
C      1  0.4144300000000  0.4604620000000  0.4629890000000 1.0
C      1  0.5861130000000  0.4618230000000  0.5371810000000 1.0
C      1  0.5338010000000  0.5100610000000  0.4897470000000 1.0
C      1  0.4660610000000  0.5096320000000  0.5102090000000 1.0
C      1  0.4657480000000  0.4898950000000  0.4914230000000 1.0
C      1  0.5343900000000  0.4904120000000  0.5086200000000 1.0
C      1  0.4416000000000  0.5151330000000  0.5758140000000 1.0
C      1  0.5581860000000  0.5156170000000  0.4241190000000 1.0
C      1  0.5619610000000  0.4852160000000  0.5730050000000 1.0
C      1  0.4382540000000  0.4840340000000  0.4270620000000 1.0
C      1  0.5264550000000  0.5967460000000  0.4954410000000 1.0
C      1  0.4721960000000  0.5963860000000  0.5041380000000 1.0
C      1  0.4733680000000  0.4032360000000  0.4971660000000 1.0
C      1  0.5279810000000  0.4036310000000  0.5032550000000 1.0
C      1  0.5122250000000  0.4886160000000  0.5778080000000 1.0
C      1  0.4879380000000  0.4881070000000  0.4222430000000 1.0
C      1  0.4915090000000  0.5117500000000  0.5782490000000 1.0
C      1  0.5083280000000  0.5115270000000  0.4217000000000 1.0
C      1  0.5294280000000  0.4302720000000  0.4372480000000 1.0
C      1  0.4715470000000  0.4301420000000  0.5630570000000 1.0
C      1  0.4675970000000  0.5694360000000  0.4384000000000 1.0
C      1  0.5314280000000  0.5701500000000  0.5612950000000 1.0
C      1  0.5145960000000  0.4068410000000  0.5281420000000 1.0
C      1  0.4867080000000  0.4065240000000  0.4722650000000 1.0
C      1  0.4867570000000  0.5932920000000  0.5283710000000 1.0
C      1  0.5119400000000  0.5933430000000  0.4712230000000 1.0
C      1  0.5165270000000  0.5704600000000  0.4518070000000 1.0
C      1  0.4824880000000  0.5704320000000  0.5478860000000 1.0
C      1  0.4811950000000  0.4293160000000  0.4529840000000 1.0
C      1  0.5197900000000  0.4297910000000  0.5473230000000 1.0
C      1  0.4886850000000  0.4554540000000  0.4700810000000 1.0
C      1  0.5119360000000  0.4557480000000  0.5301130000000 1.0
C      1  0.5098660000000  0.5444040000000  0.4693650000000 1.0
C      1  0.4895130000000  0.5443950000000  0.5304410000000 1.0
C      1  0.6033850000000  0.4947440000000  0.5102220000000 1.0
C      1  0.3966990000000  0.4932560000000  0.4898040000000 1.0
C      1  0.3972220000000  0.5053150000000  0.5151300000000 1.0
C      1  0.6026950000000  0.5066850000000  0.4848440000000 1.0
C      1  0.4964390000000  0.4631710000000  0.5839540000000 1.0
C      1  0.5040780000000  0.4628590000000  0.4162080000000 1.0
C      1  0.5075680000000  0.5372220000000  0.5835130000000 1.0
C      1  0.4919150000000  0.5367480000000  0.4163250000000 1.0
C      1  0.5972560000000  0.4675860000000  0.5114030000000 1.0
C      1  0.4032070000000  0.4661810000000  0.4887410000000 1.0
C      1  0.4033970000000  0.5324780000000  0.5158890000000 1.0
C      1  0.5961400000000  0.5337550000000  0.4839660000000 1.0
END
