TITL C-246658-6526-5 -28.4180391779444 125000 -306.932138815667 0 0 45 (C1) n - 1
REM
REM in /rds/project/t2_vol4/rds-t2-cs072/BORA/CARBON/from-Arr/AIRSS/Generating-Clusters/GAP-ML-2020/Higher-Symm/SD-CG/HFTN-CG
REM
REM
REM
REM
REM
REM ./C.cell (b20cbc046b6831c77cfcea5457e17084)
REM AIRSS Version 0.9.1 bugfix July 2018 build 013d7b7c2542+ Fri, 06 Jul 2018 19:26:36 +0100
REM compiler GCC version 9.3.0
REM options -cpp -mtune=generic -march=x86-64 -g -O0
REM seed 1477384435 132682812 1164840755 -588015113 -1917622793 -1583752327 1819163083 44437220 -728139208 -2037573860 1874719380 1092352994 1331655125 -1147474837 -554387563 -731895465 -682803704 -757865706 1396863951 829038444 -1266706601 1991204206 967806586 -1315729534 670083143 599487023 24349867 -1505207110 1735288150 -550666212 -434727742 -1061015057 -1840537655
REM
CELL 1.54180   50.00000   50.00000   50.00000   90.00000   90.00000   90.00000
LATT -1
SFAC C  
C      1  0.4496580000000  0.4887370000000  0.5117200000000 1.0
C      1  0.4563900000000  0.4880670000000  0.4853920000000 1.0
C      1  0.4572460000000  0.5118110000000  0.4985830000000 1.0
C      1  0.5372800000000  0.5077150000000  0.5479470000000 1.0
C      1  0.5300980000000  0.4611850000000  0.4771080000000 1.0
C      1  0.5401670000000  0.5452730000000  0.4754590000000 1.0
C      1  0.5255620000000  0.5334420000000  0.5423210000000 1.0
C      1  0.5098130000000  0.4548290000000  0.5177690000000 1.0
C      1  0.5146260000000  0.5175040000000  0.4466000000000 1.0
C      1  0.5029300000000  0.4627640000000  0.4355660000000 1.0
C      1  0.5038480000000  0.5657130000000  0.5024200000000 1.0
C      1  0.4933960000000  0.4887210000000  0.5555000000000 1.0
C      1  0.4842510000000  0.4484930000000  0.5292410000000 1.0
C      1  0.4868450000000  0.5081810000000  0.4435650000000 1.0
C      1  0.4973130000000  0.5357580000000  0.5400030000000 1.0
C      1  0.5534650000000  0.4762690000000  0.5169040000000 1.0
C      1  0.5544070000000  0.4982120000000  0.4716630000000 1.0
C      1  0.5597270000000  0.5247910000000  0.5115830000000 1.0
C      1  0.4648770000000  0.5386840000000  0.4991090000000 1.0
C      1  0.4484010000000  0.4806110000000  0.5384360000000 1.0
C      1  0.4641310000000  0.4705230000000  0.4648580000000 1.0
C      1  0.5125540000000  0.5028620000000  0.5014060000000 1.0
C      1  0.5095940000000  0.4751810000000  0.4959720000000 1.0
C      1  0.5226180000000  0.5417780000000  0.4556890000000 1.0
C      1  0.5577450000000  0.5019390000000  0.5277780000000 1.0
C      1  0.5531820000000  0.4741570000000  0.4880700000000 1.0
C      1  0.5580760000000  0.5234950000000  0.4834130000000 1.0
C      1  0.5345010000000  0.4966830000000  0.4506200000000 1.0
C      1  0.5411240000000  0.5441300000000  0.5211520000000 1.0
C      1  0.5312580000000  0.4648650000000  0.5329040000000 1.0
C      1  0.4558600000000  0.5181590000000  0.5630050000000 1.0
C      1  0.4563830000000  0.4296560000000  0.4916500000000 1.0
C      1  0.4487400000000  0.5414460000000  0.4526090000000 1.0
C      1  0.4645030000000  0.5238460000000  0.4421610000000 1.0
C      1  0.4830160000000  0.5162260000000  0.5545360000000 1.0
C      1  0.4664010000000  0.4333300000000  0.5149830000000 1.0
C      1  0.4389620000000  0.5004250000000  0.5555950000000 1.0
C      1  0.4583800000000  0.4439590000000  0.4703060000000 1.0
C      1  0.4533300000000  0.5503180000000  0.4767200000000 1.0
C      1  0.5213190000000  0.4849350000000  0.5518040000000 1.0
C      1  0.5245160000000  0.4697450000000  0.4502270000000 1.0
C      1  0.5294630000000  0.5576180000000  0.4995270000000 1.0
C      1  0.4865420000000  0.5494100000000  0.5159890000000 1.0
C      1  0.4744280000000  0.4690160000000  0.5466980000000 1.0
C      1  0.4830730000000  0.4795390000000  0.4454400000000 1.0
END
