TITL C-24476-3865-4 -0.0745107371322023 125000 -409.004327981828 0 0 62 (C1) n - 1
REM
REM in /rds/project/t2_vol4/rds-t2-cs072/BORA/CARBON/from-Arr/AIRSS/Generating-Clusters/GAP-ML-2020/Higher-Symm/SD-CG/HFTN-CG
REM
REM
REM
REM
REM
REM ./C.cell (b20cbc046b6831c77cfcea5457e17084)
REM AIRSS Version 0.9.1 bugfix July 2018 build 013d7b7c2542+ Fri, 06 Jul 2018 19:26:36 +0100
REM compiler GCC version 9.3.0
REM options -cpp -mtune=generic -march=x86-64 -g -O0
REM seed -1319754029 972443516 -1233071679 256629147 -1287792949 1855941011 1190835661 -1994816400 -470802365 -230308407 1123753613 -1532920479 298081417 -1803772822 -1522758663 -157725131 50403813 -139882234 -923029388 288066161 -6967848 213065560 159296682 -1876424996 594196394 1400644643 -1923321959 -344889134 522694412 -1030966134 -1401806337 -1507896588 -1844244578
REM
CELL 1.54180   50.00000   50.00000   50.00000   90.00000   90.00000   90.00000
LATT -1
SFAC C  
C      1  0.4734330000000  0.5249190000000  0.5427230000000 1.0
C      1  0.4727790000000  0.4748230000000  0.4580330000000 1.0
C      1  0.5290200000000  0.5286520000000  0.5430240000000 1.0
C      1  0.5283940000000  0.4714490000000  0.4564810000000 1.0
C      1  0.5258980000000  0.5149310000000  0.4957590000000 1.0
C      1  0.5260510000000  0.4855840000000  0.5032870000000 1.0
C      1  0.4729150000000  0.5146590000000  0.4965550000000 1.0
C      1  0.4731250000000  0.4851800000000  0.5043790000000 1.0
C      1  0.5141510000000  0.5411460000000  0.4108430000000 1.0
C      1  0.5060880000000  0.4704170000000  0.5764040000000 1.0
C      1  0.4927590000000  0.5297970000000  0.4229800000000 1.0
C      1  0.4847830000000  0.4590360000000  0.5884970000000 1.0
C      1  0.5422050000000  0.5206720000000  0.4471160000000 1.0
C      1  0.5423840000000  0.4798590000000  0.5519050000000 1.0
C      1  0.4556270000000  0.5215620000000  0.4477270000000 1.0
C      1  0.4557350000000  0.4781670000000  0.5529200000000 1.0
C      1  0.5568690000000  0.5490610000000  0.4958180000000 1.0
C      1  0.5568700000000  0.4512820000000  0.5040760000000 1.0
C      1  0.4432390000000  0.5490370000000  0.4991250000000 1.0
C      1  0.4433320000000  0.4510870000000  0.5018220000000 1.0
C      1  0.5298730000000  0.4583780000000  0.5675200000000 1.0
C      1  0.5320090000000  0.5433060000000  0.4316440000000 1.0
C      1  0.4663410000000  0.4557750000000  0.5681140000000 1.0
C      1  0.4690850000000  0.5420250000000  0.4317970000000 1.0
C      1  0.5158140000000  0.5340540000000  0.5665030000000 1.0
C      1  0.5143250000000  0.4649120000000  0.4340080000000 1.0
C      1  0.4957360000000  0.5169520000000  0.5586200000000 1.0
C      1  0.4944750000000  0.4825220000000  0.4414610000000 1.0
C      1  0.4507670000000  0.4956400000000  0.4575190000000 1.0
C      1  0.4512100000000  0.5045610000000  0.5435040000000 1.0
C      1  0.5488500000000  0.4947570000000  0.4562490000000 1.0
C      1  0.5492220000000  0.5054410000000  0.5426100000000 1.0
C      1  0.5206960000000  0.4774570000000  0.5322310000000 1.0
C      1  0.5203280000000  0.5230610000000  0.4665820000000 1.0
C      1  0.4784200000000  0.4763940000000  0.5337610000000 1.0
C      1  0.4779440000000  0.5233030000000  0.4674120000000 1.0
C      1  0.5646830000000  0.5033600000000  0.5196360000000 1.0
C      1  0.5643460000000  0.4969200000000  0.4790040000000 1.0
C      1  0.4352430000000  0.5025680000000  0.5210000000000 1.0
C      1  0.4349220000000  0.4974500000000  0.4803410000000 1.0
C      1  0.4850940000000  0.4297090000000  0.5176280000000 1.0
C      1  0.4850950000000  0.5703960000000  0.4822690000000 1.0
C      1  0.5144680000000  0.4291790000000  0.5184870000000 1.0
C      1  0.5144280000000  0.5703250000000  0.4816700000000 1.0
C      1  0.5315160000000  0.5595920000000  0.5014640000000 1.0
C      1  0.5314720000000  0.4407260000000  0.4988480000000 1.0
C      1  0.4688760000000  0.5592700000000  0.5031330000000 1.0
C      1  0.4687870000000  0.4406480000000  0.4970110000000 1.0
C      1  0.5589410000000  0.5213130000000  0.4970900000000 1.0
C      1  0.5594510000000  0.4790060000000  0.5017140000000 1.0
C      1  0.4408440000000  0.5212370000000  0.4992580000000 1.0
C      1  0.4411890000000  0.4787820000000  0.5020510000000 1.0
C      1  0.4841610000000  0.5533870000000  0.4576040000000 1.0
C      1  0.4840480000000  0.4465970000000  0.5419240000000 1.0
C      1  0.5148280000000  0.5530510000000  0.4576650000000 1.0
C      1  0.5148180000000  0.4465630000000  0.5428510000000 1.0
C      1  0.4841860000000  0.5350180000000  0.5165790000000 1.0
C      1  0.4841200000000  0.4650260000000  0.4839300000000 1.0
C      1  0.5159190000000  0.5354410000000  0.5158510000000 1.0
C      1  0.5158580000000  0.4647220000000  0.4839490000000 1.0
C      1  0.4997400000000  0.4878910000000  0.5506010000000 1.0
C      1  0.4984310000000  0.5119660000000  0.4494310000000 1.0
END
