TITL C-24411-2511-6 26.2366527938482 125000 -751.537409263709 0 0 108 (C1) n - 1
REM
REM in /rds/project/t2_vol4/rds-t2-cs072/BORA/CARBON/from-Arr/AIRSS/Generating-Clusters/GAP-ML-2020/Higher-Symm/SD-CG/HFTN-CG
REM
REM
REM
REM
REM
REM ./C.cell (b20cbc046b6831c77cfcea5457e17084)
REM AIRSS Version 0.9.1 bugfix July 2018 build 013d7b7c2542+ Fri, 06 Jul 2018 19:26:36 +0100
REM compiler GCC version 9.3.0
REM options -cpp -mtune=generic -march=x86-64 -g -O0
REM seed 1876400281 -804110026 -57932213 -1660101037 -1694677142 -465656053 -1191309432 898413783 -1694523073 1270465373 -1178074971 1843270933 -1777830822 1970000577 -656888647 787621931 -1672750314 2013205156 970388421 -520384878 967302858 -574612267 920374074 -1881297547 -862892656 -201082983 -1479524233 735787749 800323501 -894790520 1267724099 -1529528262 -335620950
REM
CELL 1.54180   50.00000   50.00000   50.00000   90.00000   90.00000   90.00000
LATT -1
SFAC C  
C      1  0.4701520000000  0.4718940000000  0.5685010000000 1.0
C      1  0.4630550000000  0.5593900000000  0.4583710000000 1.0
C      1  0.5737270000000  0.4636580000000  0.4631960000000 1.0
C      1  0.4582730000000  0.5233450000000  0.4260010000000 1.0
C      1  0.5338540000000  0.4612070000000  0.4270630000000 1.0
C      1  0.5378990000000  0.5352900000000  0.5769860000000 1.0
C      1  0.4696120000000  0.4322760000000  0.5341910000000 1.0
C      1  0.5359100000000  0.5728420000000  0.5424250000000 1.0
C      1  0.5356590000000  0.4334880000000  0.4680450000000 1.0
C      1  0.5702100000000  0.5350470000000  0.5350940000000 1.0
C      1  0.4315300000000  0.4688580000000  0.5347960000000 1.0
C      1  0.4235430000000  0.5307850000000  0.4628060000000 1.0
C      1  0.5407550000000  0.4642120000000  0.5715170000000 1.0
C      1  0.5328470000000  0.5745770000000  0.4768730000000 1.0
C      1  0.4317110000000  0.4502190000000  0.4585320000000 1.0
C      1  0.5297130000000  0.5310610000000  0.4238320000000 1.0
C      1  0.4680030000000  0.4540440000000  0.4248930000000 1.0
C      1  0.4613330000000  0.5413710000000  0.5681820000000 1.0
C      1  0.5385880000000  0.4298390000000  0.5338740000000 1.0
C      1  0.4650380000000  0.5786730000000  0.5369760000000 1.0
C      1  0.4702450000000  0.4207260000000  0.4655550000000 1.0
C      1  0.4302220000000  0.5405570000000  0.5325500000000 1.0
C      1  0.5738200000000  0.4666590000000  0.5328550000000 1.0
C      1  0.5569240000000  0.5324120000000  0.4670860000000 1.0
C      1  0.5196320000000  0.5886030000000  0.4969540000000 1.0
C      1  0.5825340000000  0.4867930000000  0.5143670000000 1.0
C      1  0.4946570000000  0.5114220000000  0.5915800000000 1.0
C      1  0.5183430000000  0.4197090000000  0.5158840000000 1.0
C      1  0.4870560000000  0.5884320000000  0.5224210000000 1.0
C      1  0.4894900000000  0.4143440000000  0.4861000000000 1.0
C      1  0.5745720000000  0.5154580000000  0.4845870000000 1.0
C      1  0.4119460000000  0.4892010000000  0.4888120000000 1.0
C      1  0.4296780000000  0.5185340000000  0.5131000000000 1.0
C      1  0.4850440000000  0.4758170000000  0.4167310000000 1.0
C      1  0.5114730000000  0.5079270000000  0.4260690000000 1.0
C      1  0.5196690000000  0.4855650000000  0.5765050000000 1.0
C      1  0.4906110000000  0.5867200000000  0.4937860000000 1.0
C      1  0.4214170000000  0.4888020000000  0.5167280000000 1.0
C      1  0.5228240000000  0.5141170000000  0.5887850000000 1.0
C      1  0.4888000000000  0.4191650000000  0.5159170000000 1.0
C      1  0.5167480000000  0.5866190000000  0.5259880000000 1.0
C      1  0.5185990000000  0.4158900000000  0.4868570000000 1.0
C      1  0.4151460000000  0.5177400000000  0.4863690000000 1.0
C      1  0.5740260000000  0.4850310000000  0.4847880000000 1.0
C      1  0.5791050000000  0.5160320000000  0.5136130000000 1.0
C      1  0.5133970000000  0.4786900000000  0.4173200000000 1.0
C      1  0.4800970000000  0.5039370000000  0.4258660000000 1.0
C      1  0.4920320000000  0.4830450000000  0.5888160000000 1.0
C      1  0.5257540000000  0.5612430000000  0.5676650000000 1.0
C      1  0.5589880000000  0.5608370000000  0.5279930000000 1.0
C      1  0.5611640000000  0.5254540000000  0.5613630000000 1.0
C      1  0.5277030000000  0.4351510000000  0.4387270000000 1.0
C      1  0.4683700000000  0.5499680000000  0.4316990000000 1.0
C      1  0.4794240000000  0.4449340000000  0.5584420000000 1.0
C      1  0.5653240000000  0.4384840000000  0.4736870000000 1.0
C      1  0.4382770000000  0.5547300000000  0.4710530000000 1.0
C      1  0.4440170000000  0.4432280000000  0.5251800000000 1.0
C      1  0.5556830000000  0.4756630000000  0.4419200000000 1.0
C      1  0.4340370000000  0.5154370000000  0.4396030000000 1.0
C      1  0.4407700000000  0.4804060000000  0.5603690000000 1.0
C      1  0.4735070000000  0.5667390000000  0.5619280000000 1.0
C      1  0.4423720000000  0.5652520000000  0.5224970000000 1.0
C      1  0.4357360000000  0.5313930000000  0.5591050000000 1.0
C      1  0.4786610000000  0.4300690000000  0.4391060000000 1.0
C      1  0.5140830000000  0.5540170000000  0.4321970000000 1.0
C      1  0.5299070000000  0.4403450000000  0.5597180000000 1.0
C      1  0.4447580000000  0.4305830000000  0.4745270000000 1.0
C      1  0.5584110000000  0.5611150000000  0.4777210000000 1.0
C      1  0.5637140000000  0.4410380000000  0.5223880000000 1.0
C      1  0.4429430000000  0.4624240000000  0.4345330000000 1.0
C      1  0.5553050000000  0.5248070000000  0.4372290000000 1.0
C      1  0.5644170000000  0.4748100000000  0.5592980000000 1.0
C      1  0.4633660000000  0.5079820000000  0.4763280000000 1.0
C      1  0.5331360000000  0.4828560000000  0.4612800000000 1.0
C      1  0.4938810000000  0.4758350000000  0.5112510000000 1.0
C      1  0.4730240000000  0.4928430000000  0.5206000000000 1.0
C      1  0.5218030000000  0.5225150000000  0.5012200000000 1.0
C      1  0.5450930000000  0.4820810000000  0.4881070000000 1.0
C      1  0.5053820000000  0.5230470000000  0.5466450000000 1.0
C      1  0.4784370000000  0.4944180000000  0.5501530000000 1.0
C      1  0.4836740000000  0.4977720000000  0.4600940000000 1.0
C      1  0.4857280000000  0.5617880000000  0.4777530000000 1.0
C      1  0.5255680000000  0.4601740000000  0.4778430000000 1.0
C      1  0.5033510000000  0.5330960000000  0.5192760000000 1.0
C      1  0.5243710000000  0.5288820000000  0.4726610000000 1.0
C      1  0.4804970000000  0.4705950000000  0.4675710000000 1.0
C      1  0.5172950000000  0.4816090000000  0.5253160000000 1.0
C      1  0.5328640000000  0.4976970000000  0.5086170000000 1.0
C      1  0.4628770000000  0.5152160000000  0.5035400000000 1.0
C      1  0.4180320000000  0.4749470000000  0.4649660000000 1.0
C      1  0.4815690000000  0.5210740000000  0.5677710000000 1.0
C      1  0.5099860000000  0.4940500000000  0.5496180000000 1.0
C      1  0.5137570000000  0.5050750000000  0.4567240000000 1.0
C      1  0.5132130000000  0.5564180000000  0.4636830000000 1.0
C      1  0.4976650000000  0.4635770000000  0.4866160000000 1.0
C      1  0.4808750000000  0.5392560000000  0.5036190000000 1.0
C      1  0.4994630000000  0.5671010000000  0.5719990000000 1.0
C      1  0.5038640000000  0.4376380000000  0.5655540000000 1.0
C      1  0.4912260000000  0.5596010000000  0.4190760000000 1.0
C      1  0.4306520000000  0.5050290000000  0.5662100000000 1.0
C      1  0.5687640000000  0.5003250000000  0.5659310000000 1.0
C      1  0.5646530000000  0.5002710000000  0.4318000000000 1.0
C      1  0.5041320000000  0.4241770000000  0.4337760000000 1.0
C      1  0.4293640000000  0.4876610000000  0.4409740000000 1.0
C      1  0.4405080000000  0.4331480000000  0.5008590000000 1.0
C      1  0.4395090000000  0.5658330000000  0.4956790000000 1.0
C      1  0.5733940000000  0.4314590000000  0.4984600000000 1.0
C      1  0.5661810000000  0.5668020000000  0.5023410000000 1.0
END
