TITL C-246645-7633-5 1040.53811003081 125000 -864.787769766153 0 0 125 (C1) n - 1
REM
REM in /rds/project/t2_vol4/rds-t2-cs072/BORA/CARBON/from-Arr/AIRSS/Generating-Clusters/GAP-ML-2020/Higher-Symm/SD-CG/HFTN-CG
REM
REM
REM
REM
REM
REM ./C.cell (b20cbc046b6831c77cfcea5457e17084)
REM AIRSS Version 0.9.1 bugfix July 2018 build 013d7b7c2542+ Fri, 06 Jul 2018 19:26:36 +0100
REM compiler GCC version 9.3.0
REM options -cpp -mtune=generic -march=x86-64 -g -O0
REM seed 1846727086 1118070535 -1132115278 1541602710 1931426089 917477445 -927540154 2103477396 -387248066 -1224343745 -544846095 263240913 -1345028492 -763701298 -761966554 1412243438 -1645826574 -115613677 -1184348787 -460317018 724293393 -656566160 1731615748 -187854098 -405762363 -1210740654 -1972740026 -947436544 617689645 269310531 949937457 -1623819312 -437801287
REM
CELL 1.54180   50.00000   50.00000   50.00000   90.00000   90.00000   90.00000
LATT -1
SFAC C  
C      1  0.4757590000000  0.4051910000000  0.4970570000000 1.0
C      1  0.4963820000000  0.4052550000000  0.4760410000000 1.0
C      1  0.5225820000000  0.4059190000000  0.4891660000000 1.0
C      1  0.5182800000000  0.4059840000000  0.5182010000000 1.0
C      1  0.4892900000000  0.4056260000000  0.5230170000000 1.0
C      1  0.4750720000000  0.5943850000000  0.4956470000000 1.0
C      1  0.4954930000000  0.5940910000000  0.4745270000000 1.0
C      1  0.5220370000000  0.5939750000000  0.4872820000000 1.0
C      1  0.5179430000000  0.5942750000000  0.5164630000000 1.0
C      1  0.4888330000000  0.5945890000000  0.5216110000000 1.0
C      1  0.5547540000000  0.5223020000000  0.5564190000000 1.0
C      1  0.4611610000000  0.5233080000000  0.5694590000000 1.0
C      1  0.4215210000000  0.5228560000000  0.4850060000000 1.0
C      1  0.4829000000000  0.5292970000000  0.4111360000000 1.0
C      1  0.5781410000000  0.5283800000000  0.4551640000000 1.0
C      1  0.5649570000000  0.4687130000000  0.5615010000000 1.0
C      1  0.4635060000000  0.4691330000000  0.5809340000000 1.0
C      1  0.4119850000000  0.4682070000000  0.4906330000000 1.0
C      1  0.4899180000000  0.4752580000000  0.4212200000000 1.0
C      1  0.5805830000000  0.4740040000000  0.4619980000000 1.0
C      1  0.5896680000000  0.4830000000000  0.5222760000000 1.0
C      1  0.5101390000000  0.4864000000000  0.5797510000000 1.0
C      1  0.4271570000000  0.4856330000000  0.5350660000000 1.0
C      1  0.4447100000000  0.4859390000000  0.4416110000000 1.0
C      1  0.5495830000000  0.4830750000000  0.4231460000000 1.0
C      1  0.5883330000000  0.5129640000000  0.5191410000000 1.0
C      1  0.5061920000000  0.5163190000000  0.5889100000000 1.0
C      1  0.4169300000000  0.5153950000000  0.5338370000000 1.0
C      1  0.4416370000000  0.5153090000000  0.4325420000000 1.0
C      1  0.5456100000000  0.5128270000000  0.4216270000000 1.0
C      1  0.5352450000000  0.5715480000000  0.5330250000000 1.0
C      1  0.4779650000000  0.5725750000000  0.5431480000000 1.0
C      1  0.4515630000000  0.5720370000000  0.4925600000000 1.0
C      1  0.4912100000000  0.5715310000000  0.4520340000000 1.0
C      1  0.5422440000000  0.5708110000000  0.4759520000000 1.0
C      1  0.5342630000000  0.4288140000000  0.5333850000000 1.0
C      1  0.4792700000000  0.4274670000000  0.5435590000000 1.0
C      1  0.4524980000000  0.4264110000000  0.4940250000000 1.0
C      1  0.4926710000000  0.4272610000000  0.4531690000000 1.0
C      1  0.5426940000000  0.4290110000000  0.4786090000000 1.0
C      1  0.5826710000000  0.5428920000000  0.4799720000000 1.0
C      1  0.5406980000000  0.5428760000000  0.5736600000000 1.0
C      1  0.4401940000000  0.5432380000000  0.5614380000000 1.0
C      1  0.4220130000000  0.5430410000000  0.4629060000000 1.0
C      1  0.5079020000000  0.5436680000000  0.4137740000000 1.0
C      1  0.5856100000000  0.4557450000000  0.4842720000000 1.0
C      1  0.5436960000000  0.4542280000000  0.5742860000000 1.0
C      1  0.4444530000000  0.4538210000000  0.5653930000000 1.0
C      1  0.4214360000000  0.4532790000000  0.4675320000000 1.0
C      1  0.5116800000000  0.4553610000000  0.4158810000000 1.0
C      1  0.5044010000000  0.4862800000000  0.4489400000000 1.0
C      1  0.5481040000000  0.4866260000000  0.4943350000000 1.0
C      1  0.5189900000000  0.4882460000000  0.5479840000000 1.0
C      1  0.4590780000000  0.4887890000000  0.5338020000000 1.0
C      1  0.4545320000000  0.4883000000000  0.4737630000000 1.0
C      1  0.5041220000000  0.5125610000000  0.4511680000000 1.0
C      1  0.5463770000000  0.5108950000000  0.4863030000000 1.0
C      1  0.5292590000000  0.5127530000000  0.5424120000000 1.0
C      1  0.4671850000000  0.5137170000000  0.5410240000000 1.0
C      1  0.4509740000000  0.5139020000000  0.4818810000000 1.0
C      1  0.5225730000000  0.4760110000000  0.4954460000000 1.0
C      1  0.5098330000000  0.4767770000000  0.5233090000000 1.0
C      1  0.4800080000000  0.4765360000000  0.5189000000000 1.0
C      1  0.4748290000000  0.4758840000000  0.4892470000000 1.0
C      1  0.5005920000000  0.4756050000000  0.4749010000000 1.0
C      1  0.5233220000000  0.5239910000000  0.4924130000000 1.0
C      1  0.5150740000000  0.5242450000000  0.5209390000000 1.0
C      1  0.4850880000000  0.5243380000000  0.5219030000000 1.0
C      1  0.4747480000000  0.5241110000000  0.4935240000000 1.0
C      1  0.4987710000000  0.5237910000000  0.4753730000000 1.0
C      1  0.5661840000000  0.5620340000000  0.4927200000000 1.0
C      1  0.5252540000000  0.5631640000000  0.5604200000000 1.0
C      1  0.4486640000000  0.5634370000000  0.5424710000000 1.0
C      1  0.4428490000000  0.5633230000000  0.4649170000000 1.0
C      1  0.5143540000000  0.5623850000000  0.4342040000000 1.0
C      1  0.5662820000000  0.4366940000000  0.4949300000000 1.0
C      1  0.5264540000000  0.4358090000000  0.5618070000000 1.0
C      1  0.4500450000000  0.4349390000000  0.5451680000000 1.0
C      1  0.4428960000000  0.4350190000000  0.4662840000000 1.0
C      1  0.5166880000000  0.4363080000000  0.4368510000000 1.0
C      1  0.5216300000000  0.5544030000000  0.4887780000000 1.0
C      1  0.5169270000000  0.5550290000000  0.5175870000000 1.0
C      1  0.4880890000000  0.5552470000000  0.5220380000000 1.0
C      1  0.4750590000000  0.5549680000000  0.4959700000000 1.0
C      1  0.4957500000000  0.5546160000000  0.4755260000000 1.0
C      1  0.5212750000000  0.4457230000000  0.4904270000000 1.0
C      1  0.5155560000000  0.4464170000000  0.5186690000000 1.0
C      1  0.4867110000000  0.4460390000000  0.5218410000000 1.0
C      1  0.4748570000000  0.4452590000000  0.4954270000000 1.0
C      1  0.4963830000000  0.4451520000000  0.4760920000000 1.0
C      1  0.4291150000000  0.4789560000000  0.5636900000000 1.0
C      1  0.4181780000000  0.4782430000000  0.4522810000000 1.0
C      1  0.5333950000000  0.4688890000000  0.4060630000000 1.0
C      1  0.6010670000000  0.4691090000000  0.5022470000000 1.0
C      1  0.5375350000000  0.4799820000000  0.5875180000000 1.0
C      1  0.4169350000000  0.5290790000000  0.5573240000000 1.0
C      1  0.4187480000000  0.5284160000000  0.4398080000000 1.0
C      1  0.5217040000000  0.5182420000000  0.4077910000000 1.0
C      1  0.5936470000000  0.5184430000000  0.4917780000000 1.0
C      1  0.5291740000000  0.5295940000000  0.5947850000000 1.0
C      1  0.4612770000000  0.5365120000000  0.4274650000000 1.0
C      1  0.5562780000000  0.5348750000000  0.4382190000000 1.0
C      1  0.5723860000000  0.5329670000000  0.5340190000000 1.0
C      1  0.4868790000000  0.5354270000000  0.5783370000000 1.0
C      1  0.4208020000000  0.5346180000000  0.5121250000000 1.0
C      1  0.4635550000000  0.4643510000000  0.4307270000000 1.0
C      1  0.5596160000000  0.4648740000000  0.4441400000000 1.0
C      1  0.5746080000000  0.4617270000000  0.5363350000000 1.0
C      1  0.4907970000000  0.4628850000000  0.5802470000000 1.0
C      1  0.4208620000000  0.4618540000000  0.5165300000000 1.0
C      1  0.4632610000000  0.5603080000000  0.4452330000000 1.0
C      1  0.5398980000000  0.5585880000000  0.4468250000000 1.0
C      1  0.5621080000000  0.5580780000000  0.5213180000000 1.0
C      1  0.4966550000000  0.5602200000000  0.5647520000000 1.0
C      1  0.4363850000000  0.5597500000000  0.5167750000000 1.0
C      1  0.4638230000000  0.4390980000000  0.4457720000000 1.0
C      1  0.5418790000000  0.4406060000000  0.4504430000000 1.0
C      1  0.5612480000000  0.4395510000000  0.5226850000000 1.0
C      1  0.4982600000000  0.4389010000000  0.5658310000000 1.0
C      1  0.4369440000000  0.4378430000000  0.5194470000000 1.0
C      1  0.5885240000000  0.5026070000000  0.4667670000000 1.0
C      1  0.5584020000000  0.4948240000000  0.5728170000000 1.0
C      1  0.4492660000000  0.4947110000000  0.5785160000000 1.0
C      1  0.4098240000000  0.4938250000000  0.4761530000000 1.0
C      1  0.4961640000000  0.5031500000000  0.4065730000000 1.0
END
