TITL C-246647-6647-12 0.0605832074719183 125000 -71.5909723596601 0 0 12 (C1) n - 1
REM
REM in /rds/project/t2_vol4/rds-t2-cs072/BORA/CARBON/from-Arr/AIRSS/Generating-Clusters/GAP-ML-2020/Higher-Symm/SD-CG/HFTN-CG
REM
REM
REM
REM
REM
REM ./C.cell (b20cbc046b6831c77cfcea5457e17084)
REM AIRSS Version 0.9.1 bugfix July 2018 build 013d7b7c2542+ Fri, 06 Jul 2018 19:26:36 +0100
REM compiler GCC version 9.3.0
REM options -cpp -mtune=generic -march=x86-64 -g -O0
REM seed 893840110 -843092032 300173083 -1552187662 1226280352 -610472937 -993860263 234145286 -1558249867 3115793 1163615324 -711925310 2129675884 1366875889 364561753 339176682 -905025784 475190539 -1880527545 916237752 -1501929275 819382625 256841717 1047934286 -462266525 355070452 -21166039 161033203 -2146946984 -1010667673 -524326270 -1359998425 -1429886048
REM
CELL 1.54180   50.00000   50.00000   50.00000   90.00000   90.00000   90.00000
LATT -1
SFAC C  
C      1  0.5097720000000  0.5017210000000  0.4455050000000 1.0
C      1  0.4892120000000  0.4467160000000  0.4959420000000 1.0
C      1  0.5006730000000  0.4854180000000  0.5268290000000 1.0
C      1  0.4883420000000  0.5396980000000  0.4959010000000 1.0
C      1  0.4681360000000  0.4949540000000  0.4778660000000 1.0
C      1  0.4963220000000  0.4615340000000  0.5146660000000 1.0
C      1  0.5151470000000  0.5220630000000  0.4602030000000 1.0
C      1  0.5249300000000  0.4949940000000  0.5361940000000 1.0
C      1  0.4767270000000  0.5009090000000  0.5236340000000 1.0
C      1  0.5477160000000  0.5024870000000  0.5436010000000 1.0
C      1  0.4740650000000  0.5130390000000  0.4985590000000 1.0
C      1  0.5089570000000  0.5364670000000  0.4811010000000 1.0
END
