TITL C-24418-2566-4 -215.583237310123 125000 -559.11282159843 0 0 81 (C1) n - 1
REM
REM in /rds/project/t2_vol4/rds-t2-cs072/BORA/CARBON/from-Arr/AIRSS/Generating-Clusters/GAP-ML-2020/Higher-Symm/SD-CG/HFTN-CG
REM
REM
REM
REM
REM
REM ./C.cell (b20cbc046b6831c77cfcea5457e17084)
REM AIRSS Version 0.9.1 bugfix July 2018 build 013d7b7c2542+ Fri, 06 Jul 2018 19:26:36 +0100
REM compiler GCC version 9.3.0
REM options -cpp -mtune=generic -march=x86-64 -g -O0
REM seed -930932868 -307082026 1645400110 -611748283 -1488833204 1838129078 -900539935 -489760180 344517215 -740686198 -248751550 2049132634 -1752062999 -920296414 837943460 -1950288222 514696039 1243042106 2128499236 -1367397685 1295808949 -1006820417 241195472 1512865649 1691898328 1402473214 1612293526 1801714068 1093957860 -352424370 338226644 1517538333 -1376449029
REM
CELL 1.54180   50.00000   50.00000   50.00000   90.00000   90.00000   90.00000
LATT -1
SFAC C  
C      1  0.4775620000000  0.5379110000000  0.4364830000000 1.0
C      1  0.5376970000000  0.4294300000000  0.4784580000000 1.0
C      1  0.4918460000000  0.5213490000000  0.4131270000000 1.0
C      1  0.4731130000000  0.4778430000000  0.5322720000000 1.0
C      1  0.4848180000000  0.5247790000000  0.5706220000000 1.0
C      1  0.4483510000000  0.4596970000000  0.4663520000000 1.0
C      1  0.4244740000000  0.4980630000000  0.5003040000000 1.0
C      1  0.4824770000000  0.4321060000000  0.5329020000000 1.0
C      1  0.5225700000000  0.4091910000000  0.5162040000000 1.0
C      1  0.4357910000000  0.4832190000000  0.4570840000000 1.0
C      1  0.4927870000000  0.4938540000000  0.4140130000000 1.0
C      1  0.5382260000000  0.5699680000000  0.4820110000000 1.0
C      1  0.5197050000000  0.4582690000000  0.5110570000000 1.0
C      1  0.5009570000000  0.5468040000000  0.5630420000000 1.0
C      1  0.5394760000000  0.5613760000000  0.5263720000000 1.0
C      1  0.4925040000000  0.4978920000000  0.4591710000000 1.0
C      1  0.4817260000000  0.5223580000000  0.4996680000000 1.0
C      1  0.4525780000000  0.4555810000000  0.4958400000000 1.0
C      1  0.4253860000000  0.5038510000000  0.4732320000000 1.0
C      1  0.4344540000000  0.5079170000000  0.5440180000000 1.0
C      1  0.4913150000000  0.5612290000000  0.5395520000000 1.0
C      1  0.4915700000000  0.4444640000000  0.4658580000000 1.0
C      1  0.5535470000000  0.5579000000000  0.5018200000000 1.0
C      1  0.5739280000000  0.5154300000000  0.5178810000000 1.0
C      1  0.4536840000000  0.5387520000000  0.5098800000000 1.0
C      1  0.5170250000000  0.5076020000000  0.4157980000000 1.0
C      1  0.4786520000000  0.5655270000000  0.4510930000000 1.0
C      1  0.5682670000000  0.5347900000000  0.4969720000000 1.0
C      1  0.5228550000000  0.4823310000000  0.5275920000000 1.0
C      1  0.5440370000000  0.4733960000000  0.4637280000000 1.0
C      1  0.4368970000000  0.5291830000000  0.4647870000000 1.0
C      1  0.4771410000000  0.4824990000000  0.4363990000000 1.0
C      1  0.4740660000000  0.4991040000000  0.4838420000000 1.0
C      1  0.4721710000000  0.4567510000000  0.4508740000000 1.0
C      1  0.4982500000000  0.5273950000000  0.4539490000000 1.0
C      1  0.5422600000000  0.4763060000000  0.5493690000000 1.0
C      1  0.5473950000000  0.5443940000000  0.5476310000000 1.0
C      1  0.5162050000000  0.4866730000000  0.4734840000000 1.0
C      1  0.4704710000000  0.4323430000000  0.5060600000000 1.0
C      1  0.4523930000000  0.5238280000000  0.4417850000000 1.0
C      1  0.5027780000000  0.4651540000000  0.4888680000000 1.0
C      1  0.4598350000000  0.5318900000000  0.5587070000000 1.0
C      1  0.4647830000000  0.5497890000000  0.5356370000000 1.0
C      1  0.5688200000000  0.4935120000000  0.4994140000000 1.0
C      1  0.5282090000000  0.5104960000000  0.5730640000000 1.0
C      1  0.5120530000000  0.5783160000000  0.4923730000000 1.0
C      1  0.4990060000000  0.5183540000000  0.5235680000000 1.0
C      1  0.5407370000000  0.4451790000000  0.4568540000000 1.0
C      1  0.5272750000000  0.5381130000000  0.5662390000000 1.0
C      1  0.5513690000000  0.5000930000000  0.5603350000000 1.0
C      1  0.5573540000000  0.5137450000000  0.4789540000000 1.0
C      1  0.4445600000000  0.5501570000000  0.4831050000000 1.0
C      1  0.5151930000000  0.4144270000000  0.4903340000000 1.0
C      1  0.5637110000000  0.5204160000000  0.5438180000000 1.0
C      1  0.5250690000000  0.5391230000000  0.4439960000000 1.0
C      1  0.5454850000000  0.4258040000000  0.5256740000000 1.0
C      1  0.4359270000000  0.5212340000000  0.5674070000000 1.0
C      1  0.5384220000000  0.5160460000000  0.4335500000000 1.0
C      1  0.4444440000000  0.4822370000000  0.5355520000000 1.0
C      1  0.5255480000000  0.5104280000000  0.5157800000000 1.0
C      1  0.5016870000000  0.5750080000000  0.4642610000000 1.0
C      1  0.4885870000000  0.4233380000000  0.4850860000000 1.0
C      1  0.5281540000000  0.5641340000000  0.4561440000000 1.0
C      1  0.5065090000000  0.4173360000000  0.5381740000000 1.0
C      1  0.5118250000000  0.5703060000000  0.5209380000000 1.0
C      1  0.5265430000000  0.4560600000000  0.5623630000000 1.0
C      1  0.4808420000000  0.4551590000000  0.5493130000000 1.0
C      1  0.4765390000000  0.4745690000000  0.5008780000000 1.0
C      1  0.5008200000000  0.4985480000000  0.5692660000000 1.0
C      1  0.4329630000000  0.4735250000000  0.5112110000000 1.0
C      1  0.4573600000000  0.5683780000000  0.4677430000000 1.0
C      1  0.5296120000000  0.4316640000000  0.5497010000000 1.0
C      1  0.5036660000000  0.5327470000000  0.4826150000000 1.0
C      1  0.5470450000000  0.4453390000000  0.5033260000000 1.0
C      1  0.4954910000000  0.4948430000000  0.5398250000000 1.0
C      1  0.4514530000000  0.4960460000000  0.4377150000000 1.0
C      1  0.5257520000000  0.5122890000000  0.4874950000000 1.0
C      1  0.4324360000000  0.5194250000000  0.5175650000000 1.0
C      1  0.5598850000000  0.4691320000000  0.4915160000000 1.0
C      1  0.5536030000000  0.5003470000000  0.4524220000000 1.0
C      1  0.5000200000000  0.4659410000000  0.5686270000000 1.0
END
