TITL C-24400-2614-10 -0.0321525345947126 125000 -115.048959105077 0 0 18 (C1) n - 1
REM
REM in /rds/project/t2_vol4/rds-t2-cs072/BORA/CARBON/from-Arr/AIRSS/Generating-Clusters/GAP-ML-2020/Higher-Symm/SD-CG/HFTN-CG
REM
REM
REM
REM
REM
REM ./C.cell (b20cbc046b6831c77cfcea5457e17084)
REM AIRSS Version 0.9.1 bugfix July 2018 build 013d7b7c2542+ Fri, 06 Jul 2018 19:26:36 +0100
REM compiler GCC version 9.3.0
REM options -cpp -mtune=generic -march=x86-64 -g -O0
REM seed -1011276377 -1085277605 350337322 525611089 -1629404859 825558568 -958994456 970250547 -1946893451 985148268 -1317716391 -1806103301 180695316 -1465608412 -1348553083 -389419355 1996309274 -1368039036 128660662 -524744659 -2101962304 1417599735 1325474330 819458758 -808690406 -940855809 625118171 1792080372 2116715550 458912369 1869190831 -1502257173 762400297
REM
CELL 1.54180   50.00000   50.00000   50.00000   90.00000   90.00000   90.00000
LATT -1
SFAC C  
C      1  0.5052990000000  0.5194650000000  0.5311060000000 1.0
C      1  0.5360900000000  0.5180070000000  0.4851280000000 1.0
C      1  0.5272710000000  0.5009320000000  0.5295340000000 1.0
C      1  0.5081050000000  0.4777290000000  0.5303690000000 1.0
C      1  0.4763460000000  0.4668340000000  0.4699650000000 1.0
C      1  0.5092550000000  0.5303980000000  0.4837330000000 1.0
C      1  0.4899540000000  0.4550550000000  0.4876500000000 1.0
C      1  0.5332060000000  0.4768630000000  0.4903350000000 1.0
C      1  0.4656970000000  0.5194320000000  0.5047300000000 1.0
C      1  0.4610810000000  0.5045730000000  0.5287710000000 1.0
C      1  0.5256560000000  0.4948380000000  0.4688460000000 1.0
C      1  0.4756110000000  0.4961710000000  0.4681380000000 1.0
C      1  0.4564810000000  0.5126800000000  0.4800060000000 1.0
C      1  0.5005920000000  0.5088450000000  0.4644060000000 1.0
C      1  0.5112640000000  0.4647170000000  0.5044440000000 1.0
C      1  0.5425510000000  0.5000980000000  0.5063380000000 1.0
C      1  0.4855470000000  0.4958850000000  0.5357700000000 1.0
C      1  0.4936570000000  0.5320370000000  0.5074800000000 1.0
END
