TITL C-24413-2565-3 11.4368954912556 125000 -598.353945921856 0 0 87 (C3) n - 1
REM
REM in /rds/project/t2_vol4/rds-t2-cs072/BORA/CARBON/from-Arr/AIRSS/Generating-Clusters/GAP-ML-2020/Higher-Symm/SD-CG/HFTN-CG
REM
REM
REM
REM
REM
REM ./C.cell (b20cbc046b6831c77cfcea5457e17084)
REM AIRSS Version 0.9.1 bugfix July 2018 build 013d7b7c2542+ Fri, 06 Jul 2018 19:26:36 +0100
REM compiler GCC version 9.3.0
REM options -cpp -mtune=generic -march=x86-64 -g -O0
REM seed -686711077 1211757578 -1358305917 -907412316 1266610957 -1363425848 1435536725 -44595801 -458704360 637220138 -1858080832 1747009117 2075034415 -485581608 425564183 546831026 463239386 744679207 -704295155 644854913 -1950609532 -1640313314 -967531798 330047943 1987750955 2051490573 936777035 321146556 1596957068 -261039722 -1446175816 -1362350524 -451722925
REM
CELL 1.54180   50.00000   50.00000   50.00000   90.00000   90.00000   90.00000
LATT -1
SFAC C  
C      1  0.5418580000000  0.5307410000000  0.5687770000000 1.0
C      1  0.4524890000000  0.5208040000000  0.5688280000000 1.0
C      1  0.5057790000000  0.4483760000000  0.5687680000000 1.0
C      1  0.5585530000000  0.5522090000000  0.4806660000000 1.0
C      1  0.4254980000000  0.5246250000000  0.4807370000000 1.0
C      1  0.5159140000000  0.4231880000000  0.4806420000000 1.0
C      1  0.4605080000000  0.4705550000000  0.5673140000000 1.0
C      1  0.5452860000000  0.4804470000000  0.5672660000000 1.0
C      1  0.4943300000000  0.5489200000000  0.5673230000000 1.0
C      1  0.5160590000000  0.5068270000000  0.5409710000000 1.0
C      1  0.4860820000000  0.5104490000000  0.5409900000000 1.0
C      1  0.4979340000000  0.4826770000000  0.5409720000000 1.0
C      1  0.4449310000000  0.4338170000000  0.5009470000000 1.0
C      1  0.5848510000000  0.4853990000000  0.5008810000000 1.0
C      1  0.4702200000000  0.5807830000000  0.5009880000000 1.0
C      1  0.4157100000000  0.4723030000000  0.4963360000000 1.0
C      1  0.5661300000000  0.4408550000000  0.4962320000000 1.0
C      1  0.5181540000000  0.5868470000000  0.4963170000000 1.0
C      1  0.4769550000000  0.5259530000000  0.4374750000000 1.0
C      1  0.4890100000000  0.4671360000000  0.4374450000000 1.0
C      1  0.5339200000000  0.5069840000000  0.4374330000000 1.0
C      1  0.4925100000000  0.5850930000000  0.4827480000000 1.0
C      1  0.4300420000000  0.4509860000000  0.4827350000000 1.0
C      1  0.5774160000000  0.4639400000000  0.4826490000000 1.0
C      1  0.5038350000000  0.4626470000000  0.5194050000000 1.0
C      1  0.5304420000000  0.5219760000000  0.5194120000000 1.0
C      1  0.4657580000000  0.5153540000000  0.5194490000000 1.0
C      1  0.4670180000000  0.4215790000000  0.4864950000000 1.0
C      1  0.5843980000000  0.5106620000000  0.4864570000000 1.0
C      1  0.4485600000000  0.5677750000000  0.4865620000000 1.0
C      1  0.5613640000000  0.5190040000000  0.4432620000000 1.0
C      1  0.4528270000000  0.5437040000000  0.4433380000000 1.0
C      1  0.4857050000000  0.4373580000000  0.4432770000000 1.0
C      1  0.5639360000000  0.5219830000000  0.5508930000000 1.0
C      1  0.4490240000000  0.5443230000000  0.5509720000000 1.0
C      1  0.4871330000000  0.4336360000000  0.5509060000000 1.0
C      1  0.5219280000000  0.5495380000000  0.5695120000000 1.0
C      1  0.4461760000000  0.4941440000000  0.5695370000000 1.0
C      1  0.5320240000000  0.4562380000000  0.5694700000000 1.0
C      1  0.4344250000000  0.5458950000000  0.4987930000000 1.0
C      1  0.4930410000000  0.4202640000000  0.4987080000000 1.0
C      1  0.5725330000000  0.5338420000000  0.4987030000000 1.0
C      1  0.5187840000000  0.4596080000000  0.4441790000000 1.0
C      1  0.5255560000000  0.5365250000000  0.4442050000000 1.0
C      1  0.4555580000000  0.5039320000000  0.4442350000000 1.0
C      1  0.4496520000000  0.4915240000000  0.5077270000000 1.0
C      1  0.5325190000000  0.4606270000000  0.5076640000000 1.0
C      1  0.5178430000000  0.5478400000000  0.5077070000000 1.0
C      1  0.5363740000000  0.4795830000000  0.4553060000000 1.0
C      1  0.4994690000000  0.5417590000000  0.4553520000000 1.0
C      1  0.4640750000000  0.4787100000000  0.4553500000000 1.0
C      1  0.4437840000000  0.4451270000000  0.5277200000000 1.0
C      1  0.5756450000000  0.4787210000000  0.5276520000000 1.0
C      1  0.4806210000000  0.5761190000000  0.5277480000000 1.0
C      1  0.4809930000000  0.5227110000000  0.5669770000000 1.0
C      1  0.4898740000000  0.4721100000000  0.5669520000000 1.0
C      1  0.5292560000000  0.5051020000000  0.5669410000000 1.0
C      1  0.4326090000000  0.4699230000000  0.5202470000000 1.0
C      1  0.5597550000000  0.4566540000000  0.5201640000000 1.0
C      1  0.5076730000000  0.5734000000000  0.5202410000000 1.0
C      1  0.4443990000000  0.5366360000000  0.5244300000000 1.0
C      1  0.4960870000000  0.4335040000000  0.5243590000000 1.0
C      1  0.5595580000000  0.5298330000000  0.5243570000000 1.0
C      1  0.5371010000000  0.5661190000000  0.4915930000000 1.0
C      1  0.4241840000000  0.4990810000000  0.4916360000000 1.0
C      1  0.5386990000000  0.4348100000000  0.4915410000000 1.0
C      1  0.4892910000000  0.5123540000000  0.4147160000000 1.0
C      1  0.4946060000000  0.4846430000000  0.4147020000000 1.0
C      1  0.5159470000000  0.5031010000000  0.4146960000000 1.0
C      1  0.4462590000000  0.4539640000000  0.4596210000000 1.0
C      1  0.5667150000000  0.4765220000000  0.4595550000000 1.0
C      1  0.4869510000000  0.5695610000000  0.4596400000000 1.0
C      1  0.4585660000000  0.5655310000000  0.4595570000000 1.0
C      1  0.4639410000000  0.4313970000000  0.4595020000000 1.0
C      1  0.5774180000000  0.5031190000000  0.4594600000000 1.0
C      1  0.5116240000000  0.4339530000000  0.4543620000000 1.0
C      1  0.5513600000000  0.5431400000000  0.4543800000000 1.0
C      1  0.4369330000000  0.5229590000000  0.4544420000000 1.0
C      1  0.5239310000000  0.4817510000000  0.4851450000000 1.0
C      1  0.5038300000000  0.5298660000000  0.4851760000000 1.0
C      1  0.4722120000000  0.4884000000000  0.4851800000000 1.0
C      1  0.4958880000000  0.4762580000000  0.4940240000000 1.0
C      1  0.5226130000000  0.5083170000000  0.4940200000000 1.0
C      1  0.4814870000000  0.5154320000000  0.4940480000000 1.0
C      1  0.4602790000000  0.4459350000000  0.5509680000000 1.0
C      1  0.5667120000000  0.4925760000000  0.5509210000000 1.0
C      1  0.4731030000000  0.5614300000000  0.5510040000000 1.0
END
