TITL C-246657-6525-5 0.000868060239012275 125000 -74.3886872270033 0 0 12 (C1) n - 1
REM
REM in /rds/project/t2_vol4/rds-t2-cs072/BORA/CARBON/from-Arr/AIRSS/Generating-Clusters/GAP-ML-2020/Higher-Symm/SD-CG/HFTN-CG
REM
REM
REM
REM
REM
REM ./C.cell (b20cbc046b6831c77cfcea5457e17084)
REM AIRSS Version 0.9.1 bugfix July 2018 build 013d7b7c2542+ Fri, 06 Jul 2018 19:26:36 +0100
REM compiler GCC version 9.3.0
REM options -cpp -mtune=generic -march=x86-64 -g -O0
REM seed -1033661509 -1834908154 167583052 -578597761 -93555844 -1048108008 -1382550557 635008650 447300298 -481798775 -1216867406 968324100 -422609695 -2034615469 1532661054 -1777943608 322213914 507192365 -2047880542 -1726485147 -996490938 206441662 1836201350 2139921773 -40519822 -1234761904 1610204263 790291193 1837589394 -687538154 1050972276 1844723784 -2130928659
REM
CELL 1.54180   50.00000   50.00000   50.00000   90.00000   90.00000   90.00000
LATT -1
SFAC C  
C      1  0.4458070000000  0.4796970000000  0.4777690000000 1.0
C      1  0.4595630000000  0.4762700000000  0.5038210000000 1.0
C      1  0.4464720000000  0.4834370000000  0.5278400000000 1.0
C      1  0.4365090000000  0.5081820000000  0.5271490000000 1.0
C      1  0.4380320000000  0.5249840000000  0.5079100000000 1.0
C      1  0.4462230000000  0.5304430000000  0.4835400000000 1.0
C      1  0.4595790000000  0.5056640000000  0.4757430000000 1.0
C      1  0.5584970000000  0.4993680000000  0.4981740000000 1.0
C      1  0.4815150000000  0.4910810000000  0.4898150000000 1.0
C      1  0.5324330000000  0.4976020000000  0.4963880000000 1.0
C      1  0.5837240000000  0.5011500000000  0.4999460000000 1.0
C      1  0.5078460000000  0.4950060000000  0.4938500000000 1.0
END
