TITL C-24396-2508-4 -2.10463066313987 125000 -863.888434163123 0 0 124 (C1) n - 1
REM
REM in /rds/project/t2_vol4/rds-t2-cs072/BORA/CARBON/from-Arr/AIRSS/Generating-Clusters/GAP-ML-2020/Higher-Symm/SD-CG/HFTN-CG
REM
REM
REM
REM
REM
REM ./C.cell (b20cbc046b6831c77cfcea5457e17084)
REM AIRSS Version 0.9.1 bugfix July 2018 build 013d7b7c2542+ Fri, 06 Jul 2018 19:26:36 +0100
REM compiler GCC version 9.3.0
REM options -cpp -mtune=generic -march=x86-64 -g -O0
REM seed 643869478 2121621302 -1485789205 1079461623 -1980662993 -114838016 -2079238662 277817824 -928716684 92567143 1292895744 -1215512531 -439669116 1885008909 7594357 -1897402507 1736184438 1241344670 -1730764374 -614635990 1257845951 34287982 1931055655 -1614892069 366006969 789543612 2072578746 1702382261 1236003824 -1410420295 631983304 368281249 1976825694
REM
CELL 1.54180   50.00000   50.00000   50.00000   90.00000   90.00000   90.00000
LATT -1
SFAC C  
C      1  0.4709040000000  0.4829520000000  0.5808000000000 1.0
C      1  0.4708550000000  0.4361480000000  0.4428960000000 1.0
C      1  0.4714960000000  0.5792770000000  0.4725970000000 1.0
C      1  0.4486820000000  0.4168310000000  0.5057000000000 1.0
C      1  0.4474440000000  0.5327960000000  0.4264550000000 1.0
C      1  0.4460520000000  0.5459840000000  0.5628640000000 1.0
C      1  0.5615340000000  0.4852910000000  0.5065530000000 1.0
C      1  0.5614290000000  0.5028650000000  0.4831920000000 1.0
C      1  0.5622310000000  0.5146820000000  0.5106470000000 1.0
C      1  0.5271970000000  0.5266640000000  0.5434420000000 1.0
C      1  0.5270460000000  0.4543200000000  0.4979950000000 1.0
C      1  0.5271250000000  0.5246290000000  0.4557640000000 1.0
C      1  0.4116640000000  0.5149830000000  0.4499940000000 1.0
C      1  0.4066820000000  0.5308960000000  0.5286530000000 1.0
C      1  0.4089240000000  0.4534720000000  0.5155210000000 1.0
C      1  0.4912490000000  0.5515290000000  0.5667460000000 1.0
C      1  0.4942090000000  0.4099150000000  0.5077600000000 1.0
C      1  0.4930600000000  0.5329310000000  0.4199110000000 1.0
C      1  0.6034390000000  0.4581820000000  0.4910150000000 1.0
C      1  0.6042790000000  0.5271730000000  0.4694570000000 1.0
C      1  0.6040850000000  0.5128260000000  0.5400130000000 1.0
C      1  0.5475020000000  0.5411510000000  0.4421790000000 1.0
C      1  0.5472400000000  0.5290520000000  0.5645440000000 1.0
C      1  0.5440710000000  0.4299030000000  0.4932700000000 1.0
C      1  0.5881160000000  0.5528950000000  0.5083330000000 1.0
C      1  0.5872830000000  0.4661220000000  0.5412490000000 1.0
C      1  0.5875160000000  0.4800580000000  0.4499020000000 1.0
C      1  0.5133070000000  0.4274970000000  0.4619020000000 1.0
C      1  0.5150980000000  0.5688790000000  0.4549010000000 1.0
C      1  0.5142040000000  0.5043820000000  0.5811980000000 1.0
C      1  0.5657520000000  0.5446810000000  0.5487520000000 1.0
C      1  0.5645660000000  0.4362340000000  0.5135740000000 1.0
C      1  0.5663460000000  0.5197390000000  0.4367880000000 1.0
C      1  0.4539780000000  0.5072230000000  0.4149480000000 1.0
C      1  0.4526030000000  0.5692730000000  0.5475130000000 1.0
C      1  0.4553370000000  0.4225160000000  0.5330830000000 1.0
C      1  0.5149780000000  0.4628100000000  0.5792240000000 1.0
C      1  0.5150890000000  0.4488600000000  0.4267070000000 1.0
C      1  0.5151930000000  0.5880880000000  0.4917860000000 1.0
C      1  0.4447680000000  0.4839870000000  0.4297810000000 1.0
C      1  0.4435800000000  0.5703380000000  0.5203110000000 1.0
C      1  0.4457330000000  0.4445700000000  0.5497490000000 1.0
C      1  0.4945540000000  0.5854750000000  0.5117750000000 1.0
C      1  0.4956000000000  0.4459910000000  0.5665800000000 1.0
C      1  0.4950360000000  0.4667500000000  0.4173450000000 1.0
C      1  0.5652490000000  0.5708200000000  0.5092590000000 1.0
C      1  0.5644380000000  0.4562090000000  0.5562430000000 1.0
C      1  0.5645640000000  0.4724060000000  0.4337870000000 1.0
C      1  0.4721270000000  0.4107360000000  0.4893240000000 1.0
C      1  0.4737290000000  0.5396560000000  0.4401660000000 1.0
C      1  0.4719280000000  0.5302800000000  0.5611750000000 1.0
C      1  0.5124970000000  0.5422130000000  0.4730120000000 1.0
C      1  0.5120180000000  0.5028190000000  0.5489050000000 1.0
C      1  0.5084800000000  0.4560670000000  0.4772520000000 1.0
C      1  0.5332510000000  0.5002740000000  0.4730570000000 1.0
C      1  0.5344960000000  0.5261150000000  0.5137560000000 1.0
C      1  0.5334630000000  0.4781320000000  0.5137690000000 1.0
C      1  0.5830850000000  0.5307120000000  0.5288550000000 1.0
C      1  0.5818900000000  0.4604560000000  0.5114900000000 1.0
C      1  0.5826620000000  0.5090060000000  0.4596680000000 1.0
C      1  0.5413610000000  0.4548660000000  0.4439930000000 1.0
C      1  0.5436750000000  0.5729870000000  0.4876010000000 1.0
C      1  0.5425360000000  0.4740840000000  0.5677490000000 1.0
C      1  0.4519650000000  0.4979520000000  0.5224670000000 1.0
C      1  0.4426410000000  0.4987460000000  0.4960620000000 1.0
C      1  0.4541060000000  0.5210500000000  0.4840450000000 1.0
C      1  0.4741350000000  0.4772160000000  0.5285410000000 1.0
C      1  0.4765910000000  0.4853550000000  0.4605660000000 1.0
C      1  0.4730860000000  0.5369750000000  0.5033200000000 1.0
C      1  0.4359930000000  0.4305790000000  0.4833350000000 1.0
C      1  0.4344270000000  0.5515750000000  0.4442490000000 1.0
C      1  0.4327530000000  0.5210300000000  0.5688010000000 1.0
C      1  0.4593250000000  0.4238900000000  0.4657130000000 1.0
C      1  0.4600590000000  0.5642260000000  0.4519180000000 1.0
C      1  0.4584810000000  0.5078970000000  0.5766280000000 1.0
C      1  0.4827820000000  0.4151420000000  0.5333680000000 1.0
C      1  0.4820970000000  0.5101260000000  0.4075420000000 1.0
C      1  0.4805290000000  0.5741020000000  0.5540460000000 1.0
C      1  0.4846640000000  0.4703200000000  0.4831700000000 1.0
C      1  0.4939700000000  0.5242590000000  0.4856390000000 1.0
C      1  0.4934750000000  0.5005350000000  0.5272320000000 1.0
C      1  0.5432980000000  0.5672420000000  0.4567250000000 1.0
C      1  0.5425390000000  0.5034390000000  0.5791260000000 1.0
C      1  0.5413110000000  0.4301670000000  0.4627820000000 1.0
C      1  0.5206460000000  0.5274690000000  0.4262940000000 1.0
C      1  0.5194560000000  0.5500440000000  0.5601780000000 1.0
C      1  0.5225780000000  0.4157060000000  0.5096640000000 1.0
C      1  0.4235260000000  0.4906980000000  0.4494580000000 1.0
C      1  0.4198820000000  0.5542290000000  0.5148590000000 1.0
C      1  0.4215340000000  0.4568710000000  0.5418670000000 1.0
C      1  0.4987290000000  0.4289960000000  0.4384500000000 1.0
C      1  0.4993140000000  0.5868580000000  0.4685080000000 1.0
C      1  0.4986510000000  0.4833690000000  0.5898320000000 1.0
C      1  0.5268410000000  0.4728420000000  0.4635850000000 1.0
C      1  0.5282460000000  0.5495560000000  0.4958830000000 1.0
C      1  0.5272660000000  0.4795810000000  0.5424920000000 1.0
C      1  0.5543230000000  0.5680070000000  0.5365370000000 1.0
C      1  0.5538020000000  0.4341760000000  0.5395120000000 1.0
C      1  0.5548270000000  0.4975850000000  0.4223920000000 1.0
C      1  0.5284110000000  0.5036190000000  0.4133050000000 1.0
C      1  0.5278200000000  0.5733960000000  0.5465980000000 1.0
C      1  0.5280490000000  0.4217880000000  0.5369470000000 1.0
C      1  0.6050170000000  0.5449050000000  0.4874920000000 1.0
C      1  0.6041890000000  0.4880080000000  0.5450590000000 1.0
C      1  0.6037930000000  0.4652710000000  0.4667480000000 1.0
C      1  0.5032020000000  0.4240090000000  0.5510140000000 1.0
C      1  0.5032050000000  0.4909960000000  0.4063740000000 1.0
C      1  0.5022080000000  0.5846270000000  0.5385220000000 1.0
C      1  0.4129890000000  0.5408100000000  0.4609000000000 1.0
C      1  0.4125390000000  0.5118100000000  0.5504050000000 1.0
C      1  0.4195640000000  0.4528850000000  0.4889780000000 1.0
C      1  0.4743850000000  0.4612470000000  0.5062820000000 1.0
C      1  0.4746460000000  0.5139710000000  0.4642460000000 1.0
C      1  0.4716130000000  0.5210840000000  0.5283180000000 1.0
C      1  0.4073600000000  0.5448700000000  0.4894190000000 1.0
C      1  0.4069330000000  0.4838330000000  0.5438410000000 1.0
C      1  0.4209700000000  0.4820980000000  0.4794480000000 1.0
C      1  0.3958680000000  0.4943270000000  0.4952880000000 1.0
C      1  0.3957520000000  0.5221670000000  0.5030510000000 1.0
C      1  0.3943010000000  0.4785250000000  0.5188920000000 1.0
C      1  0.4693580000000  0.4658870000000  0.4351280000000 1.0
C      1  0.4694810000000  0.5706790000000  0.5018240000000 1.0
C      1  0.4701030000000  0.4609960000000  0.5596760000000 1.0
C      1  0.5166970000000  0.5047070000000  0.5018340000000 1.0
END
