TITL C-24497-3896-12 76.6505539140931 125000 -730.673036999666 0 0 107 (C1) n - 1
REM
REM in /rds/project/t2_vol4/rds-t2-cs072/BORA/CARBON/from-Arr/AIRSS/Generating-Clusters/GAP-ML-2020/Higher-Symm/SD-CG/HFTN-CG
REM
REM
REM
REM
REM
REM ./C.cell (b20cbc046b6831c77cfcea5457e17084)
REM AIRSS Version 0.9.1 bugfix July 2018 build 013d7b7c2542+ Fri, 06 Jul 2018 19:26:36 +0100
REM compiler GCC version 9.3.0
REM options -cpp -mtune=generic -march=x86-64 -g -O0
REM seed 619795516 -856110384 -2136725716 1450470406 -1514253108 -1150554202 1189469915 -1024676702 270396291 1309045335 1115630959 329817260 -1546615177 -1009840008 1196240668 -290400161 -185224453 58564527 -1693520754 -2103825904 -1075790519 1513693050 -218795646 697234514 -699705665 1702084247 481925489 710757247 1901683800 396302807 1810685587 1317556031 -1901707887
REM
CELL 1.54180   50.00000   50.00000   50.00000   90.00000   90.00000   90.00000
LATT -1
SFAC C  
C      1  0.5390930000000  0.5815860000000  0.5331010000000 1.0
C      1  0.5388640000000  0.5580080000000  0.4338730000000 1.0
C      1  0.5376070000000  0.4478340000000  0.4298580000000 1.0
C      1  0.5364660000000  0.4132970000000  0.5213990000000 1.0
C      1  0.5395660000000  0.4958460000000  0.5852480000000 1.0
C      1  0.5721990000000  0.4479190000000  0.4695840000000 1.0
C      1  0.5708050000000  0.4570700000000  0.5244890000000 1.0
C      1  0.5717750000000  0.5108720000000  0.5479340000000 1.0
C      1  0.5721610000000  0.5513890000000  0.5059880000000 1.0
C      1  0.5755390000000  0.5257040000000  0.4551440000000 1.0
C      1  0.4441630000000  0.5626650000000  0.5190520000000 1.0
C      1  0.4424870000000  0.5373480000000  0.4481160000000 1.0
C      1  0.4438340000000  0.4608150000000  0.4499750000000 1.0
C      1  0.4407270000000  0.4417010000000  0.5224080000000 1.0
C      1  0.4425600000000  0.5033110000000  0.5644430000000 1.0
C      1  0.5188580000000  0.4575210000000  0.4906460000000 1.0
C      1  0.5175110000000  0.4762360000000  0.5365360000000 1.0
C      1  0.5170280000000  0.5194880000000  0.5236670000000 1.0
C      1  0.5170080000000  0.5290130000000  0.4834810000000 1.0
C      1  0.5200230000000  0.4944740000000  0.4536300000000 1.0
C      1  0.4303200000000  0.5213120000000  0.5441930000000 1.0
C      1  0.4302220000000  0.5490160000000  0.4965000000000 1.0
C      1  0.4271520000000  0.5127480000000  0.4542350000000 1.0
C      1  0.4315690000000  0.4546670000000  0.4748780000000 1.0
C      1  0.4266810000000  0.4667430000000  0.5338820000000 1.0
C      1  0.5686810000000  0.5397310000000  0.4796660000000 1.0
C      1  0.5742170000000  0.4972970000000  0.4609770000000 1.0
C      1  0.5804330000000  0.4566650000000  0.4952940000000 1.0
C      1  0.5685790000000  0.4817160000000  0.5390840000000 1.0
C      1  0.5692520000000  0.5304520000000  0.5272920000000 1.0
C      1  0.4878830000000  0.4189870000000  0.4940710000000 1.0
C      1  0.4887860000000  0.4696140000000  0.5709350000000 1.0
C      1  0.4913970000000  0.5589010000000  0.5518360000000 1.0
C      1  0.4906240000000  0.5677190000000  0.4607420000000 1.0
C      1  0.4889510000000  0.4825250000000  0.4243230000000 1.0
C      1  0.4427070000000  0.4355430000000  0.4931710000000 1.0
C      1  0.4415820000000  0.4749150000000  0.5585270000000 1.0
C      1  0.4446130000000  0.5478620000000  0.5435710000000 1.0
C      1  0.4435970000000  0.5562500000000  0.4700730000000 1.0
C      1  0.4424820000000  0.4889500000000  0.4399080000000 1.0
C      1  0.5360180000000  0.4688770000000  0.4133760000000 1.0
C      1  0.5322670000000  0.3980060000000  0.4997100000000 1.0
C      1  0.5371770000000  0.4697420000000  0.5835090000000 1.0
C      1  0.5369790000000  0.5797540000000  0.5597370000000 1.0
C      1  0.5359370000000  0.5828010000000  0.4440840000000 1.0
C      1  0.5295720000000  0.4365580000000  0.5532820000000 1.0
C      1  0.5301050000000  0.5350100000000  0.5759850000000 1.0
C      1  0.5300870000000  0.5828300000000  0.4920740000000 1.0
C      1  0.5323080000000  0.5187730000000  0.4217620000000 1.0
C      1  0.5251080000000  0.4213020000000  0.4592580000000 1.0
C      1  0.4446410000000  0.4787000000000  0.5138090000000 1.0
C      1  0.4462570000000  0.5076520000000  0.5227500000000 1.0
C      1  0.4456330000000  0.5238180000000  0.4987030000000 1.0
C      1  0.4448160000000  0.5042920000000  0.4753470000000 1.0
C      1  0.4311100000000  0.4795430000000  0.4879360000000 1.0
C      1  0.4676170000000  0.5698090000000  0.4777150000000 1.0
C      1  0.4660980000000  0.4997980000000  0.4278260000000 1.0
C      1  0.4660910000000  0.4280920000000  0.4788510000000 1.0
C      1  0.4653580000000  0.4585270000000  0.5594480000000 1.0
C      1  0.4680080000000  0.5439860000000  0.5593510000000 1.0
C      1  0.5454010000000  0.4964860000000  0.4712520000000 1.0
C      1  0.5360830000000  0.4799100000000  0.4948940000000 1.0
C      1  0.5445460000000  0.4849230000000  0.5231890000000 1.0
C      1  0.5458500000000  0.5158250000000  0.5172320000000 1.0
C      1  0.5453530000000  0.5228450000000  0.4866510000000 1.0
C      1  0.4929750000000  0.5675640000000  0.5223740000000 1.0
C      1  0.4918400000000  0.5431920000000  0.4414020000000 1.0
C      1  0.4909300000000  0.4554480000000  0.4415810000000 1.0
C      1  0.4898600000000  0.4297560000000  0.5231740000000 1.0
C      1  0.4916680000000  0.5008740000000  0.5720560000000 1.0
C      1  0.5154480000000  0.5852550000000  0.5166730000000 1.0
C      1  0.5161750000000  0.5427630000000  0.4242800000000 1.0
C      1  0.5121600000000  0.4351030000000  0.4369790000000 1.0
C      1  0.5132160000000  0.4186640000000  0.5378340000000 1.0
C      1  0.5152250000000  0.5121280000000  0.5858810000000 1.0
C      1  0.4662520000000  0.4438780000000  0.4522160000000 1.0
C      1  0.4643640000000  0.4378130000000  0.5380480000000 1.0
C      1  0.4666630000000  0.5168990000000  0.5719330000000 1.0
C      1  0.4676380000000  0.5731380000000  0.5075140000000 1.0
C      1  0.4657770000000  0.5296080000000  0.4335090000000 1.0
C      1  0.5502330000000  0.4363160000000  0.4546590000000 1.0
C      1  0.5518620000000  0.4359490000000  0.5345160000000 1.0
C      1  0.5536620000000  0.5170670000000  0.5702820000000 1.0
C      1  0.5535480000000  0.5737470000000  0.5080150000000 1.0
C      1  0.5549590000000  0.5324630000000  0.4350040000000 1.0
C      1  0.4066310000000  0.5153630000000  0.5271630000000 1.0
C      1  0.4071380000000  0.5307480000000  0.5003820000000 1.0
C      1  0.4036600000000  0.5132360000000  0.4781580000000 1.0
C      1  0.4043330000000  0.4892750000000  0.4936020000000 1.0
C      1  0.4035580000000  0.4876100000000  0.5221860000000 1.0
C      1  0.5177930000000  0.5801660000000  0.4656690000000 1.0
C      1  0.5199280000000  0.4906450000000  0.4225010000000 1.0
C      1  0.5133000000000  0.4092070000000  0.4824030000000 1.0
C      1  0.5177570000000  0.4606160000000  0.5651800000000 1.0
C      1  0.5181800000000  0.5592140000000  0.5652390000000 1.0
C      1  0.4767820000000  0.5020810000000  0.5236040000000 1.0
C      1  0.4763150000000  0.5235190000000  0.5026040000000 1.0
C      1  0.4765190000000  0.5095450000000  0.4762640000000 1.0
C      1  0.4874370000000  0.4852300000000  0.4842760000000 1.0
C      1  0.4769880000000  0.4760920000000  0.5091840000000 1.0
C      1  0.5020370000000  0.5012340000000  0.5405260000000 1.0
C      1  0.5016250000000  0.5389060000000  0.5074830000000 1.0
C      1  0.5016360000000  0.5196960000000  0.4607380000000 1.0
C      1  0.5050350000000  0.4702560000000  0.4662690000000 1.0
C      1  0.5012610000000  0.4584440000000  0.5162270000000 1.0
C      1  0.5126910000000  0.4988560000000  0.4976360000000 1.0
C      1  0.5844510000000  0.4740830000000  0.4726340000000 1.0
END
