TITL C-24415-2497-3 74.1589367142554 125000 -168.538805157531 0 0 26 (C1) n - 1
REM
REM in /rds/project/t2_vol4/rds-t2-cs072/BORA/CARBON/from-Arr/AIRSS/Generating-Clusters/GAP-ML-2020/Higher-Symm/SD-CG/HFTN-CG
REM
REM
REM
REM
REM
REM ./C.cell (b20cbc046b6831c77cfcea5457e17084)
REM AIRSS Version 0.9.1 bugfix July 2018 build 013d7b7c2542+ Fri, 06 Jul 2018 19:26:36 +0100
REM compiler GCC version 9.3.0
REM options -cpp -mtune=generic -march=x86-64 -g -O0
REM seed 1779998005 1476954820 -645916803 -1985380895 -986687138 519115859 2138946416 -2069599739 1897823250 338617101 1955452535 1673138048 1933882051 -2024244125 1085927537 -1878802344 1470019634 1984921922 1895786217 -1671207756 1084912241 -1948726663 -334699134 -289278864 -895539520 -1343623338 -382416288 348501880 -866486638 -453827521 1302278069 -1714175271 535493939
REM
CELL 1.54180   50.00000   50.00000   50.00000   90.00000   90.00000   90.00000
LATT -1
SFAC C  
C      1  0.5226310000000  0.5341070000000  0.4771620000000 1.0
C      1  0.5011820000000  0.4320240000000  0.5144480000000 1.0
C      1  0.4348840000000  0.4748080000000  0.4877120000000 1.0
C      1  0.5513600000000  0.5021890000000  0.4950140000000 1.0
C      1  0.5445940000000  0.5175940000000  0.4730930000000 1.0
C      1  0.5066160000000  0.4748950000000  0.4619160000000 1.0
C      1  0.5247920000000  0.4750940000000  0.5256930000000 1.0
C      1  0.5028050000000  0.4996420000000  0.4526730000000 1.0
C      1  0.4766600000000  0.5343920000000  0.4797610000000 1.0
C      1  0.5062570000000  0.4421670000000  0.4882180000000 1.0
C      1  0.5151130000000  0.5414270000000  0.5048020000000 1.0
C      1  0.4444790000000  0.5429600000000  0.5101700000000 1.0
C      1  0.5111330000000  0.4513140000000  0.5281210000000 1.0
C      1  0.5542010000000  0.5179850000000  0.5177280000000 1.0
C      1  0.4876180000000  0.5469060000000  0.5034720000000 1.0
C      1  0.5164650000000  0.4999580000000  0.5376450000000 1.0
C      1  0.4660620000000  0.5521020000000  0.5212230000000 1.0
C      1  0.4943070000000  0.5002850000000  0.5537890000000 1.0
C      1  0.5390900000000  0.4766120000000  0.5001840000000 1.0
C      1  0.4499820000000  0.5244790000000  0.4876830000000 1.0
C      1  0.4986700000000  0.5241640000000  0.4643890000000 1.0
C      1  0.5285490000000  0.5243030000000  0.5251970000000 1.0
C      1  0.5271180000000  0.4624180000000  0.4793200000000 1.0
C      1  0.4386090000000  0.4997840000000  0.4848150000000 1.0
C      1  0.4696370000000  0.4947850000000  0.5545700000000 1.0
C      1  0.4871870000000  0.4536090000000  0.4712020000000 1.0
END
