TITL C-246637-6528-7 0.387327641491665 125000 -746.71090681241 0 0 110 (C1) n - 1
REM
REM in /rds/project/t2_vol4/rds-t2-cs072/BORA/CARBON/from-Arr/AIRSS/Generating-Clusters/GAP-ML-2020/Higher-Symm/SD-CG/HFTN-CG
REM
REM
REM
REM
REM
REM ./C.cell (b20cbc046b6831c77cfcea5457e17084)
REM AIRSS Version 0.9.1 bugfix July 2018 build 013d7b7c2542+ Fri, 06 Jul 2018 19:26:36 +0100
REM compiler GCC version 9.3.0
REM options -cpp -mtune=generic -march=x86-64 -g -O0
REM seed 1899376872 1192482879 1017330055 -1065416797 -340044787 -522748398 -1384455230 -468371770 1328681867 -56991336 578044525 -53269790 -782280013 -250636486 -464743155 957765784 -96921623 376192909 2006441375 746803803 -1590532328 2059093920 -1269340139 -132750559 1580771700 -1098397135 2096277232 -771181833 1177386192 1529715275 1215027406 -1983935590 -165162670
REM
CELL 1.54180   50.00000   50.00000   50.00000   90.00000   90.00000   90.00000
LATT -1
SFAC C  
C      1  0.5688360000000  0.4920210000000  0.4434140000000 1.0
C      1  0.5863290000000  0.4942450000000  0.5132820000000 1.0
C      1  0.5578790000000  0.4957980000000  0.5640060000000 1.0
C      1  0.5055610000000  0.4960490000000  0.5880290000000 1.0
C      1  0.4460000000000  0.4981490000000  0.5726370000000 1.0
C      1  0.4148110000000  0.5017890000000  0.5256380000000 1.0
C      1  0.4244240000000  0.4926130000000  0.4692200000000 1.0
C      1  0.4529840000000  0.4951300000000  0.4254430000000 1.0
C      1  0.5285760000000  0.4964430000000  0.4126490000000 1.0
C      1  0.4981420000000  0.5057980000000  0.4586280000000 1.0
C      1  0.5191630000000  0.4914640000000  0.4682550000000 1.0
C      1  0.5270290000000  0.5053280000000  0.4909760000000 1.0
C      1  0.5287710000000  0.4891780000000  0.5147130000000 1.0
C      1  0.5107790000000  0.5065630000000  0.5290860000000 1.0
C      1  0.4893280000000  0.4923570000000  0.5384760000000 1.0
C      1  0.4673290000000  0.4946780000000  0.5213450000000 1.0
C      1  0.4747890000000  0.5081090000000  0.4977040000000 1.0
C      1  0.4792470000000  0.4934240000000  0.4738770000000 1.0
C      1  0.5310880000000  0.5381660000000  0.5638740000000 1.0
C      1  0.4794460000000  0.5349130000000  0.5772370000000 1.0
C      1  0.4415510000000  0.5395870000000  0.5442110000000 1.0
C      1  0.4319230000000  0.5380660000000  0.4951810000000 1.0
C      1  0.4462500000000  0.5339910000000  0.4507090000000 1.0
C      1  0.4949530000000  0.5378990000000  0.4283300000000 1.0
C      1  0.5449290000000  0.5335970000000  0.4388670000000 1.0
C      1  0.5692470000000  0.5327850000000  0.4806890000000 1.0
C      1  0.5659100000000  0.5336190000000  0.5318730000000 1.0
C      1  0.5168310000000  0.5344500000000  0.5355900000000 1.0
C      1  0.4928030000000  0.5521490000000  0.5378380000000 1.0
C      1  0.4675560000000  0.5449690000000  0.5260700000000 1.0
C      1  0.4646100000000  0.5356660000000  0.4983300000000 1.0
C      1  0.4761500000000  0.5486500000000  0.4742560000000 1.0
C      1  0.4981640000000  0.5357750000000  0.4587490000000 1.0
C      1  0.5241620000000  0.5464690000000  0.4683330000000 1.0
C      1  0.5391630000000  0.5326500000000  0.4898680000000 1.0
C      1  0.5385470000000  0.5422790000000  0.5177780000000 1.0
C      1  0.5779590000000  0.4683040000000  0.5121350000000 1.0
C      1  0.5510130000000  0.4698750000000  0.5595240000000 1.0
C      1  0.5035030000000  0.4688100000000  0.5815460000000 1.0
C      1  0.4500640000000  0.4729610000000  0.5652950000000 1.0
C      1  0.4190970000000  0.4755370000000  0.5189200000000 1.0
C      1  0.4342020000000  0.4819240000000  0.4446900000000 1.0
C      1  0.4662350000000  0.4691560000000  0.4227010000000 1.0
C      1  0.5488750000000  0.4799020000000  0.4248130000000 1.0
C      1  0.5707150000000  0.4673470000000  0.4583990000000 1.0
C      1  0.4508230000000  0.4576240000000  0.4464410000000 1.0
C      1  0.5115930000000  0.4755600000000  0.4088240000000 1.0
C      1  0.5466600000000  0.4556260000000  0.4443960000000 1.0
C      1  0.5681530000000  0.4605830000000  0.4858180000000 1.0
C      1  0.5572540000000  0.4552090000000  0.5328750000000 1.0
C      1  0.5276830000000  0.4556390000000  0.5700710000000 1.0
C      1  0.4767920000000  0.4571890000000  0.5675130000000 1.0
C      1  0.4384490000000  0.4594520000000  0.5383570000000 1.0
C      1  0.4225680000000  0.4715360000000  0.4901820000000 1.0
C      1  0.4994980000000  0.5841490000000  0.4554260000000 1.0
C      1  0.5262810000000  0.5778550000000  0.4655990000000 1.0
C      1  0.5467080000000  0.5820390000000  0.4870390000000 1.0
C      1  0.5424120000000  0.5816120000000  0.5150210000000 1.0
C      1  0.5216930000000  0.5856910000000  0.5360430000000 1.0
C      1  0.4939720000000  0.5810740000000  0.5340020000000 1.0
C      1  0.4668400000000  0.5851100000000  0.5231720000000 1.0
C      1  0.4592940000000  0.5849550000000  0.4955220000000 1.0
C      1  0.4766020000000  0.5785750000000  0.4724820000000 1.0
C      1  0.4853110000000  0.5581810000000  0.5655840000000 1.0
C      1  0.4499450000000  0.5665520000000  0.5377430000000 1.0
C      1  0.4371380000000  0.5663750000000  0.4861520000000 1.0
C      1  0.4514110000000  0.5601690000000  0.4608680000000 1.0
C      1  0.4955710000000  0.5655340000000  0.4317680000000 1.0
C      1  0.5458180000000  0.5593690000000  0.4512470000000 1.0
C      1  0.5651860000000  0.5615010000000  0.4744230000000 1.0
C      1  0.5561400000000  0.5621320000000  0.5325720000000 1.0
C      1  0.5372920000000  0.5666980000000  0.5548580000000 1.0
C      1  0.5241260000000  0.4630030000000  0.4644130000000 1.0
C      1  0.5398430000000  0.4532350000000  0.4884020000000 1.0
C      1  0.5306050000000  0.4601200000000  0.5154410000000 1.0
C      1  0.5050230000000  0.4458320000000  0.5239690000000 1.0
C      1  0.4867800000000  0.4628090000000  0.5395420000000 1.0
C      1  0.4619150000000  0.4661050000000  0.5217150000000 1.0
C      1  0.4658720000000  0.4540630000000  0.4953570000000 1.0
C      1  0.4745800000000  0.4656620000000  0.4691650000000 1.0
C      1  0.4976390000000  0.4518320000000  0.4537790000000 1.0
C      1  0.5338200000000  0.4078710000000  0.4927990000000 1.0
C      1  0.5325240000000  0.4092720000000  0.5208460000000 1.0
C      1  0.5097360000000  0.4183290000000  0.5393480000000 1.0
C      1  0.4820920000000  0.4104740000000  0.5456320000000 1.0
C      1  0.4607560000000  0.4109680000000  0.5248280000000 1.0
C      1  0.4720030000000  0.4143310000000  0.4989260000000 1.0
C      1  0.4674410000000  0.4154110000000  0.4694870000000 1.0
C      1  0.4941870000000  0.4220260000000  0.4586740000000 1.0
C      1  0.5200370000000  0.4116910000000  0.4652780000000 1.0
C      1  0.4523200000000  0.5248670000000  0.5688740000000 1.0
C      1  0.4232160000000  0.5273240000000  0.5230690000000 1.0
C      1  0.4292560000000  0.5210490000000  0.4705270000000 1.0
C      1  0.4619270000000  0.5220380000000  0.4298620000000 1.0
C      1  0.5237800000000  0.5240640000000  0.4213180000000 1.0
C      1  0.5660520000000  0.5189950000000  0.4520950000000 1.0
C      1  0.5808860000000  0.5206810000000  0.5088920000000 1.0
C      1  0.5562230000000  0.5219590000000  0.5575480000000 1.0
C      1  0.5061470000000  0.5229100000000  0.5825140000000 1.0
C      1  0.4455340000000  0.4305870000000  0.5419320000000 1.0
C      1  0.4372850000000  0.4471050000000  0.4857430000000 1.0
C      1  0.4453950000000  0.4326010000000  0.4610680000000 1.0
C      1  0.4935760000000  0.4626640000000  0.4242050000000 1.0
C      1  0.5435240000000  0.4255270000000  0.4535200000000 1.0
C      1  0.5528160000000  0.4270960000000  0.4806480000000 1.0
C      1  0.5502560000000  0.4271180000000  0.5379050000000 1.0
C      1  0.5289910000000  0.4299360000000  0.5584540000000 1.0
C      1  0.4680470000000  0.4297840000000  0.5614930000000 1.0
C      1  0.5019180000000  0.5191460000000  0.5029080000000 1.0
C      1  0.4891640000000  0.4374180000000  0.5007790000000 1.0
END
