TITL C-24497-3896-9 18.6931027028704 125000 -1096.90819633869 0 0 158 (C3) n - 1
REM
REM in /rds/project/t2_vol4/rds-t2-cs072/BORA/CARBON/from-Arr/AIRSS/Generating-Clusters/GAP-ML-2020/Higher-Symm/SD-CG/HFTN-CG
REM
REM
REM
REM
REM
REM ./C.cell (b20cbc046b6831c77cfcea5457e17084)
REM AIRSS Version 0.9.1 bugfix July 2018 build 013d7b7c2542+ Fri, 06 Jul 2018 19:26:36 +0100
REM compiler GCC version 9.3.0
REM options -cpp -mtune=generic -march=x86-64 -g -O0
REM seed 427497519 -122504428 944215553 1948400154 -865966757 1538024175 -398604182 -127074704 1063128039 -1277089678 -1364783118 -1321168939 1862397449 -1290500184 -606016328 284130522 -1025108136 57373178 -1252895525 -1514630090 905520274 1113268367 -810615457 -1892249205 124010027 -734390737 -144466912 622446241 -584545134 1801780618 -1670007969 -870195085 2130967402
REM
CELL 1.54180   50.00000   50.00000   50.00000   90.00000   90.00000   90.00000
LATT -1
SFAC C  
C      1  0.4796870000000  0.4205940000000  0.5701420000000 1.0
C      1  0.4486920000000  0.4206010000000  0.4471680000000 1.0
C      1  0.5706880000000  0.4205990000000  0.4818120000000 1.0
C      1  0.5500060000000  0.4232870000000  0.5637240000000 1.0
C      1  0.4190910000000  0.4232890000000  0.5112750000000 1.0
C      1  0.5299710000000  0.4232940000000  0.4241240000000 1.0
C      1  0.6021880000000  0.5293580000000  0.4900380000000 1.0
C      1  0.4568190000000  0.5293520000000  0.5933180000000 1.0
C      1  0.4400610000000  0.5293620000000  0.4157850000000 1.0
C      1  0.4569840000000  0.5048710000000  0.4586440000000 1.0
C      1  0.5566080000000  0.5048700000000  0.4832620000000 1.0
C      1  0.4854760000000  0.5048660000000  0.5572300000000 1.0
C      1  0.5657580000000  0.4544410000000  0.4456110000000 1.0
C      1  0.5135050000000  0.4544330000000  0.5839760000000 1.0
C      1  0.4198040000000  0.4544400000000  0.4695410000000 1.0
C      1  0.5152190000000  0.5615540000000  0.5243350000000 1.0
C      1  0.4706030000000  0.5615560000000  0.5008540000000 1.0
C      1  0.5132460000000  0.5615570000000  0.4739560000000 1.0
C      1  0.5955730000000  0.5246740000000  0.5183710000000 1.0
C      1  0.4355900000000  0.5246710000000  0.5734220000000 1.0
C      1  0.4679050000000  0.5246800000000  0.4073470000000 1.0
C      1  0.5909850000000  0.5523900000000  0.4781220000000 1.0
C      1  0.4727400000000  0.5523830000000  0.5895760000000 1.0
C      1  0.4353420000000  0.5523920000000  0.4314460000000 1.0
C      1  0.5353110000000  0.4480730000000  0.5664890000000 1.0
C      1  0.4240450000000  0.4480770000000  0.4971680000000 1.0
C      1  0.5397110000000  0.4480800000000  0.4354700000000 1.0
C      1  0.4557370000000  0.4115830000000  0.5372250000000 1.0
C      1  0.4891740000000  0.4115880000000  0.4428840000000 1.0
C      1  0.5541570000000  0.4115840000000  0.5190120000000 1.0
C      1  0.5547880000000  0.5792330000000  0.4693630000000 1.0
C      1  0.4984260000000  0.5792280000000  0.5626100000000 1.0
C      1  0.4458530000000  0.5792330000000  0.4671750000000 1.0
C      1  0.5267280000000  0.5389640000000  0.4607660000000 1.0
C      1  0.5198990000000  0.5389590000000  0.5426040000000 1.0
C      1  0.4524400000000  0.5389620000000  0.4957710000000 1.0
C      1  0.4465320000000  0.4586780000000  0.5170520000000 1.0
C      1  0.5112490000000  0.4586820000000  0.4450030000000 1.0
C      1  0.5412870000000  0.4586770000000  0.5370740000000 1.0
C      1  0.5683820000000  0.5117640000000  0.5722380000000 1.0
C      1  0.4025340000000  0.5117660000000  0.5229390000000 1.0
C      1  0.5281520000000  0.5117730000000  0.4039600000000 1.0
C      1  0.5266670000000  0.5898440000000  0.4699650000000 1.0
C      1  0.5119660000000  0.5898400000000  0.5379560000000 1.0
C      1  0.4604340000000  0.5898430000000  0.4912290000000 1.0
C      1  0.4770860000000  0.4986520000000  0.4093090000000 1.0
C      1  0.5892820000000  0.4986460000000  0.5253380000000 1.0
C      1  0.4327000000000  0.4986440000000  0.5644880000000 1.0
C      1  0.5768270000000  0.4371820000000  0.5555370000000 1.0
C      1  0.4127720000000  0.4371830000000  0.5385970000000 1.0
C      1  0.5094690000000  0.4371910000000  0.4049910000000 1.0
C      1  0.5761440000000  0.4449210000000  0.4718070000000 1.0
C      1  0.4856260000000  0.4449150000000  0.5798710000000 1.0
C      1  0.4372980000000  0.4449220000000  0.4474480000000 1.0
C      1  0.5467050000000  0.5338570000000  0.4851070000000 1.0
C      1  0.4888310000000  0.5338540000000  0.5477340000000 1.0
C      1  0.4635320000000  0.5338580000000  0.4663000000000 1.0
C      1  0.4407000000000  0.5980260000000  0.5112830000000 1.0
C      1  0.5191680000000  0.5980300000000  0.4428480000000 1.0
C      1  0.5392000000000  0.5980240000000  0.5450210000000 1.0
C      1  0.3990890000000  0.5032760000000  0.4705060000000 1.0
C      1  0.5752830000000  0.5032790000000  0.4271920000000 1.0
C      1  0.5246960000000  0.5032690000000  0.6014380000000 1.0
C      1  0.5857200000000  0.4682620000000  0.4861570000000 1.0
C      1  0.4684110000000  0.4682570000000  0.5809910000000 1.0
C      1  0.4449370000000  0.4682650000000  0.4319820000000 1.0
C      1  0.4845970000000  0.6071860000000  0.4948660000000 1.0
C      1  0.5114370000000  0.6071860000000  0.4890730000000 1.0
C      1  0.5030330000000  0.6071850000000  0.5152140000000 1.0
C      1  0.5958920000000  0.4842660000000  0.4651760000000 1.0
C      1  0.4814960000000  0.4842590000000  0.6002920000000 1.0
C      1  0.4216800000000  0.4842680000000  0.4336640000000 1.0
C      1  0.4738010000000  0.4553110000000  0.5071850000000 1.0
C      1  0.5061590000000  0.4553120000000  0.4735520000000 1.0
C      1  0.5191070000000  0.4553100000000  0.5183910000000 1.0
C      1  0.4052490000000  0.5232880000000  0.4490800000000 1.0
C      1  0.5907590000000  0.5232890000000  0.4432420000000 1.0
C      1  0.5030600000000  0.5232800000000  0.6068170000000 1.0
C      1  0.4891720000000  0.5438980000000  0.4119190000000 1.0
C      1  0.5809810000000  0.5438910000000  0.5345040000000 1.0
C      1  0.4289140000000  0.5438900000000  0.5527200000000 1.0
C      1  0.5501880000000  0.5077810000000  0.5923850000000 1.0
C      1  0.3941820000000  0.5077860000000  0.4971090000000 1.0
C      1  0.5546970000000  0.5077910000000  0.4096420000000 1.0
C      1  0.4427930000000  0.4060560000000  0.5118220000000 1.0
C      1  0.5176450000000  0.4060600000000  0.4443750000000 1.0
C      1  0.5386300000000  0.4060550000000  0.5429230000000 1.0
C      1  0.5668020000000  0.5371680000000  0.5595960000000 1.0
C      1  0.4142730000000  0.5371700000000  0.5278940000000 1.0
C      1  0.5179930000000  0.5371760000000  0.4116510000000 1.0
C      1  0.5519490000000  0.5790810000000  0.5596940000000 1.0
C      1  0.4216170000000  0.5790830000000  0.5149860000000 1.0
C      1  0.5255010000000  0.5790890000000  0.4244690000000 1.0
C      1  0.4764900000000  0.5115120000000  0.6044460000000 1.0
C      1  0.4205870000000  0.5115220000000  0.4272550000000 1.0
C      1  0.6019900000000  0.5115200000000  0.4674360000000 1.0
C      1  0.4665230000000  0.4052440000000  0.4598030000000 1.0
C      1  0.5508290000000  0.4052420000000  0.4909350000000 1.0
C      1  0.4817150000000  0.4052390000000  0.5483810000000 1.0
C      1  0.4419100000000  0.4373310000000  0.5402950000000 1.0
C      1  0.4934300000000  0.4373370000000  0.4293770000000 1.0
C      1  0.5637280000000  0.4373320000000  0.5294530000000 1.0
C      1  0.5233160000000  0.4026870000000  0.4743600000000 1.0
C      1  0.5098260000000  0.4026830000000  0.5328410000000 1.0
C      1  0.4659260000000  0.4026860000000  0.4919180000000 1.0
C      1  0.4460500000000  0.4858610000000  0.5286900000000 1.0
C      1  0.5014120000000  0.4858660000000  0.4387690000000 1.0
C      1  0.5516050000000  0.4858610000000  0.5316740000000 1.0
C      1  0.5848070000000  0.4625680000000  0.5608340000000 1.0
C      1  0.4041950000000  0.4625690000000  0.5428620000000 1.0
C      1  0.5100650000000  0.4625770000000  0.3954330000000 1.0
C      1  0.4883810000000  0.5183290000000  0.4743980000000 1.0
C      1  0.5272670000000  0.5183270000000  0.5025770000000 1.0
C      1  0.4834200000000  0.5183260000000  0.5221640000000 1.0
C      1  0.4243030000000  0.5525800000000  0.5028920000000 1.0
C      1  0.5346300000000  0.5525840000000  0.4328400000000 1.0
C      1  0.5401340000000  0.5525770000000  0.5634120000000 1.0
C      1  0.5297930000000  0.4948270000000  0.4813740000000 1.0
C      1  0.5005180000000  0.4948240000000  0.5349510000000 1.0
C      1  0.4687560000000  0.4948270000000  0.4828090000000 1.0
C      1  0.4588470000000  0.5617100000000  0.4464470000000 1.0
C      1  0.5662420000000  0.5617080000000  0.4909790000000 1.0
C      1  0.4739780000000  0.5617040000000  0.5617200000000 1.0
C      1  0.5283700000000  0.5088260000000  0.5304350000000 1.0
C      1  0.4587420000000  0.5088270000000  0.5091900000000 1.0
C      1  0.5119550000000  0.5088300000000  0.4595120000000 1.0
C      1  0.5001410000000  0.5495970000000  0.5976630000000 1.0
C      1  0.4146370000000  0.5496050000000  0.4511310000000 1.0
C      1  0.5842890000000  0.5496050000000  0.4503490000000 1.0
C      1  0.4826840000000  0.4274460000000  0.5007230000000 1.0
C      1  0.5073130000000  0.4274470000000  0.4844730000000 1.0
C      1  0.5090710000000  0.4274460000000  0.5139270000000 1.0
C      1  0.5725990000000  0.5666740000000  0.5194960000000 1.0
C      1  0.4461040000000  0.5666720000000  0.5529670000000 1.0
C      1  0.4803650000000  0.5666790000000  0.4266840000000 1.0
C      1  0.4690770000000  0.4870810000000  0.4356830000000 1.0
C      1  0.5704450000000  0.4870770000000  0.5052140000000 1.0
C      1  0.4595450000000  0.4870740000000  0.5582360000000 1.0
C      1  0.5163420000000  0.5650030000000  0.5801360000000 1.0
C      1  0.4217160000000  0.5650080000000  0.4739270000000 1.0
C      1  0.5610090000000  0.5650100000000  0.4450830000000 1.0
C      1  0.5090880000000  0.3805830000000  0.4866280000000 1.0
C      1  0.5063150000000  0.3805820000000  0.5143830000000 1.0
C      1  0.4836650000000  0.3805830000000  0.4981040000000 1.0
C      1  0.4993380000000  0.5871750000000  0.4262180000000 1.0
C      1  0.5635170000000  0.5871690000000  0.5361620000000 1.0
C      1  0.4362130000000  0.5871690000000  0.5367700000000 1.0
C      1  0.4155080000000  0.4895120000000  0.5410250000000 1.0
C      1  0.5060010000000  0.4895200000000  0.4061510000000 1.0
C      1  0.5775590000000  0.4895120000000  0.5519580000000 1.0
C      1  0.5808850000000  0.4787360000000  0.4414660000000 1.0
C      1  0.5095320000000  0.4787270000000  0.5991500000000 1.0
C      1  0.4086500000000  0.4787350000000  0.4585150000000 1.0
C      1  0.5247860000000  0.4676300000000  0.4910370000000 1.0
C      1  0.4946520000000  0.4676280000000  0.5257800000000 1.0
C      1  0.4796300000000  0.4676310000000  0.4823120000000 1.0
C      1  0.4996890000000  0.5570380000000  0.4997150000000 1.0
C      1  0.4996890000000  0.5283120000000  0.4997130000000 1.0
END
