TITL C-24500-3785-3 -46.7818670824904 125000 -790.221633786747 0 0 113 (C1) n - 1
REM
REM in /rds/project/t2_vol4/rds-t2-cs072/BORA/CARBON/from-Arr/AIRSS/Generating-Clusters/GAP-ML-2020/Higher-Symm/SD-CG/HFTN-CG
REM
REM
REM
REM
REM
REM ./C.cell (b20cbc046b6831c77cfcea5457e17084)
REM AIRSS Version 0.9.1 bugfix July 2018 build 013d7b7c2542+ Fri, 06 Jul 2018 19:26:36 +0100
REM compiler GCC version 9.3.0
REM options -cpp -mtune=generic -march=x86-64 -g -O0
REM seed -49007577 -40154557 -1367105802 409533294 -873536742 -1811903934 765389243 1027255052 -1453120982 -374495769 977859089 -885463039 279959827 -424319481 2003274456 -91447211 -134193950 558790224 586342261 -248103187 -1216449486 -2116884329 -391990149 -1826732097 -1960215872 -1472315643 -302284667 -741371405 313419495 56929605 -1877150437 -1561683629 -617691720
REM
CELL 1.54180   50.00000   50.00000   50.00000   90.00000   90.00000   90.00000
LATT -1
SFAC C  
C      1  0.4745240000000  0.4621340000000  0.5020460000000 1.0
C      1  0.5245250000000  0.5488050000000  0.4948960000000 1.0
C      1  0.5787930000000  0.5537460000000  0.4681640000000 1.0
C      1  0.4210580000000  0.4443770000000  0.5313300000000 1.0
C      1  0.4039310000000  0.4845720000000  0.5229100000000 1.0
C      1  0.5947020000000  0.5126690000000  0.4775530000000 1.0
C      1  0.5421080000000  0.4489290000000  0.5674280000000 1.0
C      1  0.4580870000000  0.5515430000000  0.4286730000000 1.0
C      1  0.4469650000000  0.4603780000000  0.5731330000000 1.0
C      1  0.5539920000000  0.5391640000000  0.4256930000000 1.0
C      1  0.4663050000000  0.5108830000000  0.4746850000000 1.0
C      1  0.5338720000000  0.4867160000000  0.5258240000000 1.0
C      1  0.5563110000000  0.5564700000000  0.5523710000000 1.0
C      1  0.4423070000000  0.4424130000000  0.4463870000000 1.0
C      1  0.5184560000000  0.5937270000000  0.4680610000000 1.0
C      1  0.4832210000000  0.4102900000000  0.5283990000000 1.0
C      1  0.4297670000000  0.4883140000000  0.4477150000000 1.0
C      1  0.5751860000000  0.5113090000000  0.5563360000000 1.0
C      1  0.4074150000000  0.4601470000000  0.5109140000000 1.0
C      1  0.5909880000000  0.5372620000000  0.4892970000000 1.0
C      1  0.5368470000000  0.5745470000000  0.4568460000000 1.0
C      1  0.4631900000000  0.4258460000000  0.5401870000000 1.0
C      1  0.5096430000000  0.5001430000000  0.5294720000000 1.0
C      1  0.4940320000000  0.4982400000000  0.4772120000000 1.0
C      1  0.4452350000000  0.5259610000000  0.5411180000000 1.0
C      1  0.5531890000000  0.4762230000000  0.4596500000000 1.0
C      1  0.4868000000000  0.4384760000000  0.5194460000000 1.0
C      1  0.5109380000000  0.5671400000000  0.4748480000000 1.0
C      1  0.4846970000000  0.4568010000000  0.4255400000000 1.0
C      1  0.5148410000000  0.5416590000000  0.5715660000000 1.0
C      1  0.5459290000000  0.4152960000000  0.5040870000000 1.0
C      1  0.4528280000000  0.5859340000000  0.4937900000000 1.0
C      1  0.4300150000000  0.5317820000000  0.4941730000000 1.0
C      1  0.5706800000000  0.4691710000000  0.5058880000000 1.0
C      1  0.4399040000000  0.4674650000000  0.4327090000000 1.0
C      1  0.5598940000000  0.5322890000000  0.5671110000000 1.0
C      1  0.4131030000000  0.4867500000000  0.5489660000000 1.0
C      1  0.5865040000000  0.5121350000000  0.4507700000000 1.0
C      1  0.5586050000000  0.5709110000000  0.4760690000000 1.0
C      1  0.4401530000000  0.4263150000000  0.5219470000000 1.0
C      1  0.4461290000000  0.4220530000000  0.4927940000000 1.0
C      1  0.5475200000000  0.5694100000000  0.5047440000000 1.0
C      1  0.4240490000000  0.4607050000000  0.5550800000000 1.0
C      1  0.5766270000000  0.5381240000000  0.4441320000000 1.0
C      1  0.5348070000000  0.5217260000000  0.5778820000000 1.0
C      1  0.4657530000000  0.4774490000000  0.4202990000000 1.0
C      1  0.5360130000000  0.4696670000000  0.4339290000000 1.0
C      1  0.4626440000000  0.5310210000000  0.5662870000000 1.0
C      1  0.5582220000000  0.4971950000000  0.5121240000000 1.0
C      1  0.4413850000000  0.5022180000000  0.4908920000000 1.0
C      1  0.5187970000000  0.4669900000000  0.5123180000000 1.0
C      1  0.4775860000000  0.5379940000000  0.4833400000000 1.0
C      1  0.4915600000000  0.4036050000000  0.5024750000000 1.0
C      1  0.5073930000000  0.5951120000000  0.4952580000000 1.0
C      1  0.4883200000000  0.4904590000000  0.5454700000000 1.0
C      1  0.5117670000000  0.5096940000000  0.4559790000000 1.0
C      1  0.5518220000000  0.4912880000000  0.4205630000000 1.0
C      1  0.4475080000000  0.5083130000000  0.5793240000000 1.0
C      1  0.5315480000000  0.5538810000000  0.4357420000000 1.0
C      1  0.4689930000000  0.4457630000000  0.5621350000000 1.0
C      1  0.5497690000000  0.5158240000000  0.4103190000000 1.0
C      1  0.4508670000000  0.4836580000000  0.5890760000000 1.0
C      1  0.5093200000000  0.4481330000000  0.5340250000000 1.0
C      1  0.4895420000000  0.5540080000000  0.4611030000000 1.0
C      1  0.4458620000000  0.5711110000000  0.5174340000000 1.0
C      1  0.5520140000000  0.4315500000000  0.4812760000000 1.0
C      1  0.4715270000000  0.4114300000000  0.4826850000000 1.0
C      1  0.5257830000000  0.5868050000000  0.5156380000000 1.0
C      1  0.5194010000000  0.4069480000000  0.4942050000000 1.0
C      1  0.4791640000000  0.5952170000000  0.5042700000000 1.0
C      1  0.5256840000000  0.4240380000000  0.4720220000000 1.0
C      1  0.4715350000000  0.5792310000000  0.5273850000000 1.0
C      1  0.4315530000000  0.5486720000000  0.4704680000000 1.0
C      1  0.5701310000000  0.4517760000000  0.5291490000000 1.0
C      1  0.4835560000000  0.4249490000000  0.4607280000000 1.0
C      1  0.5141990000000  0.5757070000000  0.5388740000000 1.0
C      1  0.5067050000000  0.4450390000000  0.4644860000000 1.0
C      1  0.4901550000000  0.5579100000000  0.5351620000000 1.0
C      1  0.4663240000000  0.5688770000000  0.4488310000000 1.0
C      1  0.5325390000000  0.4323920000000  0.5465840000000 1.0
C      1  0.4967360000000  0.5400250000000  0.5065200000000 1.0
C      1  0.4991200000000  0.4691520000000  0.4873860000000 1.0
C      1  0.5293100000000  0.5630070000000  0.5578510000000 1.0
C      1  0.4691080000000  0.4359010000000  0.4401460000000 1.0
C      1  0.4629090000000  0.4970730000000  0.5347970000000 1.0
C      1  0.5381940000000  0.5058600000000  0.4659980000000 1.0
C      1  0.5838420000000  0.5391640000000  0.5166730000000 1.0
C      1  0.4156700000000  0.4589150000000  0.4838470000000 1.0
C      1  0.5044790000000  0.5368310000000  0.4404090000000 1.0
C      1  0.4957630000000  0.4627280000000  0.5582460000000 1.0
C      1  0.4670710000000  0.5060430000000  0.4228150000000 1.0
C      1  0.5373850000000  0.4926230000000  0.5783820000000 1.0
C      1  0.4482520000000  0.5111340000000  0.4455290000000 1.0
C      1  0.5641160000000  0.4873960000000  0.5667790000000 1.0
C      1  0.5366150000000  0.5166970000000  0.4925780000000 1.0
C      1  0.4577860000000  0.4843770000000  0.5110700000000 1.0
C      1  0.5660250000000  0.5592680000000  0.5256200000000 1.0
C      1  0.4314200000000  0.4377440000000  0.4730610000000 1.0
C      1  0.4366880000000  0.5442500000000  0.5187960000000 1.0
C      1  0.5626360000000  0.4577890000000  0.4810080000000 1.0
C      1  0.5115530000000  0.4568190000000  0.4360570000000 1.0
C      1  0.4873400000000  0.5433400000000  0.5623780000000 1.0
C      1  0.5540570000000  0.4276130000000  0.5279340000000 1.0
C      1  0.4457840000000  0.5734050000000  0.4698910000000 1.0
C      1  0.5657690000000  0.4614000000000  0.5566530000000 1.0
C      1  0.4381510000000  0.5378900000000  0.4442530000000 1.0
C      1  0.4803090000000  0.5312040000000  0.4215510000000 1.0
C      1  0.5219910000000  0.4683680000000  0.5755860000000 1.0
C      1  0.5779380000000  0.5136230000000  0.5282120000000 1.0
C      1  0.4225100000000  0.4847130000000  0.4742090000000 1.0
C      1  0.5726990000000  0.4897900000000  0.4411590000000 1.0
C      1  0.4264560000000  0.5099210000000  0.5584340000000 1.0
C      1  0.5069660000000  0.5132210000000  0.5046730000000 1.0
END
