TITL C-24415-2497-1 11.0100768927081 125000 -81.856579345587 0 0 13 (C2) n - 1
REM
REM in /rds/project/t2_vol4/rds-t2-cs072/BORA/CARBON/from-Arr/AIRSS/Generating-Clusters/GAP-ML-2020/Higher-Symm/SD-CG/HFTN-CG
REM
REM
REM
REM
REM
REM ./C.cell (b20cbc046b6831c77cfcea5457e17084)
REM AIRSS Version 0.9.1 bugfix July 2018 build 013d7b7c2542+ Fri, 06 Jul 2018 19:26:36 +0100
REM compiler GCC version 9.3.0
REM options -cpp -mtune=generic -march=x86-64 -g -O0
REM seed 1093592570 -2143746320 2059282992 572103890 1388294819 -1225103281 1351828138 -1351096877 121291041 -1205436693 1903229720 2147464315 1641838494 -358321993 -931674463 -1407413463 -1418601589 -733546736 428352923 179182536 972452728 -2033129250 1564664150 -137540837 -1873482947 -1798633651 2107556179 953360609 171413732 891189472 -312384013 -1133701826 -1620220975
REM
CELL 1.54180   50.00000   50.00000   50.00000   90.00000   90.00000   90.00000
LATT -1
SFAC C  
C      1  0.4716800000000  0.4986430000000  0.5354440000000 1.0
C      1  0.5307120000000  0.4999890000000  0.5355060000000 1.0
C      1  0.5335700000000  0.5019060000000  0.5053420000000 1.0
C      1  0.4688510000000  0.4982700000000  0.5052190000000 1.0
C      1  0.5141160000000  0.4990260000000  0.5564340000000 1.0
C      1  0.4882570000000  0.4985360000000  0.5564080000000 1.0
C      1  0.4787500000000  0.4984390000000  0.4567430000000 1.0
C      1  0.5237170000000  0.5042140000000  0.4569120000000 1.0
C      1  0.4477830000000  0.5028140000000  0.5224320000000 1.0
C      1  0.5546220000000  0.4964880000000  0.5223210000000 1.0
C      1  0.5165690000000  0.5020570000000  0.4839610000000 1.0
C      1  0.4858720000000  0.4992120000000  0.4838730000000 1.0
C      1  0.5012400000000  0.5016830000000  0.4429030000000 1.0
END
