TITL C-24394-2601-1 -0.0182497338917428 125000 -78.0291507751328 0 0 12 (D6d) n - 1
REM
REM in /rds/project/t2_vol4/rds-t2-cs072/BORA/CARBON/from-Arr/AIRSS/Generating-Clusters/GAP-ML-2020/Higher-Symm/SD-CG/HFTN-CG
REM
REM
REM
REM
REM
REM ./C.cell (b20cbc046b6831c77cfcea5457e17084)
REM AIRSS Version 0.9.1 bugfix July 2018 build 013d7b7c2542+ Fri, 06 Jul 2018 19:26:36 +0100
REM compiler GCC version 9.3.0
REM options -cpp -mtune=generic -march=x86-64 -g -O0
REM seed -754880444 574617737 -1082197229 574988192 -820469365 441241616 730766458 2041493881 -634985498 -1907442766 -535630914 -1657488357 -2141536902 497963337 1768969978 1507088693 -462246680 -720769170 -1472151911 -29597228 2037521924 -1730935389 -1214687140 -1778984514 898050050 -595578397 -750732870 892695154 1009009227 613911892 -64693232 1921388154 -1546810092
REM
CELL 1.54180   50.00000   50.00000   50.00000   90.00000   90.00000   90.00000
LATT -1
SFAC C  
C      1  0.5187610000000  0.5211240000000  0.4869290000000 1.0
C      1  0.5276740000000  0.4943150000000  0.4869290000000 1.0
C      1  0.5089130000000  0.4731910000000  0.4869290000000 1.0
C      1  0.4812390000000  0.4788760000000  0.4869290000000 1.0
C      1  0.4723260000000  0.5056850000000  0.4869290000000 1.0
C      1  0.4910870000000  0.5268090000000  0.4869290000000 1.0
C      1  0.5268090000000  0.5089130000000  0.5130710000000 1.0
C      1  0.5211240000000  0.4812390000000  0.5130710000000 1.0
C      1  0.4943150000000  0.4723260000000  0.5130710000000 1.0
C      1  0.4731910000000  0.4910870000000  0.5130710000000 1.0
C      1  0.4788760000000  0.5187610000000  0.5130710000000 1.0
C      1  0.5056850000000  0.5276740000000  0.5130710000000 1.0
END
