TITL C-246634-6474-1 0.0568805079182104 125000 -385.406258042945 0 0 58 (C3) n - 1
REM
REM in /rds/project/t2_vol4/rds-t2-cs072/BORA/CARBON/from-Arr/AIRSS/Generating-Clusters/GAP-ML-2020/Higher-Symm/SD-CG/HFTN-CG
REM
REM
REM
REM
REM
REM ./C.cell (b20cbc046b6831c77cfcea5457e17084)
REM AIRSS Version 0.9.1 bugfix July 2018 build 013d7b7c2542+ Fri, 06 Jul 2018 19:26:36 +0100
REM compiler GCC version 9.3.0
REM options -cpp -mtune=generic -march=x86-64 -g -O0
REM seed 1209682856 -2028957764 -568624748 -230640490 2084780976 1433481968 643687218 -739143275 2030495869 809596498 -1446299056 -891975406 -498427893 857467079 -1034026734 1745578422 1507340661 -874226112 670360879 1239994941 -22130578 2095400288 -834141516 1671186289 1278589011 1084071899 -219049791 -153753195 1256710535 -1017034416 646316488 1412432672 -605079968
REM
CELL 1.54180   50.00000   50.00000   50.00000   90.00000   90.00000   90.00000
LATT -1
SFAC C  
C      1  0.4962590000000  0.4380940000000  0.5039490000000 1.0
C      1  0.4962980000000  0.5274690000000  0.4438650000000 1.0
C      1  0.4964950000000  0.5348160000000  0.5513080000000 1.0
C      1  0.4866640000000  0.4791430000000  0.5260890000000 1.0
C      1  0.4865790000000  0.4878090000000  0.4683560000000 1.0
C      1  0.4867140000000  0.5334740000000  0.5047270000000 1.0
C      1  0.4826180000000  0.4904870000000  0.5546870000000 1.0
C      1  0.4824090000000  0.4573860000000  0.4638860000000 1.0
C      1  0.4825900000000  0.5525720000000  0.4806200000000 1.0
C      1  0.5660640000000  0.5343620000000  0.4664520000000 1.0
C      1  0.5661650000000  0.5115380000000  0.5459010000000 1.0
C      1  0.5659710000000  0.4541450000000  0.4864110000000 1.0
C      1  0.5196110000000  0.4428940000000  0.4875610000000 1.0
C      1  0.5197100000000  0.5391710000000  0.4561880000000 1.0
C      1  0.5198470000000  0.5182020000000  0.5552530000000 1.0
C      1  0.4944100000000  0.5517900000000  0.5283400000000 1.0
C      1  0.4942500000000  0.4495060000000  0.5301360000000 1.0
C      1  0.4941750000000  0.4990930000000  0.4406580000000 1.0
C      1  0.4626850000000  0.5164120000000  0.5075720000000 1.0
C      1  0.4626390000000  0.4853030000000  0.5099200000000 1.0
C      1  0.4626120000000  0.4988250000000  0.4818050000000 1.0
C      1  0.4356610000000  0.4467230000000  0.4632660000000 1.0
C      1  0.4358540000000  0.5586220000000  0.4717530000000 1.0
C      1  0.4359130000000  0.4953230000000  0.5644170000000 1.0
C      1  0.5429760000000  0.5222330000000  0.4577850000000 1.0
C      1  0.5431220000000  0.5251980000000  0.5397580000000 1.0
C      1  0.5429400000000  0.4527250000000  0.5013390000000 1.0
C      1  0.4742510000000  0.4404380000000  0.4875360000000 1.0
C      1  0.4743530000000  0.5405960000000  0.4541280000000 1.0
C      1  0.4744970000000  0.5194500000000  0.5575720000000 1.0
C      1  0.5124270000000  0.4515020000000  0.4613970000000 1.0
C      1  0.5126230000000  0.5575530000000  0.4767330000000 1.0
C      1  0.5126620000000  0.4912460000000  0.5609090000000 1.0
C      1  0.5117940000000  0.4839180000000  0.4259050000000 1.0
C      1  0.5121010000000  0.5720850000000  0.5225530000000 1.0
C      1  0.5119460000000  0.4443010000000  0.5505840000000 1.0
C      1  0.5117160000000  0.4896140000000  0.5132420000000 1.0
C      1  0.5116720000000  0.4936020000000  0.4838180000000 1.0
C      1  0.5117410000000  0.5170900000000  0.5019840000000 1.0
C      1  0.5370940000000  0.5336720000000  0.5096440000000 1.0
C      1  0.5370240000000  0.4745900000000  0.5237420000000 1.0
C      1  0.5369520000000  0.4919220000000  0.4655270000000 1.0
C      1  0.5257470000000  0.4719570000000  0.4462030000000 1.0
C      1  0.5259840000000  0.5604330000000  0.5020290000000 1.0
C      1  0.5259200000000  0.4678480000000  0.5507390000000 1.0
C      1  0.4558680000000  0.5647070000000  0.4873000000000 1.0
C      1  0.4558590000000  0.4787380000000  0.5618890000000 1.0
C      1  0.4556330000000  0.4571270000000  0.4501430000000 1.0
C      1  0.4418000000000  0.4662630000000  0.5085350000000 1.0
C      1  0.4417960000000  0.5096250000000  0.4660330000000 1.0
C      1  0.4419210000000  0.5247510000000  0.5248360000000 1.0
C      1  0.4456890000000  0.4459970000000  0.4909470000000 1.0
C      1  0.4457730000000  0.5349740000000  0.4572710000000 1.0
C      1  0.4459100000000  0.5196490000000  0.5511650000000 1.0
C      1  0.5613290000000  0.5265660000000  0.4924060000000 1.0
C      1  0.5613330000000  0.4929780000000  0.5261780000000 1.0
C      1  0.5612340000000  0.4805250000000  0.4802040000000 1.0
C      1  0.5703070000000  0.5000080000000  0.4995800000000 1.0
END
