TITL C-246633-6459-6 20.901813386195 125000 -880.221136823182 0 0 124 (C1) n - 1
REM
REM in /rds/project/t2_vol4/rds-t2-cs072/BORA/CARBON/from-Arr/AIRSS/Generating-Clusters/GAP-ML-2020/Higher-Symm/SD-CG/HFTN-CG
REM
REM
REM
REM
REM
REM ./C.cell (b20cbc046b6831c77cfcea5457e17084)
REM AIRSS Version 0.9.1 bugfix July 2018 build 013d7b7c2542+ Fri, 06 Jul 2018 19:26:36 +0100
REM compiler GCC version 9.3.0
REM options -cpp -mtune=generic -march=x86-64 -g -O0
REM seed -268550857 220891607 -532908774 1750241499 606389065 927093884 -1336237463 1148411728 1819574436 2126944097 -1133846351 532513817 -1641739337 -1385839475 2066572591 -1854972729 -1210056168 571016389 -1016096274 238435113 -748600944 -616839911 -1388290959 1982323559 -367665220 -421476600 -1694626809 -994366962 -1975268935 -751280576 204711060 336689090 -52157271
REM
CELL 1.54180   50.00000   50.00000   50.00000   90.00000   90.00000   90.00000
LATT -1
SFAC C  
C      1  0.4905550000000  0.5797260000000  0.4521380000000 1.0
C      1  0.5342850000000  0.5710540000000  0.4559820000000 1.0
C      1  0.5699610000000  0.5437300000000  0.4516600000000 1.0
C      1  0.5822830000000  0.4998930000000  0.4527870000000 1.0
C      1  0.5667980000000  0.4572990000000  0.4513040000000 1.0
C      1  0.5309710000000  0.4301970000000  0.4550020000000 1.0
C      1  0.4871560000000  0.4200060000000  0.4519530000000 1.0
C      1  0.4457250000000  0.4379980000000  0.4530300000000 1.0
C      1  0.4225830000000  0.4766290000000  0.4524580000000 1.0
C      1  0.4256680000000  0.5216780000000  0.4555380000000 1.0
C      1  0.4496340000000  0.5592210000000  0.4521590000000 1.0
C      1  0.4542650000000  0.5029590000000  0.5309260000000 1.0
C      1  0.4666970000000  0.5243150000000  0.5189710000000 1.0
C      1  0.4891990000000  0.5330000000000  0.5340630000000 1.0
C      1  0.5065160000000  0.5447160000000  0.5123750000000 1.0
C      1  0.5301150000000  0.5295800000000  0.5104270000000 1.0
C      1  0.5304660000000  0.5084210000000  0.5299190000000 1.0
C      1  0.5342310000000  0.4845480000000  0.5146100000000 1.0
C      1  0.5237940000000  0.4633590000000  0.5274740000000 1.0
C      1  0.5000440000000  0.4593680000000  0.5142640000000 1.0
C      1  0.4778780000000  0.4631910000000  0.5290810000000 1.0
C      1  0.4628240000000  0.4821120000000  0.5164200000000 1.0
C      1  0.5346810000000  0.4178260000000  0.5360690000000 1.0
C      1  0.4851190000000  0.4114370000000  0.5362090000000 1.0
C      1  0.4395750000000  0.4333390000000  0.5361760000000 1.0
C      1  0.4131330000000  0.4756550000000  0.5367220000000 1.0
C      1  0.4141190000000  0.5267640000000  0.5367970000000 1.0
C      1  0.4430880000000  0.5673500000000  0.5357660000000 1.0
C      1  0.4885810000000  0.5874420000000  0.5357340000000 1.0
C      1  0.5378730000000  0.5803610000000  0.5364440000000 1.0
C      1  0.5745070000000  0.5464330000000  0.5359330000000 1.0
C      1  0.5863330000000  0.4981100000000  0.5349300000000 1.0
C      1  0.5729300000000  0.4505510000000  0.5358390000000 1.0
C      1  0.5588430000000  0.4300760000000  0.4938760000000 1.0
C      1  0.5114900000000  0.4068570000000  0.4937630000000 1.0
C      1  0.4595860000000  0.4144770000000  0.4936860000000 1.0
C      1  0.4192570000000  0.4492160000000  0.4938390000000 1.0
C      1  0.4074430000000  0.5003940000000  0.4948030000000 1.0
C      1  0.4226370000000  0.5513620000000  0.4938720000000 1.0
C      1  0.4629140000000  0.5845140000000  0.4933830000000 1.0
C      1  0.5148550000000  0.5925190000000  0.4943900000000 1.0
C      1  0.5630800000000  0.5705660000000  0.4944190000000 1.0
C      1  0.5903060000000  0.5257400000000  0.4935260000000 1.0
C      1  0.5894310000000  0.4722800000000  0.4931110000000 1.0
C      1  0.5121700000000  0.4764890000000  0.4696120000000 1.0
C      1  0.4958010000000  0.4605680000000  0.4865660000000 1.0
C      1  0.4705690000000  0.4612320000000  0.4757710000000 1.0
C      1  0.4620900000000  0.4833620000000  0.4886100000000 1.0
C      1  0.4701320000000  0.5059230000000  0.4727260000000 1.0
C      1  0.4703360000000  0.5278580000000  0.4913300000000 1.0
C      1  0.4937340000000  0.5424480000000  0.4866220000000 1.0
C      1  0.5114520000000  0.5280090000000  0.4672610000000 1.0
C      1  0.5343010000000  0.5228590000000  0.4837240000000 1.0
C      1  0.5487690000000  0.5025290000000  0.4736180000000 1.0
C      1  0.5346510000000  0.4837080000000  0.4866330000000 1.0
C      1  0.4723890000000  0.5311030000000  0.4073990000000 1.0
C      1  0.4969050000000  0.5472140000000  0.4059290000000 1.0
C      1  0.5207910000000  0.5434340000000  0.3931980000000 1.0
C      1  0.5417240000000  0.5276080000000  0.4043820000000 1.0
C      1  0.5438860000000  0.5019260000000  0.3949070000000 1.0
C      1  0.5356740000000  0.4776020000000  0.4057080000000 1.0
C      1  0.5153730000000  0.4612770000000  0.3961700000000 1.0
C      1  0.4914890000000  0.4514370000000  0.4060070000000 1.0
C      1  0.4660000000000  0.4592000000000  0.3981710000000 1.0
C      1  0.4555870000000  0.4835440000000  0.4067670000000 1.0
C      1  0.4648490000000  0.5076910000000  0.3963510000000 1.0
C      1  0.5774800000000  0.4487930000000  0.5071990000000 1.0
C      1  0.5366330000000  0.4147570000000  0.5072610000000 1.0
C      1  0.4848450000000  0.4066760000000  0.5074690000000 1.0
C      1  0.4370570000000  0.4296710000000  0.5074920000000 1.0
C      1  0.4090330000000  0.4737420000000  0.5080720000000 1.0
C      1  0.4114680000000  0.5272940000000  0.5079030000000 1.0
C      1  0.4403020000000  0.5712530000000  0.5071790000000 1.0
C      1  0.4879760000000  0.5923600000000  0.5075130000000 1.0
C      1  0.5404040000000  0.5848090000000  0.5078920000000 1.0
C      1  0.5798200000000  0.5498680000000  0.5076810000000 1.0
C      1  0.5922990000000  0.4986880000000  0.5066950000000 1.0
C      1  0.5475090000000  0.5299200000000  0.4343260000000 1.0
C      1  0.5534150000000  0.5010520000000  0.4445250000000 1.0
C      1  0.5446650000000  0.4728870000000  0.4347040000000 1.0
C      1  0.5195140000000  0.4568530000000  0.4468160000000 1.0
C      1  0.4911480000000  0.4464200000000  0.4358930000000 1.0
C      1  0.4655380000000  0.4596310000000  0.4463970000000 1.0
C      1  0.4484660000000  0.4832840000000  0.4363950000000 1.0
C      1  0.4529120000000  0.5122710000000  0.4483230000000 1.0
C      1  0.4659080000000  0.5387940000000  0.4364820000000 1.0
C      1  0.4951660000000  0.5555130000000  0.4346920000000 1.0
C      1  0.5224940000000  0.5458260000000  0.4457360000000 1.0
C      1  0.4677360000000  0.5732590000000  0.5479340000000 1.0
C      1  0.5125610000000  0.5794260000000  0.5488700000000 1.0
C      1  0.5528400000000  0.5596020000000  0.5487730000000 1.0
C      1  0.5755610000000  0.5208380000000  0.5474310000000 1.0
C      1  0.5747200000000  0.4758840000000  0.5485300000000 1.0
C      1  0.5508460000000  0.4377340000000  0.5477310000000 1.0
C      1  0.5091250000000  0.4198050000000  0.5490170000000 1.0
C      1  0.4642860000000  0.4265400000000  0.5480770000000 1.0
C      1  0.4306720000000  0.4572220000000  0.5496360000000 1.0
C      1  0.4185400000000  0.5011560000000  0.5481820000000 1.0
C      1  0.4328050000000  0.5444760000000  0.5494270000000 1.0
C      1  0.5312300000000  0.4597870000000  0.5581090000000 1.0
C      1  0.5053730000000  0.4448950000000  0.5649840000000 1.0
C      1  0.4763510000000  0.4530860000000  0.5588140000000 1.0
C      1  0.4519820000000  0.4705990000000  0.5657510000000 1.0
C      1  0.4473620000000  0.5008630000000  0.5599250000000 1.0
C      1  0.4538190000000  0.5308440000000  0.5659700000000 1.0
C      1  0.4789280000000  0.5478260000000  0.5600560000000 1.0
C      1  0.5094370000000  0.5545980000000  0.5651460000000 1.0
C      1  0.5352490000000  0.5413340000000  0.5641610000000 1.0
C      1  0.5484190000000  0.5131360000000  0.5583560000000 1.0
C      1  0.5502570000000  0.4831400000000  0.5643030000000 1.0
C      1  0.4276010000000  0.5476830000000  0.4657710000000 1.0
C      1  0.4651030000000  0.5798570000000  0.4645030000000 1.0
C      1  0.5140330000000  0.5871140000000  0.4665080000000 1.0
C      1  0.5602560000000  0.5664680000000  0.4659660000000 1.0
C      1  0.5878910000000  0.5254670000000  0.4643700000000 1.0
C      1  0.5860690000000  0.4739710000000  0.4640880000000 1.0
C      1  0.5565470000000  0.4347180000000  0.4652010000000 1.0
C      1  0.5109350000000  0.4127200000000  0.4653830000000 1.0
C      1  0.4614140000000  0.4169850000000  0.4645060000000 1.0
C      1  0.4232340000000  0.4511050000000  0.4650630000000 1.0
C      1  0.4120620000000  0.4994110000000  0.4661200000000 1.0
C      1  0.4979960000000  0.4973410000000  0.5665490000000 1.0
C      1  0.5034550000000  0.5087380000000  0.5443980000000 1.0
C      1  0.4981410000000  0.5022050000000  0.4603310000000 1.0
END
