TITL C-246644-6452-8 -0.0387640431413624 125000 -493.186270886039 0 0 73 (C1) n - 1
REM
REM in /rds/project/t2_vol4/rds-t2-cs072/BORA/CARBON/from-Arr/AIRSS/Generating-Clusters/GAP-ML-2020/Higher-Symm/SD-CG/HFTN-CG
REM
REM
REM
REM
REM
REM ./C.cell (b20cbc046b6831c77cfcea5457e17084)
REM AIRSS Version 0.9.1 bugfix July 2018 build 013d7b7c2542+ Fri, 06 Jul 2018 19:26:36 +0100
REM compiler GCC version 9.3.0
REM options -cpp -mtune=generic -march=x86-64 -g -O0
REM seed -662918144 1355297614 -1771511785 558758706 -474093048 1112414168 -607043684 -1123691361 -1178780448 1171850073 704966301 -1090437816 -1903037888 -2086140049 1879277854 615332691 -1918873239 -1777420102 -1069622658 623917713 -520091743 -802302059 502146752 -785306535 1957460909 -533426955 2095574638 -1643978489 1703399478 267962007 1382760398 -624469607 1445848493
REM
CELL 1.54180   50.00000   50.00000   50.00000   90.00000   90.00000   90.00000
LATT -1
SFAC C  
C      1  0.5141650000000  0.5744860000000  0.5179250000000 1.0
C      1  0.5336600000000  0.4696460000000  0.4988750000000 1.0
C      1  0.5472180000000  0.4838350000000  0.4786130000000 1.0
C      1  0.4327030000000  0.4550250000000  0.4653850000000 1.0
C      1  0.5002130000000  0.5047910000000  0.4147470000000 1.0
C      1  0.4766310000000  0.4692060000000  0.5466760000000 1.0
C      1  0.4583480000000  0.4467760000000  0.4583450000000 1.0
C      1  0.4902260000000  0.5273880000000  0.4220430000000 1.0
C      1  0.4899800000000  0.5420710000000  0.5697150000000 1.0
C      1  0.5648540000000  0.4675020000000  0.5335880000000 1.0
C      1  0.4982740000000  0.5289810000000  0.4807890000000 1.0
C      1  0.5628800000000  0.5175070000000  0.5126260000000 1.0
C      1  0.5133480000000  0.4387680000000  0.5371600000000 1.0
C      1  0.5471380000000  0.5412780000000  0.5197890000000 1.0
C      1  0.5418410000000  0.4612120000000  0.4596900000000 1.0
C      1  0.4527540000000  0.5415680000000  0.5348010000000 1.0
C      1  0.4706390000000  0.5780630000000  0.4895640000000 1.0
C      1  0.4907540000000  0.5785890000000  0.4711480000000 1.0
C      1  0.4537120000000  0.5130920000000  0.5344650000000 1.0
C      1  0.4857010000000  0.5852800000000  0.5126950000000 1.0
C      1  0.4932860000000  0.4911310000000  0.5859910000000 1.0
C      1  0.4777950000000  0.4669780000000  0.4547280000000 1.0
C      1  0.4782700000000  0.5000670000000  0.5436630000000 1.0
C      1  0.4191060000000  0.4725780000000  0.4476300000000 1.0
C      1  0.5559850000000  0.4523440000000  0.5117860000000 1.0
C      1  0.5016510000000  0.5251060000000  0.5070380000000 1.0
C      1  0.5112230000000  0.4794630000000  0.4213810000000 1.0
C      1  0.5176190000000  0.5572510000000  0.5634270000000 1.0
C      1  0.4871850000000  0.4229040000000  0.4895510000000 1.0
C      1  0.4867720000000  0.4841020000000  0.4791050000000 1.0
C      1  0.4416700000000  0.4669830000000  0.4896250000000 1.0
C      1  0.5287510000000  0.5377440000000  0.5433940000000 1.0
C      1  0.5159810000000  0.4247300000000  0.4911510000000 1.0
C      1  0.5028460000000  0.4358110000000  0.4480100000000 1.0
C      1  0.5366710000000  0.5615130000000  0.5026790000000 1.0
C      1  0.4294350000000  0.4960790000000  0.4466990000000 1.0
C      1  0.4462440000000  0.5114370000000  0.5069130000000 1.0
C      1  0.5284720000000  0.4243990000000  0.5174780000000 1.0
C      1  0.5314250000000  0.5029050000000  0.4579760000000 1.0
C      1  0.5260180000000  0.4369790000000  0.4656400000000 1.0
C      1  0.5214630000000  0.4540200000000  0.5596480000000 1.0
C      1  0.4822550000000  0.5834110000000  0.5420230000000 1.0
C      1  0.4484780000000  0.4507270000000  0.5123950000000 1.0
C      1  0.5043100000000  0.5554000000000  0.4649710000000 1.0
C      1  0.4733860000000  0.4357840000000  0.5104310000000 1.0
C      1  0.5564450000000  0.5505960000000  0.4574360000000 1.0
C      1  0.5115450000000  0.5815400000000  0.5479960000000 1.0
C      1  0.4550750000000  0.5539950000000  0.4840150000000 1.0
C      1  0.4474420000000  0.5113240000000  0.4606380000000 1.0
C      1  0.5021430000000  0.5057050000000  0.4662340000000 1.0
C      1  0.4859210000000  0.5138410000000  0.5712080000000 1.0
C      1  0.5347670000000  0.5584480000000  0.4733710000000 1.0
C      1  0.4919720000000  0.4534120000000  0.5248540000000 1.0
C      1  0.5485370000000  0.4952240000000  0.5540050000000 1.0
C      1  0.4460870000000  0.5402410000000  0.5067110000000 1.0
C      1  0.5039330000000  0.5009340000000  0.5228300000000 1.0
C      1  0.5041540000000  0.4757070000000  0.5053820000000 1.0
C      1  0.4958570000000  0.4592450000000  0.4335180000000 1.0
C      1  0.4502600000000  0.4610140000000  0.5383890000000 1.0
C      1  0.4751760000000  0.5548570000000  0.5470610000000 1.0
C      1  0.5667710000000  0.4968480000000  0.5318990000000 1.0
C      1  0.5339630000000  0.4799090000000  0.4389290000000 1.0
C      1  0.5467690000000  0.4665770000000  0.5563550000000 1.0
C      1  0.4786700000000  0.4274440000000  0.4627710000000 1.0
C      1  0.5260350000000  0.5091960000000  0.5448620000000 1.0
C      1  0.4970910000000  0.4679050000000  0.5704440000000 1.0
C      1  0.5559060000000  0.4249360000000  0.5167140000000 1.0
C      1  0.4586880000000  0.5385960000000  0.4595690000000 1.0
C      1  0.4561930000000  0.4942360000000  0.4854600000000 1.0
C      1  0.5022140000000  0.5461730000000  0.5252800000000 1.0
C      1  0.5524060000000  0.5246770000000  0.4644230000000 1.0
C      1  0.5626920000000  0.5079880000000  0.4853550000000 1.0
C      1  0.4819480000000  0.5445200000000  0.4423150000000 1.0
END
