TITL C-24502-4933-3 -7.15322582306754 125000 -661.241308161142 0 0 94 (Cs) n - 1
REM
REM in /rds/project/t2_vol4/rds-t2-cs072/BORA/CARBON/from-Arr/AIRSS/Generating-Clusters/GAP-ML-2020/Higher-Symm/SD-CG/HFTN-CG
REM
REM
REM
REM
REM
REM ./C.cell (b20cbc046b6831c77cfcea5457e17084)
REM AIRSS Version 0.9.1 bugfix July 2018 build 013d7b7c2542+ Fri, 06 Jul 2018 19:26:36 +0100
REM compiler GCC version 9.3.0
REM options -cpp -mtune=generic -march=x86-64 -g -O0
REM seed 1650991222 -824634145 1149393157 -994298918 -12346870 948315040 122908342 -850648302 335791746 232610276 1581367974 1902883745 -426986914 1207683848 -2127384047 -984397502 1078769371 1827146045 2067605158 109716329 390440302 944839676 1110172971 794047714 -915925984 781261373 -819811385 1599219814 953399979 505559470 -1405941454 1260905540 1419092804
REM
CELL 1.54180   50.00000   50.00000   50.00000   90.00000   90.00000   90.00000
LATT -1
SFAC C  
C      1  0.5560770000000  0.4351680000000  0.5258910000000 1.0
C      1  0.5560780000000  0.5648340000000  0.5258840000000 1.0
C      1  0.5653350000000  0.4447910000000  0.5498370000000 1.0
C      1  0.5653360000000  0.5552130000000  0.5498320000000 1.0
C      1  0.4597050000000  0.4317040000000  0.4532940000000 1.0
C      1  0.4597060000000  0.5682920000000  0.4532870000000 1.0
C      1  0.4869970000000  0.5285970000000  0.5136490000000 1.0
C      1  0.4869960000000  0.4714050000000  0.5136520000000 1.0
C      1  0.5292230000000  0.4265570000000  0.5295450000000 1.0
C      1  0.5292240000000  0.5734460000000  0.5295380000000 1.0
C      1  0.4716900000000  0.5282380000000  0.4303050000000 1.0
C      1  0.4716900000000  0.4717550000000  0.4303080000000 1.0
C      1  0.4242740000000  0.5553320000000  0.5134460000000 1.0
C      1  0.4242730000000  0.4446700000000  0.5134510000000 1.0
C      1  0.4783570000000  0.4218550000000  0.4724670000000 1.0
C      1  0.4783580000000  0.5781430000000  0.4724590000000 1.0
C      1  0.4443290000000  0.4855760000000  0.5615500000000 1.0
C      1  0.4443300000000  0.5144310000000  0.5615490000000 1.0
C      1  0.4411500000000  0.5679890000000  0.4964120000000 1.0
C      1  0.4411480000000  0.4320120000000  0.4964190000000 1.0
C      1  0.4404880000000  0.5556370000000  0.4697290000000 1.0
C      1  0.4404870000000  0.4443610000000  0.4697350000000 1.0
C      1  0.4226280000000  0.5141130000000  0.5397170000000 1.0
C      1  0.4226280000000  0.4858920000000  0.5397180000000 1.0
C      1  0.5199260000000  0.4851760000000  0.5782500000000 1.0
C      1  0.5199260000000  0.5148310000000  0.5782490000000 1.0
C      1  0.5811430000000  0.5138640000000  0.4813320000000 1.0
C      1  0.5811420000000  0.4861330000000  0.4813340000000 1.0
C      1  0.5221290000000  0.4867580000000  0.4964770000000 1.0
C      1  0.5221290000000  0.5132420000000  0.4964760000000 1.0
C      1  0.5682570000000  0.5527250000000  0.5022140000000 1.0
C      1  0.5682560000000  0.4472740000000  0.5022190000000 1.0
C      1  0.4685120000000  0.4414520000000  0.5626360000000 1.0
C      1  0.4685130000000  0.5585550000000  0.5626300000000 1.0
C      1  0.4848420000000  0.5147590000000  0.4662440000000 1.0
C      1  0.4848420000000  0.4852380000000  0.4662450000000 1.0
C      1  0.5183910000000  0.4434820000000  0.4461600000000 1.0
C      1  0.5183920000000  0.5565120000000  0.4461550000000 1.0
C      1  0.5010060000000  0.5590650000000  0.4735300000000 1.0
C      1  0.5010050000000  0.4409330000000  0.4735360000000 1.0
C      1  0.4211300000000  0.5140310000000  0.4892790000000 1.0
C      1  0.4211300000000  0.4859690000000  0.4892800000000 1.0
C      1  0.5589020000000  0.5538290000000  0.4748240000000 1.0
C      1  0.5589010000000  0.4461680000000  0.4748290000000 1.0
C      1  0.5659230000000  0.5282810000000  0.5527740000000 1.0
C      1  0.5659220000000  0.4717230000000  0.5527760000000 1.0
C      1  0.5108820000000  0.4419190000000  0.5450920000000 1.0
C      1  0.5108830000000  0.5580860000000  0.5450860000000 1.0
C      1  0.4994520000000  0.5302790000000  0.4876650000000 1.0
C      1  0.4994520000000  0.4697190000000  0.4876680000000 1.0
C      1  0.4729520000000  0.4432190000000  0.4304960000000 1.0
C      1  0.4729530000000  0.5567750000000  0.4304900000000 1.0
C      1  0.5376800000000  0.5703830000000  0.4660700000000 1.0
C      1  0.5376790000000  0.4296130000000  0.4660770000000 1.0
C      1  0.5180510000000  0.5806310000000  0.4840410000000 1.0
C      1  0.5180500000000  0.4193670000000  0.4840490000000 1.0
C      1  0.5477810000000  0.4854890000000  0.4441790000000 1.0
C      1  0.5477810000000  0.5145040000000  0.4441780000000 1.0
C      1  0.4853300000000  0.5726540000000  0.5464780000000 1.0
C      1  0.4853290000000  0.4273510000000  0.5464850000000 1.0
C      1  0.5813130000000  0.4721660000000  0.5062770000000 1.0
C      1  0.5813140000000  0.5278330000000  0.5062740000000 1.0
C      1  0.5038300000000  0.4698790000000  0.5374630000000 1.0
C      1  0.5038300000000  0.5301250000000  0.5374600000000 1.0
C      1  0.4179890000000  0.4713150000000  0.5150920000000 1.0
C      1  0.4179900000000  0.5286880000000  0.5150890000000 1.0
C      1  0.5477110000000  0.5146020000000  0.5702710000000 1.0
C      1  0.5477110000000  0.4854040000000  0.5702730000000 1.0
C      1  0.5785300000000  0.4860160000000  0.5308570000000 1.0
C      1  0.5785300000000  0.5139860000000  0.5308560000000 1.0
C      1  0.5656540000000  0.5284440000000  0.4621470000000 1.0
C      1  0.5656530000000  0.4715510000000  0.4621500000000 1.0
C      1  0.4653060000000  0.5128060000000  0.5144780000000 1.0
C      1  0.4653050000000  0.4871960000000  0.5144800000000 1.0
C      1  0.4980140000000  0.5147300000000  0.4370200000000 1.0
C      1  0.4980140000000  0.4852630000000  0.4370210000000 1.0
C      1  0.4559420000000  0.5149700000000  0.4523080000000 1.0
C      1  0.4559420000000  0.4850250000000  0.4523090000000 1.0
C      1  0.5126850000000  0.5867330000000  0.5107360000000 1.0
C      1  0.5126840000000  0.4132680000000  0.5107440000000 1.0
C      1  0.4850670000000  0.5857080000000  0.5197700000000 1.0
C      1  0.4850660000000  0.4142940000000  0.5197780000000 1.0
C      1  0.4945640000000  0.5159100000000  0.5612860000000 1.0
C      1  0.4945640000000  0.4840960000000  0.5612870000000 1.0
C      1  0.5238680000000  0.5286130000000  0.4377420000000 1.0
C      1  0.5238670000000  0.4713800000000  0.4377450000000 1.0
C      1  0.4666250000000  0.4178820000000  0.4983090000000 1.0
C      1  0.4666260000000  0.5821180000000  0.4983010000000 1.0
C      1  0.4989660000000  0.4326280000000  0.4283510000000 1.0
C      1  0.4989680000000  0.5673650000000  0.4283450000000 1.0
C      1  0.4671020000000  0.4686360000000  0.5666850000000 1.0
C      1  0.4671030000000  0.5313710000000  0.5666820000000 1.0
C      1  0.4342910000000  0.4720680000000  0.4676220000000 1.0
C      1  0.4342910000000  0.5279300000000  0.4676200000000 1.0
END
