TITL C-24397-2426-6 -670.86605988469 125000 -929.764011797313 0 0 133 (C1) n - 1
REM
REM in /rds/project/t2_vol4/rds-t2-cs072/BORA/CARBON/from-Arr/AIRSS/Generating-Clusters/GAP-ML-2020/Higher-Symm/SD-CG/HFTN-CG
REM
REM
REM
REM
REM
REM ./C.cell (b20cbc046b6831c77cfcea5457e17084)
REM AIRSS Version 0.9.1 bugfix July 2018 build 013d7b7c2542+ Fri, 06 Jul 2018 19:26:36 +0100
REM compiler GCC version 9.3.0
REM options -cpp -mtune=generic -march=x86-64 -g -O0
REM seed 536732823 -1605220709 -73359000 -226022841 -1447114625 228974038 -708949633 -498809285 -344759006 -1685938349 1765669465 -1484377403 658142756 -1410170403 667630164 2004111744 1038469275 1866947217 -59538842 36394228 1967500246 -451086194 781961967 1240965609 -1632459244 1073924832 154597668 897254389 -765093821 -1421060228 -1380391710 1238342115 -899824196
REM
CELL 1.54180   50.00000   50.00000   50.00000   90.00000   90.00000   90.00000
LATT -1
SFAC C  
C      1  0.3962000000000  0.4823760000000  0.5306700000000 1.0
C      1  0.4338150000000  0.4727610000000  0.5602670000000 1.0
C      1  0.5206550000000  0.4964400000000  0.3963440000000 1.0
C      1  0.4391090000000  0.5453830000000  0.5606210000000 1.0
C      1  0.5464890000000  0.4926840000000  0.5913890000000 1.0
C      1  0.4328620000000  0.4998230000000  0.5703610000000 1.0
C      1  0.4906420000000  0.4195380000000  0.5530290000000 1.0
C      1  0.4694890000000  0.5461580000000  0.4417780000000 1.0
C      1  0.4635830000000  0.4302050000000  0.5569900000000 1.0
C      1  0.5472840000000  0.5621990000000  0.5388590000000 1.0
C      1  0.5438550000000  0.4860940000000  0.4094290000000 1.0
C      1  0.4231190000000  0.4505850000000  0.5115560000000 1.0
C      1  0.4879240000000  0.5636660000000  0.5527760000000 1.0
C      1  0.4924350000000  0.4068680000000  0.4809650000000 1.0
C      1  0.4575820000000  0.5396550000000  0.5818790000000 1.0
C      1  0.5340850000000  0.4310730000000  0.5314570000000 1.0
C      1  0.5443610000000  0.5204110000000  0.5944620000000 1.0
C      1  0.4158690000000  0.4629140000000  0.4866620000000 1.0
C      1  0.4752610000000  0.4944560000000  0.5993930000000 1.0
C      1  0.5019430000000  0.5037120000000  0.6065600000000 1.0
C      1  0.5135460000000  0.5577220000000  0.4369460000000 1.0
C      1  0.4386640000000  0.4889790000000  0.4205040000000 1.0
C      1  0.4786410000000  0.4678990000000  0.5890440000000 1.0
C      1  0.5545500000000  0.5365510000000  0.5744870000000 1.0
C      1  0.4260530000000  0.4525020000000  0.4633290000000 1.0
C      1  0.4634250000000  0.4917050000000  0.4644100000000 1.0
C      1  0.5775390000000  0.4506070000000  0.4847900000000 1.0
C      1  0.4733710000000  0.4498220000000  0.4992330000000 1.0
C      1  0.5007090000000  0.4770490000000  0.4019280000000 1.0
C      1  0.5154670000000  0.5010230000000  0.4673560000000 1.0
C      1  0.5519160000000  0.4934260000000  0.4763090000000 1.0
C      1  0.4812920000000  0.5324180000000  0.4849710000000 1.0
C      1  0.5311420000000  0.5252150000000  0.5041390000000 1.0
C      1  0.5017840000000  0.5092140000000  0.4425990000000 1.0
C      1  0.4030680000000  0.5022350000000  0.5131800000000 1.0
C      1  0.4774550000000  0.5917200000000  0.5127460000000 1.0
C      1  0.5077580000000  0.4609500000000  0.5900810000000 1.0
C      1  0.4797700000000  0.4649140000000  0.4723120000000 1.0
C      1  0.5190330000000  0.4286620000000  0.4448920000000 1.0
C      1  0.4900690000000  0.5615410000000  0.4807810000000 1.0
C      1  0.5084930000000  0.4729890000000  0.4731610000000 1.0
C      1  0.5693960000000  0.4991530000000  0.5453420000000 1.0
C      1  0.4455440000000  0.4347640000000  0.4573720000000 1.0
C      1  0.5342220000000  0.5915730000000  0.4646330000000 1.0
C      1  0.5999520000000  0.4941540000000  0.4636650000000 1.0
C      1  0.5596730000000  0.4769100000000  0.4518770000000 1.0
C      1  0.5099080000000  0.5499600000000  0.5882310000000 1.0
C      1  0.6065870000000  0.5092310000000  0.4882220000000 1.0
C      1  0.5175260000000  0.5276310000000  0.6025440000000 1.0
C      1  0.5222870000000  0.4345470000000  0.5051430000000 1.0
C      1  0.4953980000000  0.4378140000000  0.4309890000000 1.0
C      1  0.5173330000000  0.5307770000000  0.4245960000000 1.0
C      1  0.5331610000000  0.5537650000000  0.5655030000000 1.0
C      1  0.4936370000000  0.4255070000000  0.5037860000000 1.0
C      1  0.4229530000000  0.5224700000000  0.5546090000000 1.0
C      1  0.5101490000000  0.5449490000000  0.5445380000000 1.0
C      1  0.5367240000000  0.5676670000000  0.4485430000000 1.0
C      1  0.5254950000000  0.5513690000000  0.5192650000000 1.0
C      1  0.5728460000000  0.5276890000000  0.5537090000000 1.0
C      1  0.4490170000000  0.5126550000000  0.4060110000000 1.0
C      1  0.5170980000000  0.4288730000000  0.5541020000000 1.0
C      1  0.5037080000000  0.5126180000000  0.4957190000000 1.0
C      1  0.4826320000000  0.5538340000000  0.5791550000000 1.0
C      1  0.4449670000000  0.5018960000000  0.4861630000000 1.0
C      1  0.5677360000000  0.5729590000000  0.4969390000000 1.0
C      1  0.5208730000000  0.4829880000000  0.6008790000000 1.0
C      1  0.5609720000000  0.5002050000000  0.4299280000000 1.0
C      1  0.4455730000000  0.4323860000000  0.5071310000000 1.0
C      1  0.4309420000000  0.5278860000000  0.4232620000000 1.0
C      1  0.5064360000000  0.5146790000000  0.5503420000000 1.0
C      1  0.4585650000000  0.4954660000000  0.5115040000000 1.0
C      1  0.5373000000000  0.4590830000000  0.4180760000000 1.0
C      1  0.4783340000000  0.5193370000000  0.4570130000000 1.0
C      1  0.4416160000000  0.5482740000000  0.4393810000000 1.0
C      1  0.5038570000000  0.4844180000000  0.5124900000000 1.0
C      1  0.5435490000000  0.5021630000000  0.5223030000000 1.0
C      1  0.5479110000000  0.4799500000000  0.5015630000000 1.0
C      1  0.5190920000000  0.4950360000000  0.5356310000000 1.0
C      1  0.4147490000000  0.5243190000000  0.5274260000000 1.0
C      1  0.5153180000000  0.5701880000000  0.4989180000000 1.0
C      1  0.5098290000000  0.4529420000000  0.4119510000000 1.0
C      1  0.4047350000000  0.5017680000000  0.4590150000000 1.0
C      1  0.4549520000000  0.4190070000000  0.5317380000000 1.0
C      1  0.5528460000000  0.5420190000000  0.4532000000000 1.0
C      1  0.5827340000000  0.5527530000000  0.5073920000000 1.0
C      1  0.4804910000000  0.5043670000000  0.5503960000000 1.0
C      1  0.5393880000000  0.5190280000000  0.4757090000000 1.0
C      1  0.4476500000000  0.4170660000000  0.4803680000000 1.0
C      1  0.5705520000000  0.4612660000000  0.5136840000000 1.0
C      1  0.6071570000000  0.4946160000000  0.5115990000000 1.0
C      1  0.5934380000000  0.5352500000000  0.4856630000000 1.0
C      1  0.4780970000000  0.4742620000000  0.5473020000000 1.0
C      1  0.5436500000000  0.5793200000000  0.4886040000000 1.0
C      1  0.4771320000000  0.4728970000000  0.5175300000000 1.0
C      1  0.4533380000000  0.5107040000000  0.5887870000000 1.0
C      1  0.5865680000000  0.5113850000000  0.4452170000000 1.0
C      1  0.4822430000000  0.4114200000000  0.5273020000000 1.0
C      1  0.4417200000000  0.5782280000000  0.4799640000000 1.0
C      1  0.4452170000000  0.5591580000000  0.5364450000000 1.0
C      1  0.5124800000000  0.6059510000000  0.4764140000000 1.0
C      1  0.5218260000000  0.4657460000000  0.4977620000000 1.0
C      1  0.4679290000000  0.5804280000000  0.4893070000000 1.0
C      1  0.5052600000000  0.5211240000000  0.3993990000000 1.0
C      1  0.4176450000000  0.5044700000000  0.4361070000000 1.0
C      1  0.5816660000000  0.5357130000000  0.4585280000000 1.0
C      1  0.5172020000000  0.4108440000000  0.4661820000000 1.0
C      1  0.4315830000000  0.5451470000000  0.5131990000000 1.0
C      1  0.5046650000000  0.5979820000000  0.5030190000000 1.0
C      1  0.5371460000000  0.4213480000000  0.4828600000000 1.0
C      1  0.5856600000000  0.4700630000000  0.4655050000000 1.0
C      1  0.5522740000000  0.4569490000000  0.5625710000000 1.0
C      1  0.4672480000000  0.5154250000000  0.5284480000000 1.0
C      1  0.4215670000000  0.5630870000000  0.4906140000000 1.0
C      1  0.4669090000000  0.3980250000000  0.4777980000000 1.0
C      1  0.4848520000000  0.4906080000000  0.4223930000000 1.0
C      1  0.4600070000000  0.4586360000000  0.5661710000000 1.0
C      1  0.5570490000000  0.4466620000000  0.5362140000000 1.0
C      1  0.5877350000000  0.4833560000000  0.5261790000000 1.0
C      1  0.4371560000000  0.5515390000000  0.4673890000000 1.0
C      1  0.4134180000000  0.4933500000000  0.4855790000000 1.0
C      1  0.4174300000000  0.4653120000000  0.5364090000000 1.0
C      1  0.5575710000000  0.4362220000000  0.4702430000000 1.0
C      1  0.5463260000000  0.5256970000000  0.4302220000000 1.0
C      1  0.5452970000000  0.4468340000000  0.4442590000000 1.0
C      1  0.4766250000000  0.5121750000000  0.4034740000000 1.0
C      1  0.4694240000000  0.5751600000000  0.5348460000000 1.0
C      1  0.5608890000000  0.4825910000000  0.5691180000000 1.0
C      1  0.4899590000000  0.5634320000000  0.4509020000000 1.0
C      1  0.5724140000000  0.5494730000000  0.5349090000000 1.0
C      1  0.5264680000000  0.4471220000000  0.5729140000000 1.0
C      1  0.4700640000000  0.4492510000000  0.4455020000000 1.0
C      1  0.4500160000000  0.5318590000000  0.4888370000000 1.0
C      1  0.4611590000000  0.4776770000000  0.4357100000000 1.0
END
