TITL C-24501-3796-3 0.221088186475611 125000 -492.577768925525 0 0 73 (C1) n - 1
REM
REM in /rds/project/t2_vol4/rds-t2-cs072/BORA/CARBON/from-Arr/AIRSS/Generating-Clusters/GAP-ML-2020/Higher-Symm/SD-CG/HFTN-CG
REM
REM
REM
REM
REM
REM ./C.cell (b20cbc046b6831c77cfcea5457e17084)
REM AIRSS Version 0.9.1 bugfix July 2018 build 013d7b7c2542+ Fri, 06 Jul 2018 19:26:36 +0100
REM compiler GCC version 9.3.0
REM options -cpp -mtune=generic -march=x86-64 -g -O0
REM seed -1091792639 -550017157 1393867082 1936198157 -1119797932 1595159015 -988428421 -621348521 -100629733 -1498842628 300174368 -1730905114 -1884621734 1398929209 -2094985101 -2049582976 1567955067 -1004179876 -607463138 -406121824 -450037145 -1994446410 906069859 -1655802844 1129156965 1124500672 -499044589 1651180538 367040375 -520908322 811720850 1758715329 -1366489231
REM
CELL 1.54180   50.00000   50.00000   50.00000   90.00000   90.00000   90.00000
LATT -1
SFAC C  
C      1  0.4966450000000  0.5133380000000  0.4155890000000 1.0
C      1  0.5011960000000  0.5818070000000  0.4879790000000 1.0
C      1  0.4990310000000  0.5376950000000  0.5754180000000 1.0
C      1  0.4995070000000  0.4416330000000  0.5606660000000 1.0
C      1  0.5004790000000  0.4284530000000  0.4643520000000 1.0
C      1  0.4294410000000  0.5346540000000  0.5110750000000 1.0
C      1  0.4279760000000  0.5147500000000  0.5320690000000 1.0
C      1  0.4291630000000  0.4674390000000  0.5162920000000 1.0
C      1  0.4316400000000  0.4802170000000  0.4703490000000 1.0
C      1  0.4314820000000  0.5086980000000  0.4639780000000 1.0
C      1  0.5055750000000  0.5688460000000  0.5368190000000 1.0
C      1  0.5045130000000  0.4872340000000  0.5784250000000 1.0
C      1  0.5052780000000  0.4241330000000  0.5134030000000 1.0
C      1  0.5052490000000  0.4668530000000  0.4316570000000 1.0
C      1  0.5055820000000  0.5556510000000  0.4443340000000 1.0
C      1  0.5564000000000  0.5428370000000  0.4938160000000 1.0
C      1  0.5555530000000  0.5194000000000  0.5419090000000 1.0
C      1  0.5561800000000  0.4667430000000  0.5318730000000 1.0
C      1  0.5571880000000  0.4636250000000  0.4789300000000 1.0
C      1  0.5580690000000  0.5108720000000  0.4472040000000 1.0
C      1  0.5179480000000  0.4632670000000  0.5675290000000 1.0
C      1  0.5182490000000  0.4280600000000  0.4873340000000 1.0
C      1  0.5163070000000  0.4917500000000  0.4208000000000 1.0
C      1  0.5176660000000  0.5661750000000  0.4691590000000 1.0
C      1  0.5170480000000  0.5504370000000  0.5562600000000 1.0
C      1  0.4551970000000  0.4780450000000  0.5141410000000 1.0
C      1  0.4574280000000  0.4825500000000  0.4848830000000 1.0
C      1  0.4579870000000  0.5119140000000  0.4778440000000 1.0
C      1  0.4569090000000  0.5255180000000  0.5033260000000 1.0
C      1  0.4553750000000  0.5048130000000  0.5261430000000 1.0
C      1  0.4765400000000  0.5083650000000  0.5457620000000 1.0
C      1  0.4774400000000  0.4615840000000  0.5243350000000 1.0
C      1  0.4801920000000  0.4698960000000  0.4731530000000 1.0
C      1  0.4794720000000  0.5201520000000  0.4591890000000 1.0
C      1  0.4797940000000  0.5428370000000  0.5066660000000 1.0
C      1  0.4814510000000  0.4382500000000  0.5072730000000 1.0
C      1  0.4815790000000  0.4767120000000  0.4439630000000 1.0
C      1  0.4815930000000  0.5493280000000  0.4589490000000 1.0
C      1  0.4819630000000  0.5533540000000  0.5338830000000 1.0
C      1  0.4805830000000  0.4852460000000  0.5636580000000 1.0
C      1  0.5651220000000  0.4930580000000  0.5370760000000 1.0
C      1  0.5672950000000  0.4682090000000  0.5053210000000 1.0
C      1  0.5598980000000  0.4866650000000  0.4628010000000 1.0
C      1  0.5601720000000  0.5281230000000  0.4703770000000 1.0
C      1  0.5664550000000  0.5286880000000  0.5170580000000 1.0
C      1  0.5082850000000  0.5247660000000  0.5055010000000 1.0
C      1  0.5060510000000  0.5075290000000  0.5299550000000 1.0
C      1  0.5067950000000  0.4777680000000  0.5210600000000 1.0
C      1  0.5090230000000  0.4769990000000  0.4908760000000 1.0
C      1  0.5104070000000  0.5112610000000  0.4611690000000 1.0
C      1  0.4049940000000  0.5248600000000  0.5004610000000 1.0
C      1  0.4036260000000  0.5047210000000  0.5220550000000 1.0
C      1  0.4067770000000  0.4797540000000  0.5096470000000 1.0
C      1  0.4059380000000  0.4825950000000  0.4818190000000 1.0
C      1  0.4062150000000  0.5112650000000  0.4765330000000 1.0
C      1  0.5163120000000  0.4478030000000  0.4495520000000 1.0
C      1  0.5142600000000  0.5352150000000  0.4262850000000 1.0
C      1  0.5165610000000  0.5747490000000  0.5114040000000 1.0
C      1  0.5150070000000  0.5134060000000  0.5774350000000 1.0
C      1  0.5153210000000  0.4327070000000  0.5380900000000 1.0
C      1  0.4809230000000  0.5622220000000  0.4845420000000 1.0
C      1  0.4783960000000  0.5353080000000  0.5560110000000 1.0
C      1  0.4779510000000  0.4586900000000  0.5529640000000 1.0
C      1  0.4796400000000  0.4411960000000  0.4789090000000 1.0
C      1  0.4776850000000  0.5042340000000  0.4348400000000 1.0
C      1  0.5291460000000  0.4545280000000  0.4768910000000 1.0
C      1  0.5306650000000  0.5124800000000  0.4370280000000 1.0
C      1  0.5285320000000  0.5520590000000  0.4956080000000 1.0
C      1  0.5276100000000  0.5218000000000  0.5512110000000 1.0
C      1  0.5281630000000  0.4602470000000  0.5384860000000 1.0
C      1  0.5722910000000  0.4990540000000  0.5082460000000 1.0
C      1  0.5189100000000  0.5043370000000  0.4864660000000 1.0
C      1  0.5502980000000  0.5037130000000  0.4860030000000 1.0
END
