TITL C-24501-3796-8 -64.0548949383521 125000 -338.852852762738 0 0 51 (C1) n - 1
REM
REM in /rds/project/t2_vol4/rds-t2-cs072/BORA/CARBON/from-Arr/AIRSS/Generating-Clusters/GAP-ML-2020/Higher-Symm/SD-CG/HFTN-CG
REM
REM
REM
REM
REM
REM ./C.cell (b20cbc046b6831c77cfcea5457e17084)
REM AIRSS Version 0.9.1 bugfix July 2018 build 013d7b7c2542+ Fri, 06 Jul 2018 19:26:36 +0100
REM compiler GCC version 9.3.0
REM options -cpp -mtune=generic -march=x86-64 -g -O0
REM seed -1136011053 -1828712016 -1599835681 312268109 1839209888 1498659698 -1878914695 -1211829445 -1741511010 553876567 797631599 -480599104 -221134147 297094434 1762022713 -1432947127 20967803 -1666104592 215577331 371170917 1764829300 2140506720 -1347570529 1110512553 1289646472 1370504666 -2098128698 -1546660827 1655674122 1227029028 -641530950 885250202 -2018375182
REM
CELL 1.54180   50.00000   50.00000   50.00000   90.00000   90.00000   90.00000
LATT -1
SFAC C  
C      1  0.5272920000000  0.4950600000000  0.4229790000000 1.0
C      1  0.5524870000000  0.4972830000000  0.5601790000000 1.0
C      1  0.4214100000000  0.4964490000000  0.5147290000000 1.0
C      1  0.5279550000000  0.4962220000000  0.5772770000000 1.0
C      1  0.5530570000000  0.4951010000000  0.4376080000000 1.0
C      1  0.4216300000000  0.4966920000000  0.4851150000000 1.0
C      1  0.5486770000000  0.5087930000000  0.4820390000000 1.0
C      1  0.4880900000000  0.5066820000000  0.5534730000000 1.0
C      1  0.4639210000000  0.5121450000000  0.4634670000000 1.0
C      1  0.5469280000000  0.5071650000000  0.5140010000000 1.0
C      1  0.4859590000000  0.5097410000000  0.4435900000000 1.0
C      1  0.4615810000000  0.5080770000000  0.5349540000000 1.0
C      1  0.4449050000000  0.5356500000000  0.4736930000000 1.0
C      1  0.5473900000000  0.5330370000000  0.4634700000000 1.0
C      1  0.5023210000000  0.5322430000000  0.5622840000000 1.0
C      1  0.4480620000000  0.5325060000000  0.5235910000000 1.0
C      1  0.5422530000000  0.5318430000000  0.5312250000000 1.0
C      1  0.5048910000000  0.5324110000000  0.4385590000000 1.0
C      1  0.5380620000000  0.4603280000000  0.5355900000000 1.0
C      1  0.4525280000000  0.4621230000000  0.5164530000000 1.0
C      1  0.5116730000000  0.4634280000000  0.4530330000000 1.0
C      1  0.5381160000000  0.4619370000000  0.4671270000000 1.0
C      1  0.4546010000000  0.4648930000000  0.4869250000000 1.0
C      1  0.5122740000000  0.4605310000000  0.5508840000000 1.0
C      1  0.5045400000000  0.4840190000000  0.5653960000000 1.0
C      1  0.4471060000000  0.4888490000000  0.4738940000000 1.0
C      1  0.5542560000000  0.4852040000000  0.4645420000000 1.0
C      1  0.5038560000000  0.4866640000000  0.4379060000000 1.0
C      1  0.4428060000000  0.4852110000000  0.5296720000000 1.0
C      1  0.5510870000000  0.4857260000000  0.5342500000000 1.0
C      1  0.5498710000000  0.5267470000000  0.5582410000000 1.0
C      1  0.4215490000000  0.5252510000000  0.5153180000000 1.0
C      1  0.5267400000000  0.5237980000000  0.4222860000000 1.0
C      1  0.5528110000000  0.5243880000000  0.4373050000000 1.0
C      1  0.4211220000000  0.5259570000000  0.4848870000000 1.0
C      1  0.5256740000000  0.5251770000000  0.5754360000000 1.0
C      1  0.5269190000000  0.4447320000000  0.4874730000000 1.0
C      1  0.5006980000000  0.4443500000000  0.5302210000000 1.0
C      1  0.4773250000000  0.4473590000000  0.4873240000000 1.0
C      1  0.5263910000000  0.4436380000000  0.5152590000000 1.0
C      1  0.5010370000000  0.4459460000000  0.4731080000000 1.0
C      1  0.4765240000000  0.4460140000000  0.5164450000000 1.0
C      1  0.4791140000000  0.5088400000000  0.5103610000000 1.0
C      1  0.5068850000000  0.5331220000000  0.4838130000000 1.0
C      1  0.5179650000000  0.4970720000000  0.5105120000000 1.0
C      1  0.4793980000000  0.5270770000000  0.4889880000000 1.0
C      1  0.5013960000000  0.5118140000000  0.5263310000000 1.0
C      1  0.5185390000000  0.5073130000000  0.4848710000000 1.0
C      1  0.5127880000000  0.5378200000000  0.5345190000000 1.0
C      1  0.5193350000000  0.5432820000000  0.4612760000000 1.0
C      1  0.4582030000000  0.5439160000000  0.4981220000000 1.0
END
