TITL C-246638-6568-9 151.889143388956 125000 -829.1075135603 0 0 120 (C1) n - 1
REM
REM in /rds/project/t2_vol4/rds-t2-cs072/BORA/CARBON/from-Arr/AIRSS/Generating-Clusters/GAP-ML-2020/Higher-Symm/SD-CG/HFTN-CG
REM
REM
REM
REM
REM
REM ./C.cell (b20cbc046b6831c77cfcea5457e17084)
REM AIRSS Version 0.9.1 bugfix July 2018 build 013d7b7c2542+ Fri, 06 Jul 2018 19:26:36 +0100
REM compiler GCC version 9.3.0
REM options -cpp -mtune=generic -march=x86-64 -g -O0
REM seed -88061951 -1450446567 -1794853305 888645322 -1596460240 629867695 710240409 -1943845329 664327509 418296285 -993207331 1864568681 2093057473 -509530606 -793334886 1453481515 -1388249739 -1078237084 -1630074039 1481971766 -2133102973 478596255 302274414 -606138205 846440489 1390842905 1391967193 937486250 1522703859 1365289019 1305967249 -2018901124 -696344330
REM
CELL 1.54180   50.00000   50.00000   50.00000   90.00000   90.00000   90.00000
LATT -1
SFAC C  
C      1  0.4405990000000  0.5540420000000  0.5370140000000 1.0
C      1  0.5633220000000  0.5550850000000  0.5316280000000 1.0
C      1  0.4969500000000  0.5563230000000  0.4284780000000 1.0
C      1  0.4934730000000  0.4369090000000  0.4737650000000 1.0
C      1  0.4806380000000  0.4199330000000  0.5279470000000 1.0
C      1  0.5220710000000  0.4298500000000  0.5040390000000 1.0
C      1  0.4662890000000  0.5052280000000  0.5406590000000 1.0
C      1  0.5496600000000  0.5099580000000  0.5130310000000 1.0
C      1  0.4854550000000  0.5117270000000  0.4470500000000 1.0
C      1  0.5819300000000  0.4565430000000  0.5152290000000 1.0
C      1  0.4681080000000  0.4588580000000  0.4173900000000 1.0
C      1  0.4446560000000  0.4552170000000  0.5725570000000 1.0
C      1  0.5960700000000  0.5012770000000  0.5043580000000 1.0
C      1  0.4544690000000  0.5045180000000  0.4126130000000 1.0
C      1  0.4476840000000  0.5033310000000  0.5841390000000 1.0
C      1  0.5937310000000  0.5245110000000  0.5199820000000 1.0
C      1  0.4704210000000  0.5271060000000  0.4072810000000 1.0
C      1  0.4357770000000  0.5247130000000  0.5707040000000 1.0
C      1  0.5011840000000  0.5625330000000  0.4571920000000 1.0
C      1  0.4627190000000  0.5622700000000  0.5192090000000 1.0
C      1  0.5360860000000  0.5604980000000  0.5212930000000 1.0
C      1  0.5387860000000  0.4626690000000  0.4311180000000 1.0
C      1  0.4257270000000  0.4608520000000  0.5008410000000 1.0
C      1  0.5411880000000  0.4684160000000  0.5766750000000 1.0
C      1  0.4239780000000  0.5473080000000  0.4534590000000 1.0
C      1  0.4970170000000  0.5494540000000  0.5888890000000 1.0
C      1  0.5782860000000  0.5453350000000  0.4571410000000 1.0
C      1  0.5269630000000  0.5888700000000  0.4893630000000 1.0
C      1  0.4782260000000  0.5900790000000  0.4820750000000 1.0
C      1  0.4964660000000  0.5881930000000  0.5277170000000 1.0
C      1  0.4629960000000  0.4278800000000  0.5482860000000 1.0
C      1  0.5493730000000  0.4313730000000  0.5122560000000 1.0
C      1  0.4851690000000  0.4363750000000  0.4471500000000 1.0
C      1  0.5648300000000  0.4773010000000  0.4667780000000 1.0
C      1  0.4395620000000  0.4788100000000  0.4592360000000 1.0
C      1  0.4973200000000  0.4826380000000  0.5896360000000 1.0
C      1  0.5013390000000  0.4111520000000  0.4877720000000 1.0
C      1  0.5170210000000  0.3969990000000  0.4668780000000 1.0
C      1  0.4755440000000  0.4064140000000  0.5033550000000 1.0
C      1  0.4776110000000  0.5054110000000  0.5882830000000 1.0
C      1  0.5809060000000  0.5011360000000  0.4781820000000 1.0
C      1  0.4395620000000  0.5036870000000  0.4394260000000 1.0
C      1  0.5152120000000  0.4685500000000  0.4150650000000 1.0
C      1  0.4229930000000  0.4625910000000  0.5298730000000 1.0
C      1  0.5620430000000  0.4694000000000  0.5565540000000 1.0
C      1  0.5719780000000  0.4392080000000  0.4948810000000 1.0
C      1  0.4576030000000  0.4405040000000  0.4364440000000 1.0
C      1  0.4707890000000  0.4426060000000  0.5729820000000 1.0
C      1  0.4984060000000  0.5195680000000  0.4017330000000 1.0
C      1  0.4190220000000  0.5158570000000  0.5487150000000 1.0
C      1  0.5843740000000  0.5182260000000  0.5469030000000 1.0
C      1  0.4276270000000  0.5104740000000  0.4918400000000 1.0
C      1  0.5294600000000  0.5159240000000  0.5716500000000 1.0
C      1  0.5439320000000  0.5118120000000  0.4402780000000 1.0
C      1  0.4844680000000  0.5182390000000  0.5577500000000 1.0
C      1  0.5556020000000  0.5191330000000  0.4864980000000 1.0
C      1  0.4598970000000  0.5211960000000  0.4566080000000 1.0
C      1  0.4119100000000  0.5330870000000  0.5010030000000 1.0
C      1  0.5471780000000  0.5389170000000  0.5762030000000 1.0
C      1  0.5427390000000  0.5349770000000  0.4219670000000 1.0
C      1  0.4639960000000  0.5480910000000  0.4936440000000 1.0
C      1  0.5129330000000  0.5441610000000  0.5314730000000 1.0
C      1  0.5218120000000  0.5468620000000  0.4715800000000 1.0
C      1  0.5154290000000  0.4900920000000  0.5307530000000 1.0
C      1  0.5156560000000  0.4947740000000  0.4726800000000 1.0
C      1  0.4713830000000  0.4968580000000  0.4955360000000 1.0
C      1  0.4203480000000  0.4864280000000  0.5483700000000 1.0
C      1  0.5821320000000  0.4890780000000  0.5480000000000 1.0
C      1  0.4994330000000  0.4905000000000  0.4019440000000 1.0
C      1  0.4343600000000  0.4809290000000  0.5731730000000 1.0
C      1  0.5943180000000  0.4799430000000  0.5228870000000 1.0
C      1  0.4705320000000  0.4829110000000  0.4039870000000 1.0
C      1  0.5202450000000  0.4317480000000  0.5523000000000 1.0
C      1  0.5338120000000  0.4110080000000  0.4530370000000 1.0
C      1  0.4511030000000  0.4125240000000  0.4907530000000 1.0
C      1  0.5321300000000  0.5188520000000  0.4673770000000 1.0
C      1  0.4561740000000  0.5199870000000  0.4864710000000 1.0
C      1  0.5124080000000  0.5168250000000  0.5461600000000 1.0
C      1  0.4853940000000  0.5285970000000  0.6034680000000 1.0
C      1  0.5918570000000  0.5211520000000  0.4597510000000 1.0
C      1  0.4183280000000  0.5233000000000  0.4403190000000 1.0
C      1  0.5411700000000  0.4399720000000  0.4547360000000 1.0
C      1  0.4427910000000  0.4398100000000  0.4841560000000 1.0
C      1  0.5215880000000  0.4468590000000  0.5741410000000 1.0
C      1  0.4748540000000  0.4873770000000  0.5220660000000 1.0
C      1  0.5382390000000  0.4834500000000  0.5140740000000 1.0
C      1  0.4924210000000  0.4861020000000  0.4563520000000 1.0
C      1  0.5154390000000  0.5402030000000  0.4131730000000 1.0
C      1  0.4188970000000  0.5368950000000  0.5287760000000 1.0
C      1  0.5676250000000  0.5405820000000  0.5559740000000 1.0
C      1  0.4947390000000  0.4550680000000  0.5826070000000 1.0
C      1  0.5667990000000  0.4485820000000  0.4689510000000 1.0
C      1  0.4387310000000  0.4493990000000  0.4551130000000 1.0
C      1  0.4942640000000  0.4602770000000  0.4330030000000 1.0
C      1  0.4374280000000  0.4432720000000  0.5469420000000 1.0
C      1  0.5553160000000  0.4569920000000  0.5295210000000 1.0
C      1  0.4242410000000  0.4835670000000  0.4841010000000 1.0
C      1  0.5246790000000  0.4905710000000  0.5853080000000 1.0
C      1  0.5534300000000  0.4843710000000  0.4410880000000 1.0
C      1  0.5047150000000  0.5894720000000  0.4717440000000 1.0
C      1  0.4740330000000  0.5895600000000  0.5102200000000 1.0
C      1  0.5226400000000  0.5880420000000  0.5173880000000 1.0
C      1  0.4696610000000  0.4777610000000  0.4739130000000 1.0
C      1  0.4961740000000  0.4705610000000  0.5299610000000 1.0
C      1  0.5324800000000  0.4754880000000  0.4849480000000 1.0
C      1  0.4546450000000  0.5503660000000  0.4483330000000 1.0
C      1  0.4791120000000  0.5485040000000  0.5638460000000 1.0
C      1  0.5663840000000  0.5479600000000  0.4855170000000 1.0
C      1  0.4123930000000  0.5481510000000  0.4780630000000 1.0
C      1  0.5247550000000  0.5487510000000  0.5879930000000 1.0
C      1  0.5637520000000  0.5473220000000  0.4340140000000 1.0
C      1  0.5811410000000  0.5479460000000  0.5107410000000 1.0
C      1  0.4695750000000  0.5503960000000  0.4230700000000 1.0
C      1  0.4497370000000  0.5478540000000  0.5632330000000 1.0
C      1  0.5400830000000  0.5616420000000  0.4884780000000 1.0
C      1  0.4704440000000  0.5634520000000  0.4699210000000 1.0
C      1  0.4896580000000  0.5606790000000  0.5385880000000 1.0
C      1  0.5047140000000  0.4377730000000  0.5274890000000 1.0
C      1  0.5220460000000  0.4482040000000  0.4784340000000 1.0
C      1  0.4710220000000  0.4510980000000  0.4833450000000 1.0
END
