TITL C-24405-2511-4 0.0530595046302997 125000 -481.060968937866 0 0 70 (C1) n - 1
REM
REM in /rds/project/t2_vol4/rds-t2-cs072/BORA/CARBON/from-Arr/AIRSS/Generating-Clusters/GAP-ML-2020/Higher-Symm/SD-CG/HFTN-CG
REM
REM
REM
REM
REM
REM ./C.cell (b20cbc046b6831c77cfcea5457e17084)
REM AIRSS Version 0.9.1 bugfix July 2018 build 013d7b7c2542+ Fri, 06 Jul 2018 19:26:36 +0100
REM compiler GCC version 9.3.0
REM options -cpp -mtune=generic -march=x86-64 -g -O0
REM seed -122309368 -1302662759 1499048434 625158117 -1249563541 605887071 -78478052 -1513920312 1664826085 1747011306 86739172 -763768263 -246010907 229349248 -672562665 -1623796149 -1076338140 459351110 146090816 1566347646 -1637219684 808126816 -597508229 -1556421480 -2018596851 -1965014016 1127150388 86441575 1107848534 -15520598 -1843229036 1171257887 1443880374
REM
CELL 1.54180   50.00000   50.00000   50.00000   90.00000   90.00000   90.00000
LATT -1
SFAC C  
C      1  0.4504000000000  0.5206330000000  0.5687940000000 1.0
C      1  0.5579220000000  0.4865580000000  0.5472820000000 1.0
C      1  0.5454750000000  0.5090080000000  0.5627930000000 1.0
C      1  0.4536340000000  0.4727050000000  0.5692680000000 1.0
C      1  0.4760470000000  0.4247990000000  0.4738400000000 1.0
C      1  0.5268690000000  0.5701710000000  0.4783150000000 1.0
C      1  0.5218850000000  0.4296870000000  0.4758010000000 1.0
C      1  0.4775590000000  0.5714020000000  0.4777170000000 1.0
C      1  0.4642650000000  0.4501600000000  0.4630410000000 1.0
C      1  0.5378770000000  0.5458600000000  0.4665530000000 1.0
C      1  0.5364610000000  0.4498940000000  0.4617150000000 1.0
C      1  0.4659000000000  0.5465500000000  0.4666330000000 1.0
C      1  0.5335740000000  0.4293170000000  0.5243140000000 1.0
C      1  0.4594840000000  0.5690400000000  0.5234380000000 1.0
C      1  0.4663540000000  0.4278830000000  0.5222070000000 1.0
C      1  0.5442190000000  0.5657310000000  0.5247110000000 1.0
C      1  0.5547360000000  0.4479340000000  0.5210690000000 1.0
C      1  0.4441900000000  0.5452550000000  0.5255340000000 1.0
C      1  0.4454350000000  0.4482410000000  0.5238760000000 1.0
C      1  0.5583620000000  0.5410120000000  0.5261450000000 1.0
C      1  0.5221930000000  0.4542210000000  0.4370660000000 1.0
C      1  0.4817560000000  0.5413940000000  0.4428050000000 1.0
C      1  0.4805670000000  0.4561940000000  0.4396220000000 1.0
C      1  0.5234540000000  0.5422840000000  0.4416310000000 1.0
C      1  0.4526200000000  0.4715040000000  0.4785040000000 1.0
C      1  0.5478760000000  0.5222060000000  0.4797610000000 1.0
C      1  0.5479920000000  0.4716820000000  0.4759630000000 1.0
C      1  0.4533210000000  0.5243080000000  0.4801830000000 1.0
C      1  0.4439100000000  0.4710580000000  0.5057490000000 1.0
C      1  0.5565720000000  0.5201000000000  0.5069220000000 1.0
C      1  0.5550610000000  0.4700420000000  0.5031530000000 1.0
C      1  0.4435550000000  0.5231310000000  0.5072710000000 1.0
C      1  0.4527950000000  0.4528430000000  0.5524780000000 1.0
C      1  0.5465190000000  0.5348340000000  0.5525740000000 1.0
C      1  0.5513470000000  0.4589020000000  0.5484370000000 1.0
C      1  0.4539960000000  0.5418330000000  0.5537570000000 1.0
C      1  0.4738120000000  0.5631690000000  0.5493580000000 1.0
C      1  0.5283190000000  0.4412110000000  0.5516160000000 1.0
C      1  0.5286130000000  0.5579300000000  0.5493960000000 1.0
C      1  0.4768350000000  0.4360650000000  0.5484770000000 1.0
C      1  0.5276550000000  0.5773720000000  0.5055220000000 1.0
C      1  0.4836830000000  0.4222260000000  0.5014950000000 1.0
C      1  0.4775650000000  0.5788310000000  0.5047140000000 1.0
C      1  0.5119710000000  0.4329360000000  0.5039100000000 1.0
C      1  0.5027740000000  0.4773310000000  0.4383710000000 1.0
C      1  0.5034180000000  0.5196800000000  0.4407210000000 1.0
C      1  0.5499890000000  0.4939900000000  0.5195250000000 1.0
C      1  0.4472760000000  0.4970040000000  0.5190970000000 1.0
C      1  0.4729300000000  0.4970330000000  0.5313740000000 1.0
C      1  0.5195670000000  0.4977420000000  0.5288700000000 1.0
C      1  0.5022700000000  0.5614060000000  0.4399280000000 1.0
C      1  0.5003150000000  0.4351820000000  0.4355140000000 1.0
C      1  0.5011940000000  0.4509630000000  0.5479040000000 1.0
C      1  0.5018660000000  0.5682250000000  0.5444200000000 1.0
C      1  0.5024490000000  0.5764700000000  0.4636460000000 1.0
C      1  0.5003650000000  0.4198090000000  0.4585890000000 1.0
C      1  0.5388020000000  0.4976000000000  0.4679480000000 1.0
C      1  0.4636590000000  0.4981110000000  0.4732250000000 1.0
C      1  0.5046380000000  0.4615210000000  0.5201450000000 1.0
C      1  0.5026340000000  0.5816620000000  0.5185830000000 1.0
C      1  0.4687720000000  0.4975750000000  0.5632050000000 1.0
C      1  0.5183520000000  0.5019770000000  0.5584460000000 1.0
C      1  0.5008090000000  0.5021840000000  0.3926660000000 1.0
C      1  0.4967350000000  0.4892760000000  0.5134080000000 1.0
C      1  0.4911190000000  0.4975020000000  0.4846860000000 1.0
C      1  0.5015890000000  0.4997460000000  0.4197720000000 1.0
C      1  0.5091660000000  0.4978580000000  0.4617980000000 1.0
C      1  0.5000230000000  0.5163420000000  0.6011370000000 1.0
C      1  0.4969470000000  0.5051930000000  0.5768720000000 1.0
C      1  0.5007090000000  0.5034460000000  0.3674440000000 1.0
END
