TITL C-246659-6453-2 -0.067671452094818 125000 -612.319573559579 0 0 88 (C1) n - 1
REM
REM in /rds/project/t2_vol4/rds-t2-cs072/BORA/CARBON/from-Arr/AIRSS/Generating-Clusters/GAP-ML-2020/Higher-Symm/SD-CG/HFTN-CG
REM
REM
REM
REM
REM
REM ./C.cell (b20cbc046b6831c77cfcea5457e17084)
REM AIRSS Version 0.9.1 bugfix July 2018 build 013d7b7c2542+ Fri, 06 Jul 2018 19:26:36 +0100
REM compiler GCC version 9.3.0
REM options -cpp -mtune=generic -march=x86-64 -g -O0
REM seed -580732468 567152162 694165406 1214418405 1475470378 393663234 -232497003 287278238 -1779835681 179502150 2147297923 41925498 506534594 1129689745 1037744211 748155557 1255940100 -1231195885 787921357 -994773710 -1856872719 -121236834 1911429960 242057448 -642106037 2004597584 803507474 658280219 -1406508823 2024713595 1567404775 651626850 842904745
REM
CELL 1.54180   50.00000   50.00000   50.00000   90.00000   90.00000   90.00000
LATT -1
SFAC C  
C      1  0.5676390000000  0.5401620000000  0.4955230000000 1.0
C      1  0.4759900000000  0.5864560000000  0.4994060000000 1.0
C      1  0.4128230000000  0.5052870000000  0.4923320000000 1.0
C      1  0.4716960000000  0.4199650000000  0.5000330000000 1.0
C      1  0.5717560000000  0.4599860000000  0.4943030000000 1.0
C      1  0.5622060000000  0.4491680000000  0.4693670000000 1.0
C      1  0.5738720000000  0.5306830000000  0.4695150000000 1.0
C      1  0.4881930000000  0.5864050000000  0.4724880000000 1.0
C      1  0.4214040000000  0.5162730000000  0.4666710000000 1.0
C      1  0.4650360000000  0.4266790000000  0.4723290000000 1.0
C      1  0.4338680000000  0.5552470000000  0.4926630000000 1.0
C      1  0.4297310000000  0.4541400000000  0.4902560000000 1.0
C      1  0.5282410000000  0.4235930000000  0.4956300000000 1.0
C      1  0.5769390000000  0.4892730000000  0.4933460000000 1.0
C      1  0.5278140000000  0.5716530000000  0.4937980000000 1.0
C      1  0.5664400000000  0.4627140000000  0.5435260000000 1.0
C      1  0.5533410000000  0.5415000000000  0.5420210000000 1.0
C      1  0.4734250000000  0.5635720000000  0.5423110000000 1.0
C      1  0.4256830000000  0.4979440000000  0.5376170000000 1.0
C      1  0.4727680000000  0.4357160000000  0.5455470000000 1.0
C      1  0.5710770000000  0.4906620000000  0.5412450000000 1.0
C      1  0.5300580000000  0.5590160000000  0.5402990000000 1.0
C      1  0.4481500000000  0.5488030000000  0.5400390000000 1.0
C      1  0.4315570000000  0.4691490000000  0.5376170000000 1.0
C      1  0.5221950000000  0.4346200000000  0.5421960000000 1.0
C      1  0.5375780000000  0.5148190000000  0.4421700000000 1.0
C      1  0.4808070000000  0.5189630000000  0.4680090000000 1.0
C      1  0.4674160000000  0.4940110000000  0.4694860000000 1.0
C      1  0.5100420000000  0.4716730000000  0.4559190000000 1.0
C      1  0.5387330000000  0.4870540000000  0.4539930000000 1.0
C      1  0.5185470000000  0.5234540000000  0.5002210000000 1.0
C      1  0.4907930000000  0.5270180000000  0.4922150000000 1.0
C      1  0.4779590000000  0.4792280000000  0.4925610000000 1.0
C      1  0.5049900000000  0.4774510000000  0.4858120000000 1.0
C      1  0.5238080000000  0.4937270000000  0.5006670000000 1.0
C      1  0.5634910000000  0.4485140000000  0.5190500000000 1.0
C      1  0.5719690000000  0.5310130000000  0.5215510000000 1.0
C      1  0.4888690000000  0.5782020000000  0.5231090000000 1.0
C      1  0.4180940000000  0.5167820000000  0.5180460000000 1.0
C      1  0.4571390000000  0.4304960000000  0.5229650000000 1.0
C      1  0.5181430000000  0.5217290000000  0.4225770000000 1.0
C      1  0.5050630000000  0.5453550000000  0.4335450000000 1.0
C      1  0.4787730000000  0.5328520000000  0.4419920000000 1.0
C      1  0.4806110000000  0.5041090000000  0.4258950000000 1.0
C      1  0.5010950000000  0.5054190000000  0.4081650000000 1.0
C      1  0.5636720000000  0.4700970000000  0.4488050000000 1.0
C      1  0.5451460000000  0.5387870000000  0.4578690000000 1.0
C      1  0.4637500000000  0.5750110000000  0.4616300000000 1.0
C      1  0.4354230000000  0.4903070000000  0.4603800000000 1.0
C      1  0.4932200000000  0.4252750000000  0.4649760000000 1.0
C      1  0.5401600000000  0.4318830000000  0.5202330000000 1.0
C      1  0.5800200000000  0.5036800000000  0.5189820000000 1.0
C      1  0.5173370000000  0.5743280000000  0.5204860000000 1.0
C      1  0.4301670000000  0.5427410000000  0.5184480000000 1.0
C      1  0.4352410000000  0.4481160000000  0.5180140000000 1.0
C      1  0.4810480000000  0.5162010000000  0.5172990000000 1.0
C      1  0.4773740000000  0.4881250000000  0.5184660000000 1.0
C      1  0.4972020000000  0.4437980000000  0.5331580000000 1.0
C      1  0.5198320000000  0.4924120000000  0.5310080000000 1.0
C      1  0.5076440000000  0.5200610000000  0.5305640000000 1.0
C      1  0.5142030000000  0.4422240000000  0.4554800000000 1.0
C      1  0.5850210000000  0.4867960000000  0.4466340000000 1.0
C      1  0.5240640000000  0.5594030000000  0.4489640000000 1.0
C      1  0.4561140000000  0.5504280000000  0.4504350000000 1.0
C      1  0.4503440000000  0.4676300000000  0.4477570000000 1.0
C      1  0.5395560000000  0.5241360000000  0.5610590000000 1.0
C      1  0.4841500000000  0.5436810000000  0.5612890000000 1.0
C      1  0.4454000000000  0.5029910000000  0.5590600000000 1.0
C      1  0.4699240000000  0.4556470000000  0.5666070000000 1.0
C      1  0.5447040000000  0.4675860000000  0.5628790000000 1.0
C      1  0.4513410000000  0.5766780000000  0.4887540000000 1.0
C      1  0.4197050000000  0.4790570000000  0.4832590000000 1.0
C      1  0.5002280000000  0.4163590000000  0.4917820000000 1.0
C      1  0.5466810000000  0.4897880000000  0.4837980000000 1.0
C      1  0.5397000000000  0.5453070000000  0.4891100000000 1.0
C      1  0.5127360000000  0.5379320000000  0.5550080000000 1.0
C      1  0.4583500000000  0.5282560000000  0.5594750000000 1.0
C      1  0.4495360000000  0.4735690000000  0.5604680000000 1.0
C      1  0.5224890000000  0.4517180000000  0.5657920000000 1.0
C      1  0.5433550000000  0.4964150000000  0.5534790000000 1.0
C      1  0.4463630000000  0.4465530000000  0.4671890000000 1.0
C      1  0.5380700000000  0.4349250000000  0.4707830000000 1.0
C      1  0.5844780000000  0.5039880000000  0.4681010000000 1.0
C      1  0.5147510000000  0.5781340000000  0.4696940000000 1.0
C      1  0.4331010000000  0.5416080000000  0.4667530000000 1.0
C      1  0.4971750000000  0.4748450000000  0.5369020000000 1.0
C      1  0.4968750000000  0.4666860000000  0.5666670000000 1.0
C      1  0.4789540000000  0.4803750000000  0.4439540000000 1.0
END
