TITL C-24479-3827-3 712.145915559255 125000 -596.414496086847 0 0 87 (C2) n - 1
REM
REM in /rds/project/t2_vol4/rds-t2-cs072/BORA/CARBON/from-Arr/AIRSS/Generating-Clusters/GAP-ML-2020/Higher-Symm/SD-CG/HFTN-CG
REM
REM
REM
REM
REM
REM ./C.cell (b20cbc046b6831c77cfcea5457e17084)
REM AIRSS Version 0.9.1 bugfix July 2018 build 013d7b7c2542+ Fri, 06 Jul 2018 19:26:36 +0100
REM compiler GCC version 9.3.0
REM options -cpp -mtune=generic -march=x86-64 -g -O0
REM seed 2055287700 -92744576 1803444785 1653670445 -901011482 1098835854 1119930838 -205547554 -662475252 -218383062 1553064975 -1556084105 1266811889 15728299 1637696228 -1710099433 -2077762005 -1287762360 -762779627 913380226 -820164274 -471593830 430107221 1386320909 -896143922 1052904408 619714693 -665949165 -629047413 8358236 -1272984843 -3157557 -1328219205
REM
CELL 1.54180   50.00000   50.00000   50.00000   90.00000   90.00000   90.00000
LATT -1
SFAC C  
C      1  0.4556060000000  0.4531430000000  0.4421920000000 1.0
C      1  0.4532380000000  0.5474190000000  0.5621620000000 1.0
C      1  0.5480070000000  0.5473690000000  0.4377700000000 1.0
C      1  0.5455630000000  0.4531180000000  0.5577600000000 1.0
C      1  0.4522110000000  0.4806660000000  0.4528000000000 1.0
C      1  0.4497620000000  0.5199330000000  0.5502290000000 1.0
C      1  0.5514610000000  0.5198820000000  0.4497090000000 1.0
C      1  0.5489810000000  0.4806370000000  0.5471460000000 1.0
C      1  0.4443210000000  0.4739720000000  0.5480020000000 1.0
C      1  0.4472540000000  0.5263290000000  0.4546770000000 1.0
C      1  0.5539750000000  0.5262950000000  0.5452600000000 1.0
C      1  0.5568660000000  0.4739170000000  0.4519460000000 1.0
C      1  0.4683030000000  0.4982190000000  0.5896420000000 1.0
C      1  0.4688880000000  0.5017100000000  0.4123150000000 1.0
C      1  0.5323210000000  0.5017020000000  0.5876270000000 1.0
C      1  0.5329030000000  0.4981750000000  0.4103010000000 1.0
C      1  0.5227920000000  0.4533700000000  0.5758220000000 1.0
C      1  0.5234400000000  0.5467060000000  0.4206810000000 1.0
C      1  0.4778050000000  0.5467400000000  0.5792520000000 1.0
C      1  0.4783780000000  0.4533730000000  0.4241290000000 1.0
C      1  0.5148500000000  0.5110610000000  0.5204900000000 1.0
C      1  0.5197580000000  0.4784740000000  0.4887440000000 1.0
C      1  0.4814320000000  0.4784910000000  0.5112030000000 1.0
C      1  0.4863660000000  0.5110680000000  0.4794500000000 1.0
C      1  0.5010320000000  0.4664180000000  0.4693840000000 1.0
C      1  0.4982910000000  0.5324600000000  0.5290740000000 1.0
C      1  0.5029430000000  0.5324520000000  0.4708620000000 1.0
C      1  0.5001490000000  0.4664240000000  0.5305650000000 1.0
C      1  0.4851370000000  0.4456710000000  0.5448970000000 1.0
C      1  0.4895630000000  0.5565430000000  0.4598570000000 1.0
C      1  0.5116890000000  0.5565420000000  0.5400740000000 1.0
C      1  0.5160270000000  0.4456490000000  0.4550560000000 1.0
C      1  0.4912720000000  0.5645050000000  0.5597750000000 1.0
C      1  0.4931320000000  0.4352480000000  0.4429920000000 1.0
C      1  0.5080240000000  0.4352530000000  0.5569630000000 1.0
C      1  0.5099870000000  0.5644860000000  0.4401540000000 1.0
C      1  0.4514730000000  0.5051010000000  0.4352310000000 1.0
C      1  0.4495790000000  0.4949110000000  0.5672650000000 1.0
C      1  0.5516240000000  0.4948560000000  0.4326780000000 1.0
C      1  0.5497390000000  0.5050750000000  0.5647100000000 1.0
C      1  0.4670410000000  0.5646300000000  0.5159030000000 1.0
C      1  0.4654870000000  0.4350390000000  0.4882840000000 1.0
C      1  0.5356680000000  0.4350130000000  0.5116710000000 1.0
C      1  0.5342190000000  0.5646000000000  0.4840260000000 1.0
C      1  0.5655820000000  0.4856050000000  0.5231970000000 1.0
C      1  0.5663470000000  0.5143080000000  0.4745700000000 1.0
C      1  0.4348720000000  0.5143660000000  0.5253700000000 1.0
C      1  0.4356140000000  0.4856530000000  0.4767470000000 1.0
C      1  0.5067690000000  0.5582760000000  0.4872540000000 1.0
C      1  0.5142600000000  0.4535590000000  0.5075280000000 1.0
C      1  0.4869100000000  0.4535690000000  0.4924230000000 1.0
C      1  0.4944860000000  0.5582830000000  0.5126770000000 1.0
C      1  0.5652220000000  0.5289730000000  0.4991110000000 1.0
C      1  0.5675080000000  0.4709570000000  0.4984120000000 1.0
C      1  0.4336760000000  0.4710110000000  0.5015360000000 1.0
C      1  0.4360090000000  0.5290250000000  0.5008250000000 1.0
C      1  0.4671500000000  0.4333760000000  0.4600720000000 1.0
C      1  0.4655060000000  0.5658610000000  0.5440490000000 1.0
C      1  0.5357540000000  0.5658240000000  0.4558800000000 1.0
C      1  0.5340040000000  0.4333570000000  0.5398830000000 1.0
C      1  0.4336360000000  0.5138040000000  0.4769910000000 1.0
C      1  0.4307700000000  0.4864590000000  0.5252770000000 1.0
C      1  0.5704260000000  0.4863980000000  0.4746680000000 1.0
C      1  0.5675820000000  0.5137550000000  0.5229490000000 1.0
C      1  0.5437610000000  0.4493430000000  0.4624990000000 1.0
C      1  0.5404830000000  0.5501700000000  0.5342020000000 1.0
C      1  0.4607650000000  0.5501960000000  0.4657310000000 1.0
C      1  0.4574050000000  0.4493850000000  0.5374540000000 1.0
C      1  0.4842290000000  0.4756690000000  0.4090940000000 1.0
C      1  0.4835010000000  0.5241140000000  0.5943690000000 1.0
C      1  0.5177250000000  0.5240810000000  0.4055680000000 1.0
C      1  0.5169590000000  0.4756740000000  0.5908530000000 1.0
C      1  0.5110620000000  0.4819350000000  0.4171220000000 1.0
C      1  0.5102240000000  0.5191000000000  0.5836460000000 1.0
C      1  0.4909980000000  0.5190910000000  0.4162930000000 1.0
C      1  0.4901310000000  0.4819590000000  0.5828240000000 1.0
C      1  0.5208260000000  0.5181590000000  0.4539550000000 1.0
C      1  0.5172280000000  0.4897760000000  0.5416320000000 1.0
C      1  0.4839710000000  0.4897810000000  0.4583120000000 1.0
C      1  0.4803960000000  0.5181840000000  0.5459840000000 1.0
C      1  0.4482950000000  0.4467130000000  0.5091490000000 1.0
C      1  0.4525160000000  0.5518890000000  0.4939940000000 1.0
C      1  0.5487330000000  0.5518520000000  0.5059380000000 1.0
C      1  0.5528690000000  0.4466690000000  0.4908040000000 1.0
C      1  0.4988120000000  0.5015680000000  0.5611700000000 1.0
C      1  0.5023970000000  0.5015540000000  0.4387720000000 1.0
C      1  0.5006030000000  0.4981740000000  0.4999710000000 1.0
END
