TITL C-24496-3760-7 -0.0120636317640384 125000 -441.595423436419 0 0 65 (C3h) n - 1
REM
REM in /rds/project/t2_vol4/rds-t2-cs072/BORA/CARBON/from-Arr/AIRSS/Generating-Clusters/GAP-ML-2020/Higher-Symm/SD-CG/HFTN-CG
REM
REM
REM
REM
REM
REM ./C.cell (b20cbc046b6831c77cfcea5457e17084)
REM AIRSS Version 0.9.1 bugfix July 2018 build 013d7b7c2542+ Fri, 06 Jul 2018 19:26:36 +0100
REM compiler GCC version 9.3.0
REM options -cpp -mtune=generic -march=x86-64 -g -O0
REM seed -187887607 1037142131 -1368389923 1684046579 1961384984 -68181640 900601137 -688786954 941298132 689814538 -1192094521 -2053199740 197083515 -1420981459 -440380533 -381674082 1557226490 185146582 -608193804 -1825017097 -851278042 272441780 1563933271 1199188110 94427484 708442490 -812066652 -197943635 1498029419 475261850 -1068753875 570603812 -529445712
REM
CELL 1.54180   50.00000   50.00000   50.00000   90.00000   90.00000   90.00000
LATT -1
SFAC C  
C      1  0.4732460000000  0.5037930000000  0.4845850000000 1.0
C      1  0.5108170000000  0.4749380000000  0.4845860000000 1.0
C      1  0.5170210000000  0.5219030000000  0.4845870000000 1.0
C      1  0.4732450000000  0.5037930000000  0.5130300000000 1.0
C      1  0.5108160000000  0.4749370000000  0.5130300000000 1.0
C      1  0.5170200000000  0.5219020000000  0.5130310000000 1.0
C      1  0.5377290000000  0.4753640000000  0.4426350000000 1.0
C      1  0.5031980000000  0.5449960000000  0.4426350000000 1.0
C      1  0.4601610000000  0.4802750000000  0.4426330000000 1.0
C      1  0.5377260000000  0.4753630000000  0.5549830000000 1.0
C      1  0.5031940000000  0.5449940000000  0.5549830000000 1.0
C      1  0.4601570000000  0.4802740000000  0.5549810000000 1.0
C      1  0.4570420000000  0.5088050000000  0.5532650000000 1.0
C      1  0.5145750000000  0.4583990000000  0.5532660000000 1.0
C      1  0.5294610000000  0.5334270000000  0.5532670000000 1.0
C      1  0.4570450000000  0.5088070000000  0.4443490000000 1.0
C      1  0.5145780000000  0.4584000000000  0.4443510000000 1.0
C      1  0.5294650000000  0.5334280000000  0.4443520000000 1.0
C      1  0.5238270000000  0.5665010000000  0.4795320000000 1.0
C      1  0.4312210000000  0.4873880000000  0.4795280000000 1.0
C      1  0.5460370000000  0.4467450000000  0.4795310000000 1.0
C      1  0.5238260000000  0.5665000000000  0.5180880000000 1.0
C      1  0.4312190000000  0.4873880000000  0.5180840000000 1.0
C      1  0.5460360000000  0.4467440000000  0.5180870000000 1.0
C      1  0.4685080000000  0.4548050000000  0.4834050000000 1.0
C      1  0.5556110000000  0.4953280000000  0.4834080000000 1.0
C      1  0.4769660000000  0.5505000000000  0.4834060000000 1.0
C      1  0.4685070000000  0.4548050000000  0.5142090000000 1.0
C      1  0.5556100000000  0.4953270000000  0.5142120000000 1.0
C      1  0.4769650000000  0.5505000000000  0.5142100000000 1.0
C      1  0.5388700000000  0.5410440000000  0.4713750000000 1.0
C      1  0.4457450000000  0.5131440000000  0.4713720000000 1.0
C      1  0.5164700000000  0.4464460000000  0.4713730000000 1.0
C      1  0.5388680000000  0.5410440000000  0.5262450000000 1.0
C      1  0.4457440000000  0.5131430000000  0.5262420000000 1.0
C      1  0.5164680000000  0.4464450000000  0.5262430000000 1.0
C      1  0.5612550000000  0.5247570000000  0.4847730000000 1.0
C      1  0.4486580000000  0.5406740000000  0.4847700000000 1.0
C      1  0.4911720000000  0.4352030000000  0.4847700000000 1.0
C      1  0.5612540000000  0.5247560000000  0.5128480000000 1.0
C      1  0.4486570000000  0.5406730000000  0.5128450000000 1.0
C      1  0.4911710000000  0.4352030000000  0.5128450000000 1.0
C      1  0.4838780000000  0.4787180000000  0.4742280000000 1.0
C      1  0.5272180000000  0.4966830000000  0.4742290000000 1.0
C      1  0.4899890000000  0.5252330000000  0.4742280000000 1.0
C      1  0.4838770000000  0.4787170000000  0.5233870000000 1.0
C      1  0.5272160000000  0.4966820000000  0.5233890000000 1.0
C      1  0.4899880000000  0.5252330000000  0.5233880000000 1.0
C      1  0.4843080000000  0.5220850000000  0.4431570000000 1.0
C      1  0.4894470000000  0.4753710000000  0.4431570000000 1.0
C      1  0.5273330000000  0.5031780000000  0.4431580000000 1.0
C      1  0.4843050000000  0.5220840000000  0.5544590000000 1.0
C      1  0.4894430000000  0.4753700000000  0.5544590000000 1.0
C      1  0.5273300000000  0.5031770000000  0.5544600000000 1.0
C      1  0.4468370000000  0.4667560000000  0.5322330000000 1.0
C      1  0.5560940000000  0.4705860000000  0.5322360000000 1.0
C      1  0.4981480000000  0.5632900000000  0.5322360000000 1.0
C      1  0.4468400000000  0.4667570000000  0.4653800000000 1.0
C      1  0.5560960000000  0.4705870000000  0.4653830000000 1.0
C      1  0.4981500000000  0.5632910000000  0.4653820000000 1.0
C      1  0.4114190000000  0.4831120000000  0.4988050000000 1.0
C      1  0.5300240000000  0.5857870000000  0.4988100000000 1.0
C      1  0.5596400000000  0.4317340000000  0.4988090000000 1.0
C      1  0.5003630000000  0.5002120000000  0.4340740000000 1.0
C      1  0.5003590000000  0.5002100000000  0.5635430000000 1.0
END
