TITL C-246646-6464-11 5.27828633270791 125000 -875.605450848469 0 0 124 (C1) n - 1
REM
REM in /rds/project/t2_vol4/rds-t2-cs072/BORA/CARBON/from-Arr/AIRSS/Generating-Clusters/GAP-ML-2020/Higher-Symm/SD-CG/HFTN-CG
REM
REM
REM
REM
REM
REM ./C.cell (b20cbc046b6831c77cfcea5457e17084)
REM AIRSS Version 0.9.1 bugfix July 2018 build 013d7b7c2542+ Fri, 06 Jul 2018 19:26:36 +0100
REM compiler GCC version 9.3.0
REM options -cpp -mtune=generic -march=x86-64 -g -O0
REM seed -231613493 1966968131 -251382033 466227420 -1606340206 374270953 1864531816 1835321609 787010949 329700379 457047924 -1073397517 -230403602 1568204349 -1624620641 -203733587 -1082234500 1013925919 -1411732349 -1947080900 -142498491 -1349627559 1036798436 -1170705805 1796172013 1654418007 -1810041754 -3089597 811715822 539885159 1550320584 -120620846 -259008894
REM
CELL 1.54180   50.00000   50.00000   50.00000   90.00000   90.00000   90.00000
LATT -1
SFAC C  
C      1  0.5163510000000  0.5005910000000  0.4819680000000 1.0
C      1  0.5158140000000  0.5008570000000  0.5146940000000 1.0
C      1  0.5630690000000  0.4748550000000  0.4858260000000 1.0
C      1  0.5626330000000  0.4756950000000  0.5155100000000 1.0
C      1  0.4266600000000  0.5002890000000  0.5557450000000 1.0
C      1  0.4277300000000  0.5000520000000  0.4425650000000 1.0
C      1  0.5229270000000  0.4264500000000  0.4623940000000 1.0
C      1  0.5224680000000  0.4283860000000  0.5400480000000 1.0
C      1  0.4351460000000  0.4394080000000  0.5141580000000 1.0
C      1  0.4351290000000  0.4391240000000  0.4850730000000 1.0
C      1  0.4882210000000  0.4998350000000  0.5289830000000 1.0
C      1  0.4888240000000  0.4988100000000  0.4694490000000 1.0
C      1  0.5662340000000  0.4526670000000  0.5554380000000 1.0
C      1  0.5670870000000  0.4497430000000  0.4472650000000 1.0
C      1  0.4544070000000  0.4607600000000  0.5565530000000 1.0
C      1  0.4550310000000  0.4599890000000  0.4423350000000 1.0
C      1  0.5581690000000  0.5645870000000  0.4850570000000 1.0
C      1  0.5587140000000  0.5650440000000  0.5144610000000 1.0
C      1  0.4670920000000  0.5301350000000  0.4209140000000 1.0
C      1  0.4649720000000  0.5303430000000  0.5787260000000 1.0
C      1  0.4722390000000  0.5008460000000  0.4181230000000 1.0
C      1  0.4702940000000  0.5008070000000  0.5803120000000 1.0
C      1  0.4760250000000  0.5256320000000  0.5257570000000 1.0
C      1  0.4766460000000  0.5249900000000  0.4730460000000 1.0
C      1  0.5133760000000  0.4553080000000  0.4699550000000 1.0
C      1  0.5130390000000  0.4564830000000  0.5302580000000 1.0
C      1  0.4117630000000  0.5626630000000  0.5143240000000 1.0
C      1  0.4118810000000  0.5628060000000  0.4846540000000 1.0
C      1  0.5228860000000  0.5002420000000  0.4258400000000 1.0
C      1  0.5221500000000  0.5080240000000  0.5720200000000 1.0
C      1  0.5002240000000  0.5149460000000  0.6148450000000 1.0
C      1  0.5120740000000  0.5125010000000  0.3987720000000 1.0
C      1  0.4710380000000  0.4767940000000  0.4837860000000 1.0
C      1  0.4707380000000  0.4771620000000  0.5152930000000 1.0
C      1  0.4203840000000  0.4830890000000  0.4643980000000 1.0
C      1  0.4198620000000  0.4833580000000  0.5337320000000 1.0
C      1  0.5330590000000  0.5257980000000  0.4390970000000 1.0
C      1  0.5360000000000  0.5252580000000  0.5529960000000 1.0
C      1  0.4452320000000  0.5445060000000  0.4335060000000 1.0
C      1  0.4441070000000  0.5448900000000  0.5653630000000 1.0
C      1  0.4530280000000  0.5247330000000  0.5120590000000 1.0
C      1  0.4535210000000  0.5240560000000  0.4865100000000 1.0
C      1  0.3950860000000  0.5206570000000  0.5136800000000 1.0
C      1  0.3953800000000  0.5207400000000  0.4842590000000 1.0
C      1  0.4584280000000  0.5679850000000  0.5550350000000 1.0
C      1  0.4577920000000  0.5685350000000  0.4445840000000 1.0
C      1  0.4497240000000  0.4856980000000  0.4294130000000 1.0
C      1  0.4482200000000  0.4859860000000  0.5689540000000 1.0
C      1  0.5322820000000  0.5727280000000  0.5232690000000 1.0
C      1  0.5322080000000  0.5734620000000  0.4758530000000 1.0
C      1  0.6031950000000  0.4526930000000  0.4872250000000 1.0
C      1  0.6029390000000  0.4532900000000  0.5155080000000 1.0
C      1  0.4929350000000  0.4224990000000  0.5493740000000 1.0
C      1  0.4936730000000  0.4203080000000  0.4521430000000 1.0
C      1  0.5163120000000  0.5356680000000  0.4153820000000 1.0
C      1  0.5101910000000  0.5273690000000  0.5911850000000 1.0
C      1  0.5267730000000  0.5244120000000  0.4689090000000 1.0
C      1  0.5287740000000  0.5236370000000  0.5250780000000 1.0
C      1  0.4335770000000  0.5826990000000  0.4854240000000 1.0
C      1  0.4337070000000  0.5823360000000  0.5144980000000 1.0
C      1  0.5412390000000  0.4786390000000  0.4220580000000 1.0
C      1  0.5397440000000  0.4844460000000  0.5776440000000 1.0
C      1  0.5262310000000  0.4599120000000  0.5746150000000 1.0
C      1  0.5271050000000  0.4547640000000  0.4260940000000 1.0
C      1  0.4900380000000  0.5436600000000  0.5792880000000 1.0
C      1  0.4911830000000  0.5456720000000  0.4219310000000 1.0
C      1  0.5424640000000  0.4362740000000  0.4412860000000 1.0
C      1  0.5415110000000  0.4399090000000  0.5611870000000 1.0
C      1  0.5607840000000  0.5260540000000  0.4489050000000 1.0
C      1  0.5637030000000  0.5283280000000  0.5518640000000 1.0
C      1  0.5179090000000  0.5482320000000  0.4821930000000 1.0
C      1  0.5178870000000  0.5476400000000  0.5147950000000 1.0
C      1  0.5857920000000  0.5242230000000  0.4862150000000 1.0
C      1  0.5867350000000  0.5249280000000  0.5139110000000 1.0
C      1  0.5647120000000  0.4802320000000  0.5651940000000 1.0
C      1  0.5655610000000  0.4766390000000  0.4362610000000 1.0
C      1  0.4825460000000  0.5786010000000  0.4847310000000 1.0
C      1  0.4827760000000  0.5784540000000  0.5152280000000 1.0
C      1  0.4913650000000  0.5513210000000  0.5278740000000 1.0
C      1  0.4910040000000  0.5517030000000  0.4711680000000 1.0
C      1  0.5118410000000  0.5911600000000  0.5140180000000 1.0
C      1  0.5116430000000  0.5914190000000  0.4855390000000 1.0
C      1  0.6092280000000  0.4817740000000  0.5151550000000 1.0
C      1  0.6090250000000  0.4813080000000  0.4863690000000 1.0
C      1  0.5020160000000  0.4651990000000  0.5593840000000 1.0
C      1  0.5021390000000  0.4619350000000  0.4401760000000 1.0
C      1  0.4418460000000  0.4639620000000  0.5293420000000 1.0
C      1  0.4420110000000  0.4634810000000  0.4692070000000 1.0
C      1  0.5317370000000  0.4748570000000  0.4840370000000 1.0
C      1  0.5313100000000  0.4753390000000  0.5153800000000 1.0
C      1  0.4858830000000  0.5627570000000  0.4431020000000 1.0
C      1  0.4868800000000  0.5608180000000  0.5571080000000 1.0
C      1  0.5722340000000  0.5441150000000  0.5285550000000 1.0
C      1  0.5701640000000  0.5423400000000  0.4713090000000 1.0
C      1  0.4230460000000  0.5293710000000  0.5536210000000 1.0
C      1  0.4237380000000  0.5292350000000  0.4446530000000 1.0
C      1  0.5874100000000  0.4980670000000  0.5262230000000 1.0
C      1  0.5867530000000  0.4970640000000  0.4748380000000 1.0
C      1  0.4795900000000  0.4436600000000  0.4404540000000 1.0
C      1  0.4795830000000  0.4463140000000  0.5598570000000 1.0
C      1  0.5650910000000  0.4240490000000  0.5161130000000 1.0
C      1  0.5653340000000  0.4233340000000  0.4876410000000 1.0
C      1  0.5771480000000  0.4468800000000  0.4746730000000 1.0
C      1  0.5767010000000  0.4481070000000  0.5282650000000 1.0
C      1  0.5375550000000  0.4153540000000  0.4865790000000 1.0
C      1  0.5373600000000  0.4159390000000  0.5167700000000 1.0
C      1  0.4953160000000  0.4938830000000  0.5604510000000 1.0
C      1  0.4959380000000  0.4909760000000  0.4379180000000 1.0
C      1  0.4067900000000  0.5395500000000  0.5310110000000 1.0
C      1  0.4073630000000  0.5397970000000  0.4673490000000 1.0
C      1  0.4026620000000  0.4926710000000  0.4840010000000 1.0
C      1  0.4024080000000  0.4926310000000  0.5138200000000 1.0
C      1  0.5766660000000  0.5027020000000  0.5529300000000 1.0
C      1  0.5748350000000  0.5005780000000  0.4485000000000 1.0
C      1  0.4884380000000  0.4520790000000  0.5147020000000 1.0
C      1  0.4885070000000  0.4517560000000  0.4852990000000 1.0
C      1  0.4776980000000  0.4258440000000  0.5267690000000 1.0
C      1  0.4776590000000  0.4252980000000  0.4736950000000 1.0
C      1  0.4807110000000  0.4991200000000  0.6099220000000 1.0
C      1  0.4885520000000  0.5021830000000  0.3910350000000 1.0
C      1  0.4541460000000  0.4173100000000  0.5151630000000 1.0
C      1  0.4539930000000  0.4168930000000  0.4851460000000 1.0
C      1  0.4568620000000  0.5828070000000  0.5305850000000 1.0
C      1  0.4564590000000  0.5832370000000  0.4693150000000 1.0
END
