TITL C-24496-3760-4 0.0699529462121194 125000 -793.089914949412 0 0 117 (C1) n - 1
REM
REM in /rds/project/t2_vol4/rds-t2-cs072/BORA/CARBON/from-Arr/AIRSS/Generating-Clusters/GAP-ML-2020/Higher-Symm/SD-CG/HFTN-CG
REM
REM
REM
REM
REM
REM ./C.cell (b20cbc046b6831c77cfcea5457e17084)
REM AIRSS Version 0.9.1 bugfix July 2018 build 013d7b7c2542+ Fri, 06 Jul 2018 19:26:36 +0100
REM compiler GCC version 9.3.0
REM options -cpp -mtune=generic -march=x86-64 -g -O0
REM seed 1264512595 -1541769892 -1995665922 810249194 1008940592 -1508777667 -197171846 1821354572 -928023497 -1885310472 -197877862 -1234512826 577828567 1615380207 1334223567 -1585457189 -1086554293 -993067073 1420912558 -332583318 254774544 -1663274384 -986196348 -978247978 976731568 973669141 1916762471 2132346615 -744875214 1803477293 -1999359277 1991949693 426257008
REM
CELL 1.54180   50.00000   50.00000   50.00000   90.00000   90.00000   90.00000
LATT -1
SFAC C  
C      1  0.4767880000000  0.4556550000000  0.5805540000000 1.0
C      1  0.5287610000000  0.4683990000000  0.5819750000000 1.0
C      1  0.5433090000000  0.5213260000000  0.5764850000000 1.0
C      1  0.4956510000000  0.5440300000000  0.5747920000000 1.0
C      1  0.4593920000000  0.5043380000000  0.5779260000000 1.0
C      1  0.5246990000000  0.4607110000000  0.4233210000000 1.0
C      1  0.4700380000000  0.4728220000000  0.4219500000000 1.0
C      1  0.4527590000000  0.5213050000000  0.4187450000000 1.0
C      1  0.5017870000000  0.5342570000000  0.4207240000000 1.0
C      1  0.5481660000000  0.5069320000000  0.4236250000000 1.0
C      1  0.6025390000000  0.4879370000000  0.4947690000000 1.0
C      1  0.5480340000000  0.5841820000000  0.5058620000000 1.0
C      1  0.4327040000000  0.5679890000000  0.4964760000000 1.0
C      1  0.4120670000000  0.4598970000000  0.4958080000000 1.0
C      1  0.5132770000000  0.4003950000000  0.4980330000000 1.0
C      1  0.3949920000000  0.4862970000000  0.5000990000000 1.0
C      1  0.4512110000000  0.5909180000000  0.5037200000000 1.0
C      1  0.5737780000000  0.5700760000000  0.5038740000000 1.0
C      1  0.5915020000000  0.4600160000000  0.4951430000000 1.0
C      1  0.4845970000000  0.4090660000000  0.5029820000000 1.0
C      1  0.4368950000000  0.4583200000000  0.4507840000000 1.0
C      1  0.5106860000000  0.4265890000000  0.4501230000000 1.0
C      1  0.5835430000000  0.4970270000000  0.4519040000000 1.0
C      1  0.5169700000000  0.5670730000000  0.4470530000000 1.0
C      1  0.4402420000000  0.5534970000000  0.4476150000000 1.0
C      1  0.5624370000000  0.4548960000000  0.5568490000000 1.0
C      1  0.4794660000000  0.4227760000000  0.5514740000000 1.0
C      1  0.4243460000000  0.4960240000000  0.5483520000000 1.0
C      1  0.4630900000000  0.5659100000000  0.5514420000000 1.0
C      1  0.5632700000000  0.5484580000000  0.5452150000000 1.0
C      1  0.5987390000000  0.5315850000000  0.5131350000000 1.0
C      1  0.5003630000000  0.5787000000000  0.5159810000000 1.0
C      1  0.4210940000000  0.5270660000000  0.5128440000000 1.0
C      1  0.4478770000000  0.4370360000000  0.5156310000000 1.0
C      1  0.5425320000000  0.4317550000000  0.5164960000000 1.0
C      1  0.4187600000000  0.5241560000000  0.4829660000000 1.0
C      1  0.4928060000000  0.5825300000000  0.4862000000000 1.0
C      1  0.5982020000000  0.5335510000000  0.4845660000000 1.0
C      1  0.5480280000000  0.4379470000000  0.4861980000000 1.0
C      1  0.4511550000000  0.4349300000000  0.4857700000000 1.0
C      1  0.5067140000000  0.4768560000000  0.5231610000000 1.0
C      1  0.5458260000000  0.5111750000000  0.5173060000000 1.0
C      1  0.5010540000000  0.5244140000000  0.5134070000000 1.0
C      1  0.4725490000000  0.5112090000000  0.5145170000000 1.0
C      1  0.4785930000000  0.4816380000000  0.5164250000000 1.0
C      1  0.4836300000000  0.4794720000000  0.4850890000000 1.0
C      1  0.4671840000000  0.5053210000000  0.4852600000000 1.0
C      1  0.4926600000000  0.5235300000000  0.4841580000000 1.0
C      1  0.5468740000000  0.5152460000000  0.4884940000000 1.0
C      1  0.5327310000000  0.4924040000000  0.4794030000000 1.0
C      1  0.5826880000000  0.5531230000000  0.5249210000000 1.0
C      1  0.4702690000000  0.5753890000000  0.5243720000000 1.0
C      1  0.4143380000000  0.4998180000000  0.5216650000000 1.0
C      1  0.4676510000000  0.4173560000000  0.5260270000000 1.0
C      1  0.5623600000000  0.4462700000000  0.5301860000000 1.0
C      1  0.4255900000000  0.5514300000000  0.4725850000000 1.0
C      1  0.5166090000000  0.5780920000000  0.4722950000000 1.0
C      1  0.6003250000000  0.5063600000000  0.4731420000000 1.0
C      1  0.5210600000000  0.4239700000000  0.4774140000000 1.0
C      1  0.4276500000000  0.4463090000000  0.4739190000000 1.0
C      1  0.4703620000000  0.5514630000000  0.4507940000000 1.0
C      1  0.4372500000000  0.4868770000000  0.4512580000000 1.0
C      1  0.4864370000000  0.4446820000000  0.4497780000000 1.0
C      1  0.5637730000000  0.4745650000000  0.4534330000000 1.0
C      1  0.5376840000000  0.5476850000000  0.4455400000000 1.0
C      1  0.5334660000000  0.5522930000000  0.5439030000000 1.0
C      1  0.5637400000000  0.4836790000000  0.5562910000000 1.0
C      1  0.5041160000000  0.4383740000000  0.5494360000000 1.0
C      1  0.4417570000000  0.4735980000000  0.5503590000000 1.0
C      1  0.4540480000000  0.5370680000000  0.5500180000000 1.0
C      1  0.5797770000000  0.4380860000000  0.4834510000000 1.0
C      1  0.5780150000000  0.5534350000000  0.4796900000000 1.0
C      1  0.4695290000000  0.6014970000000  0.4866940000000 1.0
C      1  0.3924830000000  0.5068290000000  0.4826750000000 1.0
C      1  0.4659870000000  0.4113510000000  0.4815740000000 1.0
C      1  0.4188350000000  0.4416370000000  0.5160790000000 1.0
C      1  0.4184980000000  0.5546170000000  0.5170560000000 1.0
C      1  0.5275300000000  0.5949360000000  0.5193570000000 1.0
C      1  0.5967240000000  0.5038880000000  0.5189870000000 1.0
C      1  0.5325300000000  0.4030390000000  0.5166100000000 1.0
C      1  0.4764460000000  0.5241520000000  0.5678710000000 1.0
C      1  0.4585920000000  0.4763210000000  0.5737290000000 1.0
C      1  0.5050810000000  0.4553790000000  0.5729710000000 1.0
C      1  0.5441820000000  0.4930100000000  0.5749500000000 1.0
C      1  0.5233750000000  0.5412910000000  0.5681870000000 1.0
C      1  0.5296810000000  0.5286430000000  0.4254960000000 1.0
C      1  0.5460600000000  0.4785110000000  0.4303520000000 1.0
C      1  0.4965200000000  0.4653680000000  0.4283680000000 1.0
C      1  0.4523950000000  0.4946840000000  0.4282530000000 1.0
C      1  0.4771810000000  0.5260120000000  0.4322180000000 1.0
C      1  0.5137430000000  0.4474370000000  0.5217870000000 1.0
C      1  0.5696690000000  0.4938890000000  0.5285810000000 1.0
C      1  0.5156850000000  0.5519790000000  0.5174890000000 1.0
C      1  0.4517120000000  0.5309940000000  0.5212750000000 1.0
C      1  0.4522240000000  0.4676110000000  0.5230570000000 1.0
C      1  0.4803680000000  0.4507200000000  0.4784310000000 1.0
C      1  0.4386650000000  0.5001220000000  0.4789550000000 1.0
C      1  0.4792780000000  0.5516090000000  0.4801280000000 1.0
C      1  0.5501240000000  0.5430850000000  0.4736300000000 1.0
C      1  0.5496150000000  0.4684570000000  0.4822230000000 1.0
C      1  0.4334240000000  0.5407480000000  0.4239110000000 1.0
C      1  0.4596620000000  0.4495880000000  0.4371170000000 1.0
C      1  0.5272590000000  0.4320020000000  0.4281200000000 1.0
C      1  0.5721480000000  0.5155640000000  0.4357740000000 1.0
C      1  0.4936080000000  0.5598640000000  0.4335580000000 1.0
C      1  0.5673090000000  0.5297600000000  0.5645930000000 1.0
C      1  0.5493380000000  0.4470890000000  0.5796890000000 1.0
C      1  0.4669320000000  0.4293020000000  0.5755670000000 1.0
C      1  0.4362500000000  0.5170100000000  0.5626770000000 1.0
C      1  0.4803730000000  0.5687920000000  0.5733130000000 1.0
C      1  0.5675690000000  0.4686500000000  0.5119030000000 1.0
C      1  0.4605310000000  0.5538390000000  0.5045420000000 1.0
C      1  0.5328320000000  0.5618280000000  0.4908670000000 1.0
C      1  0.4322980000000  0.4826020000000  0.5040590000000 1.0
C      1  0.5001830000000  0.4364440000000  0.4957860000000 1.0
C      1  0.5191950000000  0.5028010000000  0.5238100000000 1.0
C      1  0.5057850000000  0.4965500000000  0.4739390000000 1.0
END
