TITL C-24414-2518-3 -0.00705059445634705 125000 -69.3669447390365 0 0 11 (C2v) n - 1
REM
REM in /rds/project/t2_vol4/rds-t2-cs072/BORA/CARBON/from-Arr/AIRSS/Generating-Clusters/GAP-ML-2020/Higher-Symm/SD-CG/HFTN-CG
REM
REM
REM
REM
REM
REM ./C.cell (b20cbc046b6831c77cfcea5457e17084)
REM AIRSS Version 0.9.1 bugfix July 2018 build 013d7b7c2542+ Fri, 06 Jul 2018 19:26:36 +0100
REM compiler GCC version 9.3.0
REM options -cpp -mtune=generic -march=x86-64 -g -O0
REM seed 274297817 827674540 1615613278 -1887865284 1465064610 -517832696 -442203168 -854625760 535867011 -1831790435 721560359 2140067263 66043182 1855771635 -1665182123 -2079666698 -1965967682 -1620959456 -665174168 -1576461705 -383125795 691853835 1148428129 543091901 -2146110169 -113352192 -537186506 104929366 -1705889208 1224687992 618052641 -1266838676 -124003994
REM
CELL 1.54180   50.00000   50.00000   50.00000   90.00000   90.00000   90.00000
LATT -1
SFAC C  
C      1  0.4752340000000  0.4987160000000  0.5344690000000 1.0
C      1  0.5179550000000  0.4986850000000  0.5345120000000 1.0
C      1  0.5370390000000  0.4987270000000  0.5167340000000 1.0
C      1  0.4561720000000  0.4987860000000  0.5166680000000 1.0
C      1  0.5116400000000  0.4988870000000  0.4720300000000 1.0
C      1  0.4816660000000  0.4989090000000  0.4720290000000 1.0
C      1  0.5099700000000  0.4989780000000  0.4436540000000 1.0
C      1  0.4834730000000  0.4989970000000  0.4436740000000 1.0
C      1  0.5302750000000  0.4988130000000  0.4913160000000 1.0
C      1  0.4629930000000  0.4988610000000  0.4912620000000 1.0
C      1  0.4965790000000  0.4986500000000  0.5503060000000 1.0
END
