TITL C-24421-2511-5 23.7638329113496 125000 -474.703284616529 0 0 68 (C1) n - 1
REM
REM in /rds/project/t2_vol4/rds-t2-cs072/BORA/CARBON/from-Arr/AIRSS/Generating-Clusters/GAP-ML-2020/Higher-Symm/SD-CG/HFTN-CG
REM
REM
REM
REM
REM
REM ./C.cell (b20cbc046b6831c77cfcea5457e17084)
REM AIRSS Version 0.9.1 bugfix July 2018 build 013d7b7c2542+ Fri, 06 Jul 2018 19:26:36 +0100
REM compiler GCC version 9.3.0
REM options -cpp -mtune=generic -march=x86-64 -g -O0
REM seed 1264398352 -2046529270 -1320579925 -285027899 -1153015925 -1252973516 -940695118 690961431 1958995710 449358282 -215212930 2132001583 -6240945 570102195 663853052 -458858151 1917987490 -1517400806 -810087976 -1546649160 1906995251 -1715995484 -1223096049 -1456501378 398936333 -333178787 611151716 1312010397 449123962 -76116532 -510693806 -2145971809 -1681824813
REM
CELL 1.54180   50.00000   50.00000   50.00000   90.00000   90.00000   90.00000
LATT -1
SFAC C  
C      1  0.4336410000000  0.4842990000000  0.4838480000000 1.0
C      1  0.4359670000000  0.5126590000000  0.4786950000000 1.0
C      1  0.4377140000000  0.5263610000000  0.5039470000000 1.0
C      1  0.4376770000000  0.5065690000000  0.5247390000000 1.0
C      1  0.4350260000000  0.4810000000000  0.5125390000000 1.0
C      1  0.4670450000000  0.5652220000000  0.4367570000000 1.0
C      1  0.4705500000000  0.5837610000000  0.5376550000000 1.0
C      1  0.4682220000000  0.4860860000000  0.5906420000000 1.0
C      1  0.4625540000000  0.4130910000000  0.5186970000000 1.0
C      1  0.4683360000000  0.4596060000000  0.4240570000000 1.0
C      1  0.4636080000000  0.5377810000000  0.5537330000000 1.0
C      1  0.4664390000000  0.4624710000000  0.5492590000000 1.0
C      1  0.4584070000000  0.4419770000000  0.4769460000000 1.0
C      1  0.4610900000000  0.5041950000000  0.4383430000000 1.0
C      1  0.4678540000000  0.5593590000000  0.4847860000000 1.0
C      1  0.4493210000000  0.5227240000000  0.4559670000000 1.0
C      1  0.4520920000000  0.5506270000000  0.5068820000000 1.0
C      1  0.4582430000000  0.5099680000000  0.5453870000000 1.0
C      1  0.4547330000000  0.4617250000000  0.5218360000000 1.0
C      1  0.4451030000000  0.4650170000000  0.4662680000000 1.0
C      1  0.5268620000000  0.5436890000000  0.5484340000000 1.0
C      1  0.5327070000000  0.4925980000000  0.5557650000000 1.0
C      1  0.5247490000000  0.4337980000000  0.4898800000000 1.0
C      1  0.5303240000000  0.4974530000000  0.4356490000000 1.0
C      1  0.5331400000000  0.5509060000000  0.4566620000000 1.0
C      1  0.4927290000000  0.5568400000000  0.4400290000000 1.0
C      1  0.4964200000000  0.5761350000000  0.5352800000000 1.0
C      1  0.4930860000000  0.4930640000000  0.5816310000000 1.0
C      1  0.4887280000000  0.4207620000000  0.5161790000000 1.0
C      1  0.4953550000000  0.4622410000000  0.4300560000000 1.0
C      1  0.4544630000000  0.4367420000000  0.5059240000000 1.0
C      1  0.4546650000000  0.4760350000000  0.4412720000000 1.0
C      1  0.4594550000000  0.5497130000000  0.4586850000000 1.0
C      1  0.4586080000000  0.5584310000000  0.5340090000000 1.0
C      1  0.4597970000000  0.4858980000000  0.5643190000000 1.0
C      1  0.5026250000000  0.5314290000000  0.4335660000000 1.0
C      1  0.5089870000000  0.5669510000000  0.5109310000000 1.0
C      1  0.5023170000000  0.5198300000000  0.5791580000000 1.0
C      1  0.5058480000000  0.4379300000000  0.5324940000000 1.0
C      1  0.5045010000000  0.4478360000000  0.4523470000000 1.0
C      1  0.4867460000000  0.5010890000000  0.5288970000000 1.0
C      1  0.4819680000000  0.4784850000000  0.5105320000000 1.0
C      1  0.4885150000000  0.4861840000000  0.4850610000000 1.0
C      1  0.5028660000000  0.5095230000000  0.4860870000000 1.0
C      1  0.5017500000000  0.5188530000000  0.5131540000000 1.0
C      1  0.5437830000000  0.5264260000000  0.5025310000000 1.0
C      1  0.5475810000000  0.4892070000000  0.5317130000000 1.0
C      1  0.5418940000000  0.4698770000000  0.5113360000000 1.0
C      1  0.5398070000000  0.4776220000000  0.4828350000000 1.0
C      1  0.5328420000000  0.5085150000000  0.4789220000000 1.0
C      1  0.4868600000000  0.5095870000000  0.4270900000000 1.0
C      1  0.4952180000000  0.5688410000000  0.4861560000000 1.0
C      1  0.4870170000000  0.5424740000000  0.5697200000000 1.0
C      1  0.4951410000000  0.4554630000000  0.5520250000000 1.0
C      1  0.4845330000000  0.4323570000000  0.4680000000000 1.0
C      1  0.5065360000000  0.4881910000000  0.4249860000000 1.0
C      1  0.5100600000000  0.5655690000000  0.4616040000000 1.0
C      1  0.5063490000000  0.5606020000000  0.5577060000000 1.0
C      1  0.5106850000000  0.4759900000000  0.5653870000000 1.0
C      1  0.4998890000000  0.4204690000000  0.4891710000000 1.0
C      1  0.5275080000000  0.4536100000000  0.4694650000000 1.0
C      1  0.5299940000000  0.5226010000000  0.4502210000000 1.0
C      1  0.5232000000000  0.5414500000000  0.5182580000000 1.0
C      1  0.5265840000000  0.5194950000000  0.5645520000000 1.0
C      1  0.5289390000000  0.4444310000000  0.5157260000000 1.0
C      1  0.5820040000000  0.5039780000000  0.5030170000000 1.0
C      1  0.5958950000000  0.4927070000000  0.4856690000000 1.0
C      1  0.5612110000000  0.5110970000000  0.5182640000000 1.0
END
