TITL C-24391-2634-1 -0.202989115065275 125000 -913.428830082482 0 0 132 (C3h) n - 1
REM
REM in /rds/project/t2_vol4/rds-t2-cs072/BORA/CARBON/from-Arr/AIRSS/Generating-Clusters/GAP-ML-2020/Higher-Symm/SD-CG/HFTN-CG
REM
REM
REM
REM
REM
REM ./C.cell (b20cbc046b6831c77cfcea5457e17084)
REM AIRSS Version 0.9.1 bugfix July 2018 build 013d7b7c2542+ Fri, 06 Jul 2018 19:26:36 +0100
REM compiler GCC version 9.3.0
REM options -cpp -mtune=generic -march=x86-64 -g -O0
REM seed -1771881985 897783851 -1797258332 1670454142 -2060879586 -948257507 407383357 -884921202 1813742587 -1414106114 1697974792 -1437038889 -1915579080 -1840651892 -2023593308 554324884 -2050195337 -40746143 1521439822 557869744 -372596817 2101518844 -1011791412 1415501724 -1811780833 467747040 1304725983 725364769 2070679631 -1327533663 941491541 1609465321 1035379011
REM
CELL 1.54180   50.00000   50.00000   50.00000   90.00000   90.00000   90.00000
LATT -1
SFAC C  
C      1  0.4483110000000  0.5464110000000  0.5321160000000 1.0
C      1  0.4980340000000  0.5464240000000  0.4391880000000 1.0
C      1  0.5536500000000  0.5464150000000  0.5287130000000 1.0
C      1  0.4483140000000  0.4535770000000  0.5321050000000 1.0
C      1  0.4980370000000  0.4535910000000  0.4391770000000 1.0
C      1  0.5536540000000  0.4535820000000  0.5287020000000 1.0
C      1  0.4865440000000  0.5258180000000  0.5877480000000 1.0
C      1  0.4307380000000  0.5258330000000  0.4444780000000 1.0
C      1  0.5827150000000  0.5258360000000  0.4677830000000 1.0
C      1  0.4865460000000  0.4741600000000  0.5877410000000 1.0
C      1  0.4307400000000  0.4741750000000  0.4444720000000 1.0
C      1  0.5827180000000  0.4741780000000  0.4677770000000 1.0
C      1  0.4841470000000  0.5153570000000  0.5334340000000 1.0
C      1  0.4789720000000  0.5153650000000  0.4695570000000 1.0
C      1  0.5368790000000  0.5153640000000  0.4970140000000 1.0
C      1  0.4841480000000  0.4846330000000  0.5334310000000 1.0
C      1  0.4789740000000  0.4846410000000  0.4695530000000 1.0
C      1  0.5368800000000  0.4846400000000  0.4970110000000 1.0
C      1  0.4726500000000  0.4259500000000  0.5427070000000 1.0
C      1  0.4766860000000  0.4259610000000  0.4549440000000 1.0
C      1  0.5506730000000  0.4259580000000  0.5023210000000 1.0
C      1  0.4726440000000  0.5740370000000  0.5427250000000 1.0
C      1  0.4766800000000  0.5740480000000  0.4549620000000 1.0
C      1  0.5506670000000  0.5740450000000  0.5023390000000 1.0
C      1  0.4646380000000  0.4723270000000  0.5152860000000 1.0
C      1  0.5044410000000  0.4723350000000  0.4617260000000 1.0
C      1  0.5309240000000  0.4723290000000  0.5229770000000 1.0
C      1  0.4646350000000  0.5276660000000  0.5152930000000 1.0
C      1  0.5044390000000  0.5276750000000  0.4617330000000 1.0
C      1  0.5309220000000  0.5276680000000  0.5229840000000 1.0
C      1  0.4989150000000  0.4345260000000  0.5331060000000 1.0
C      1  0.4718690000000  0.4345310000000  0.4824930000000 1.0
C      1  0.5292240000000  0.4345340000000  0.4843770000000 1.0
C      1  0.4989090000000  0.5654660000000  0.5331220000000 1.0
C      1  0.4718640000000  0.5654710000000  0.4825080000000 1.0
C      1  0.5292190000000  0.5654730000000  0.4843930000000 1.0
C      1  0.5521790000000  0.4430190000000  0.4469170000000 1.0
C      1  0.5198800000000  0.4430030000000  0.5717180000000 1.0
C      1  0.4279490000000  0.4430100000000  0.4813450000000 1.0
C      1  0.5521740000000  0.5569980000000  0.4469300000000 1.0
C      1  0.5198750000000  0.5569820000000  0.5717310000000 1.0
C      1  0.4279440000000  0.5569890000000  0.4813590000000 1.0
C      1  0.5230490000000  0.4650110000000  0.4809190000000 1.0
C      1  0.5049980000000  0.4650050000000  0.5294940000000 1.0
C      1  0.4719570000000  0.4650080000000  0.4895740000000 1.0
C      1  0.5230460000000  0.5349950000000  0.4809280000000 1.0
C      1  0.5049960000000  0.5349890000000  0.5295020000000 1.0
C      1  0.4719540000000  0.5349920000000  0.4895830000000 1.0
C      1  0.5687850000000  0.5147980000000  0.4963640000000 1.0
C      1  0.4687570000000  0.5147860000000  0.5613910000000 1.0
C      1  0.4624560000000  0.5148000000000  0.4422510000000 1.0
C      1  0.5687860000000  0.4852080000000  0.4963600000000 1.0
C      1  0.4687580000000  0.4851970000000  0.5613870000000 1.0
C      1  0.4624570000000  0.4852110000000  0.4422470000000 1.0
C      1  0.6047760000000  0.5379810000000  0.5144330000000 1.0
C      1  0.4351140000000  0.5379660000000  0.5835310000000 1.0
C      1  0.4601040000000  0.5379890000000  0.4020500000000 1.0
C      1  0.6047800000000  0.4620240000000  0.5144230000000 1.0
C      1  0.4351180000000  0.4620090000000  0.5835220000000 1.0
C      1  0.4601080000000  0.4620320000000  0.4020410000000 1.0
C      1  0.6010520000000  0.5624810000000  0.5027930000000 1.0
C      1  0.4470580000000  0.5624650000000  0.5861310000000 1.0
C      1  0.4518820000000  0.5624860000000  0.4110990000000 1.0
C      1  0.6010570000000  0.4375260000000  0.5027780000000 1.0
C      1  0.4470630000000  0.4375100000000  0.5861160000000 1.0
C      1  0.4518880000000  0.4375310000000  0.4110840000000 1.0
C      1  0.4503130000000  0.5734420000000  0.5241550000000 1.0
C      1  0.5039270000000  0.5734530000000  0.4449080000000 1.0
C      1  0.5457500000000  0.5734450000000  0.5309630000000 1.0
C      1  0.4503190000000  0.4265490000000  0.5241380000000 1.0
C      1  0.5039330000000  0.4265600000000  0.4448910000000 1.0
C      1  0.5457560000000  0.4265520000000  0.5309450000000 1.0
C      1  0.5334430000000  0.4691070000000  0.5790650000000 1.0
C      1  0.4148050000000  0.4691130000000  0.4894230000000 1.0
C      1  0.5517560000000  0.4691260000000  0.4315000000000 1.0
C      1  0.5334410000000  0.5308760000000  0.5790730000000 1.0
C      1  0.4148020000000  0.5308820000000  0.4894310000000 1.0
C      1  0.5517530000000  0.5308950000000  0.4315080000000 1.0
C      1  0.5736490000000  0.5540360000000  0.4655810000000 1.0
C      1  0.4929860000000  0.5540180000000  0.5810030000000 1.0
C      1  0.4333590000000  0.5540310000000  0.4534360000000 1.0
C      1  0.5736530000000  0.4459790000000  0.4655680000000 1.0
C      1  0.4929900000000  0.4459610000000  0.5809900000000 1.0
C      1  0.4333630000000  0.4459740000000  0.4534230000000 1.0
C      1  0.5335330000000  0.5146290000000  0.4169160000000 1.0
C      1  0.5551870000000  0.5146110000000  0.5705860000000 1.0
C      1  0.4112780000000  0.5146120000000  0.5125040000000 1.0
C      1  0.5335340000000  0.4853940000000  0.4169120000000 1.0
C      1  0.5551880000000  0.4853760000000  0.5705820000000 1.0
C      1  0.4112790000000  0.4853780000000  0.5125000000000 1.0
C      1  0.4531750000000  0.4310410000000  0.4384600000000 1.0
C      1  0.5767040000000  0.4310400000000  0.4902030000000 1.0
C      1  0.4701290000000  0.4310260000000  0.5713110000000 1.0
C      1  0.4531700000000  0.5689700000000  0.4384770000000 1.0
C      1  0.5766990000000  0.5689690000000  0.4902200000000 1.0
C      1  0.4701230000000  0.5689540000000  0.5713280000000 1.0
C      1  0.4407430000000  0.4855390000000  0.5998130000000 1.0
C      1  0.4431870000000  0.4855630000000  0.3987720000000 1.0
C      1  0.6160720000000  0.4855580000000  0.5014090000000 1.0
C      1  0.4407420000000  0.5144320000000  0.5998170000000 1.0
C      1  0.4431860000000  0.5144570000000  0.3987760000000 1.0
C      1  0.6160700000000  0.5144510000000  0.5014130000000 1.0
C      1  0.5296550000000  0.5737860000000  0.4564100000000 1.0
C      1  0.5229260000000  0.5737750000000  0.5474930000000 1.0
C      1  0.4474100000000  0.5737780000000  0.4961230000000 1.0
C      1  0.5296610000000  0.4262270000000  0.4563920000000 1.0
C      1  0.5229320000000  0.4262160000000  0.5474750000000 1.0
C      1  0.4474160000000  0.4262190000000  0.4961060000000 1.0
C      1  0.4816630000000  0.4705100000000  0.4207310000000 1.0
C      1  0.5778160000000  0.4705010000000  0.5237480000000 1.0
C      1  0.4405250000000  0.4704920000000  0.5555110000000 1.0
C      1  0.4816600000000  0.5295080000000  0.4207380000000 1.0
C      1  0.5778140000000  0.5295000000000  0.5237550000000 1.0
C      1  0.4405220000000  0.5294900000000  0.5555180000000 1.0
C      1  0.5707490000000  0.4860390000000  0.4437880000000 1.0
C      1  0.5133060000000  0.4860190000000  0.5893740000000 1.0
C      1  0.4159470000000  0.4860300000000  0.4668330000000 1.0
C      1  0.5707480000000  0.5139810000000  0.4437910000000 1.0
C      1  0.5133050000000  0.5139610000000  0.5893770000000 1.0
C      1  0.4159460000000  0.5139720000000  0.4668370000000 1.0
C      1  0.4687370000000  0.4856570000000  0.6081600000000 1.0
C      1  0.4219620000000  0.4856780000000  0.4188420000000 1.0
C      1  0.6093030000000  0.4856790000000  0.4729930000000 1.0
C      1  0.4687360000000  0.5143140000000  0.6081630000000 1.0
C      1  0.4219610000000  0.5143350000000  0.4188460000000 1.0
C      1  0.6093020000000  0.5143360000000  0.4729960000000 1.0
C      1  0.4197320000000  0.5143100000000  0.5409270000000 1.0
C      1  0.5046910000000  0.5143300000000  0.4100250000000 1.0
C      1  0.5755760000000  0.5143160000000  0.5490530000000 1.0
C      1  0.4197330000000  0.4856730000000  0.5409240000000 1.0
C      1  0.5046920000000  0.4856930000000  0.4100220000000 1.0
C      1  0.5755770000000  0.4856790000000  0.5490490000000 1.0
END
