TITL C-246653-6447-1 -6.30053729804432 125000 -728.528252610059 0 0 104 (C1) n - 1
REM
REM in /rds/project/t2_vol4/rds-t2-cs072/BORA/CARBON/from-Arr/AIRSS/Generating-Clusters/GAP-ML-2020/Higher-Symm/SD-CG/HFTN-CG
REM
REM
REM
REM
REM
REM ./C.cell (b20cbc046b6831c77cfcea5457e17084)
REM AIRSS Version 0.9.1 bugfix July 2018 build 013d7b7c2542+ Fri, 06 Jul 2018 19:26:36 +0100
REM compiler GCC version 9.3.0
REM options -cpp -mtune=generic -march=x86-64 -g -O0
REM seed 2063577229 -379239834 -1049516521 777884949 1005121827 -815537139 1270205101 1048236549 -357066232 -1332298333 429343547 2012343759 1686547331 -21087407 1730345294 -1942997294 1186757915 2020724258 -634740001 319805774 -1646341301 -1074147041 2030749566 692708996 -1319899360 2116670433 1877124830 -607507263 797865185 153003710 -349286997 -1658484794 -257969549
REM
CELL 1.54180   50.00000   50.00000   50.00000   90.00000   90.00000   90.00000
LATT -1
SFAC C  
C      1  0.5287990000000  0.4699650000000  0.5156880000000 1.0
C      1  0.5252410000000  0.4711060000000  0.4838540000000 1.0
C      1  0.4940510000000  0.4704640000000  0.4761800000000 1.0
C      1  0.4563970000000  0.4708430000000  0.5081330000000 1.0
C      1  0.5004010000000  0.4663700000000  0.5273680000000 1.0
C      1  0.5374000000000  0.4473260000000  0.4413310000000 1.0
C      1  0.4531740000000  0.4499730000000  0.4493130000000 1.0
C      1  0.4268610000000  0.4508740000000  0.5340930000000 1.0
C      1  0.5125940000000  0.4416950000000  0.5689600000000 1.0
C      1  0.5757200000000  0.4489560000000  0.5158800000000 1.0
C      1  0.5844860000000  0.4760470000000  0.5116490000000 1.0
C      1  0.5365980000000  0.4746630000000  0.4314460000000 1.0
C      1  0.4422980000000  0.4760090000000  0.4457050000000 1.0
C      1  0.4177130000000  0.4770300000000  0.5422500000000 1.0
C      1  0.5145570000000  0.4692750000000  0.5794130000000 1.0
C      1  0.4353470000000  0.4367120000000  0.4664200000000 1.0
C      1  0.4438510000000  0.4352510000000  0.5499680000000 1.0
C      1  0.5368970000000  0.4294670000000  0.5707460000000 1.0
C      1  0.5819750000000  0.4338240000000  0.4938290000000 1.0
C      1  0.5205510000000  0.4326280000000  0.4246960000000 1.0
C      1  0.5705520000000  0.4950280000000  0.5269160000000 1.0
C      1  0.5456770000000  0.4957010000000  0.4474000000000 1.0
C      1  0.4629970000000  0.4941920000000  0.4405200000000 1.0
C      1  0.4212660000000  0.4974890000000  0.5221790000000 1.0
C      1  0.4939130000000  0.4881200000000  0.5736190000000 1.0
C      1  0.5088060000000  0.4173510000000  0.5237740000000 1.0
C      1  0.5360940000000  0.4229170000000  0.5172540000000 1.0
C      1  0.5299620000000  0.4231860000000  0.4888110000000 1.0
C      1  0.4779050000000  0.4224980000000  0.4800920000000 1.0
C      1  0.4502910000000  0.4265230000000  0.4880680000000 1.0
C      1  0.5722790000000  0.4523170000000  0.4751210000000 1.0
C      1  0.4990740000000  0.4501560000000  0.4286230000000 1.0
C      1  0.4196770000000  0.4572280000000  0.4803960000000 1.0
C      1  0.4685150000000  0.4316210000000  0.5533000000000 1.0
C      1  0.5500940000000  0.4508210000000  0.5584480000000 1.0
C      1  0.4279690000000  0.5331750000000  0.4552560000000 1.0
C      1  0.4308370000000  0.5394340000000  0.5590050000000 1.0
C      1  0.5325200000000  0.5274270000000  0.5799750000000 1.0
C      1  0.5875050000000  0.5316440000000  0.4922990000000 1.0
C      1  0.5211000000000  0.5311770000000  0.4130060000000 1.0
C      1  0.4337610000000  0.5126220000000  0.5717650000000 1.0
C      1  0.5496360000000  0.5038110000000  0.5765810000000 1.0
C      1  0.5897530000000  0.5069240000000  0.4762460000000 1.0
C      1  0.5068810000000  0.5052400000000  0.4098000000000 1.0
C      1  0.4156920000000  0.5098830000000  0.4681510000000 1.0
C      1  0.4858140000000  0.5140290000000  0.5856730000000 1.0
C      1  0.5796660000000  0.5196730000000  0.5375590000000 1.0
C      1  0.5592880000000  0.5190330000000  0.4375530000000 1.0
C      1  0.4607190000000  0.5175720000000  0.4241680000000 1.0
C      1  0.4118620000000  0.5244020000000  0.5183200000000 1.0
C      1  0.4544600000000  0.5487470000000  0.5720010000000 1.0
C      1  0.5505990000000  0.5449330000000  0.5649690000000 1.0
C      1  0.5796000000000  0.5477560000000  0.4692080000000 1.0
C      1  0.4968280000000  0.5470600000000  0.4111110000000 1.0
C      1  0.4245550000000  0.5500240000000  0.4782970000000 1.0
C      1  0.5678960000000  0.5226360000000  0.5625070000000 1.0
C      1  0.5810830000000  0.5240840000000  0.4536730000000 1.0
C      1  0.4826840000000  0.5219950000000  0.4083390000000 1.0
C      1  0.4106070000000  0.5281670000000  0.4907380000000 1.0
C      1  0.4596580000000  0.5228510000000  0.5833420000000 1.0
C      1  0.4447590000000  0.5661350000000  0.4898520000000 1.0
C      1  0.4731880000000  0.5643360000000  0.5590000000000 1.0
C      1  0.5443890000000  0.5636890000000  0.5442220000000 1.0
C      1  0.5573800000000  0.5655740000000  0.4693980000000 1.0
C      1  0.4903500000000  0.5647930000000  0.4316700000000 1.0
C      1  0.4644530000000  0.5618610000000  0.4443890000000 1.0
C      1  0.4438210000000  0.5652120000000  0.5191010000000 1.0
C      1  0.5000990000000  0.5594630000000  0.5664180000000 1.0
C      1  0.5602020000000  0.5627770000000  0.5194220000000 1.0
C      1  0.5375510000000  0.5624660000000  0.4480910000000 1.0
C      1  0.4712790000000  0.5144070000000  0.5101850000000 1.0
C      1  0.4943640000000  0.5131150000000  0.5285430000000 1.0
C      1  0.5224750000000  0.5158420000000  0.5180940000000 1.0
C      1  0.5252370000000  0.5209070000000  0.4895600000000 1.0
C      1  0.4802540000000  0.5172400000000  0.4832970000000 1.0
C      1  0.5545820000000  0.5747310000000  0.4954330000000 1.0
C      1  0.5103560000000  0.5703170000000  0.4513690000000 1.0
C      1  0.4669890000000  0.5689930000000  0.4722090000000 1.0
C      1  0.4642450000000  0.5734870000000  0.5349980000000 1.0
C      1  0.5188330000000  0.5705470000000  0.5502930000000 1.0
C      1  0.5494890000000  0.4471900000000  0.5282330000000 1.0
C      1  0.5421710000000  0.4468660000000  0.4710190000000 1.0
C      1  0.4819710000000  0.4465730000000  0.4557240000000 1.0
C      1  0.4357290000000  0.4506630000000  0.5057330000000 1.0
C      1  0.4957840000000  0.4367060000000  0.5444170000000 1.0
C      1  0.4201920000000  0.4814220000000  0.4640230000000 1.0
C      1  0.4198700000000  0.4900700000000  0.5666980000000 1.0
C      1  0.5423170000000  0.4760370000000  0.5751760000000 1.0
C      1  0.5871440000000  0.4794640000000  0.4836360000000 1.0
C      1  0.5123490000000  0.4785790000000  0.4178810000000 1.0
C      1  0.4823920000000  0.4957260000000  0.4647890000000 1.0
C      1  0.4494750000000  0.4959280000000  0.5156950000000 1.0
C      1  0.4925540000000  0.4893350000000  0.5450150000000 1.0
C      1  0.5402920000000  0.4948290000000  0.5251710000000 1.0
C      1  0.5340380000000  0.4976250000000  0.4742490000000 1.0
C      1  0.5793020000000  0.5404050000000  0.5181290000000 1.0
C      1  0.5419010000000  0.5401970000000  0.4299780000000 1.0
C      1  0.4478260000000  0.5398370000000  0.4367230000000 1.0
C      1  0.4255820000000  0.5454070000000  0.5323060000000 1.0
C      1  0.5055030000000  0.5349620000000  0.5817230000000 1.0
C      1  0.5018790000000  0.4158440000000  0.4950730000000 1.0
C      1  0.4832070000000  0.4669730000000  0.5034510000000 1.0
C      1  0.5019800000000  0.5360660000000  0.4825590000000 1.0
C      1  0.4966990000000  0.5646740000000  0.4769310000000 1.0
END
