TITL C-25025-9969-1 59.3452068390417 125000 -1176.53991365743 0 0 169 (Cs) n - 1
REM
REM in /rds/project/t2_vol4/rds-t2-cs072/BORA/CARBON/from-Arr/AIRSS/Generating-Clusters/GAP-ML-2020/Higher-Symm/SD-CG/HFTN-CG
REM
REM
REM
REM
REM
REM ./C.cell (b20cbc046b6831c77cfcea5457e17084)
REM AIRSS Version 0.9.1 bugfix July 2018 build 013d7b7c2542+ Fri, 06 Jul 2018 19:26:36 +0100
REM compiler GCC version 9.3.0
REM options -cpp -mtune=generic -march=x86-64 -g -O0
REM seed -1446113692 -652452457 1864907243 -1621498194 -74247710 218375244 -1559000489 525313132 -2027361810 -844904585 434358187 354091767 1454806759 -1626067586 -1843169046 2017271818 1175019546 543221229 -1178160029 2109480189 -2076890803 1008471602 326355808 -45742271 205270563 300678998 -1381540697 1681615746 -264348115 -33126190 552802705 -1445102731 1231741594
REM
CELL 1.54180   50.00000   50.00000   50.00000   90.00000   90.00000   90.00000
LATT -1
SFAC C  
C      1  0.5859490000000  0.4659060000000  0.5443510000000 1.0
C      1  0.5859680000000  0.4659070000000  0.4553880000000 1.0
C      1  0.5058500000000  0.5917970000000  0.5508410000000 1.0
C      1  0.5058710000000  0.5917980000000  0.4488680000000 1.0
C      1  0.5694980000000  0.4865340000000  0.4126860000000 1.0
C      1  0.5694620000000  0.4865320000000  0.5870470000000 1.0
C      1  0.4707620000000  0.5384280000000  0.5236060000000 1.0
C      1  0.4707710000000  0.5384290000000  0.4760880000000 1.0
C      1  0.4192260000000  0.4495140000000  0.4412520000000 1.0
C      1  0.4192020000000  0.4495130000000  0.5584180000000 1.0
C      1  0.5153930000000  0.4929720000000  0.5708600000000 1.0
C      1  0.5154220000000  0.4929740000000  0.4288510000000 1.0
C      1  0.4939770000000  0.5533190000000  0.4863330000000 1.0
C      1  0.4939710000000  0.5533190000000  0.5133710000000 1.0
C      1  0.4311420000000  0.4297340000000  0.5143140000000 1.0
C      1  0.4311480000000  0.4297340000000  0.4853600000000 1.0
C      1  0.4623000000000  0.5692740000000  0.5763220000000 1.0
C      1  0.4623320000000  0.5692760000000  0.4233690000000 1.0
C      1  0.4304490000000  0.5040910000000  0.4298850000000 1.0
C      1  0.4304200000000  0.5040890000000  0.5697910000000 1.0
C      1  0.4204840000000  0.5861050000000  0.5125130000000 1.0
C      1  0.4204890000000  0.5861060000000  0.4871610000000 1.0
C      1  0.5995700000000  0.4439790000000  0.4862190000000 1.0
C      1  0.5995640000000  0.4439790000000  0.5135250000000 1.0
C      1  0.4022270000000  0.5181460000000  0.5298330000000 1.0
C      1  0.4022400000000  0.5181470000000  0.4698310000000 1.0
C      1  0.5172680000000  0.4099590000000  0.5257580000000 1.0
C      1  0.5172790000000  0.4099590000000  0.4739520000000 1.0
C      1  0.5496830000000  0.4503320000000  0.5150610000000 1.0
C      1  0.5496890000000  0.4503330000000  0.4846620000000 1.0
C      1  0.4843520000000  0.4542990000000  0.4259470000000 1.0
C      1  0.4843210000000  0.4542970000000  0.5737500000000 1.0
C      1  0.5701200000000  0.4865660000000  0.5576980000000 1.0
C      1  0.5701440000000  0.4865670000000  0.4420350000000 1.0
C      1  0.5764880000000  0.4397580000000  0.5315810000000 1.0
C      1  0.5765010000000  0.4397590000000  0.4681540000000 1.0
C      1  0.4165280000000  0.5347790000000  0.5134520000000 1.0
C      1  0.4165340000000  0.5347790000000  0.4862190000000 1.0
C      1  0.4578980000000  0.5834730000000  0.5514800000000 1.0
C      1  0.4579200000000  0.5834750000000  0.4482090000000 1.0
C      1  0.5666570000000  0.5506000000000  0.5303190000000 1.0
C      1  0.5666690000000  0.5506010000000  0.4694140000000 1.0
C      1  0.5386660000000  0.5636980000000  0.5764780000000 1.0
C      1  0.5386980000000  0.5637000000000  0.4232440000000 1.0
C      1  0.4459340000000  0.4775820000000  0.4751240000000 1.0
C      1  0.4459240000000  0.4775820000000  0.5245570000000 1.0
C      1  0.4705950000000  0.4599850000000  0.4845710000000 1.0
C      1  0.4705890000000  0.4599850000000  0.5151200000000 1.0
C      1  0.5531440000000  0.4647000000000  0.4023220000000 1.0
C      1  0.5531030000000  0.4646980000000  0.5974030000000 1.0
C      1  0.5429260000000  0.5452510000000  0.5140290000000 1.0
C      1  0.5429320000000  0.5452510000000  0.4856950000000 1.0
C      1  0.4238880000000  0.5503030000000  0.5586300000000 1.0
C      1  0.4239130000000  0.5503040000000  0.4410450000000 1.0
C      1  0.5893090000000  0.5396970000000  0.4859370000000 1.0
C      1  0.5893030000000  0.5396970000000  0.5138050000000 1.0
C      1  0.4137730000000  0.4457410000000  0.5311880000000 1.0
C      1  0.4137860000000  0.4457420000000  0.4684790000000 1.0
C      1  0.4224070000000  0.4747100000000  0.5760140000000 1.0
C      1  0.4224390000000  0.4747110000000  0.4236570000000 1.0
C      1  0.5377720000000  0.4867770000000  0.3909910000000 1.0
C      1  0.5377270000000  0.4867740000000  0.6087290000000 1.0
C      1  0.4682940000000  0.4667770000000  0.4038380000000 1.0
C      1  0.4682540000000  0.4667750000000  0.5958530000000 1.0
C      1  0.5582150000000  0.5795120000000  0.5340870000000 1.0
C      1  0.5582290000000  0.5795130000000  0.4656440000000 1.0
C      1  0.4436350000000  0.5491980000000  0.5155540000000 1.0
C      1  0.4436410000000  0.5491980000000  0.4841280000000 1.0
C      1  0.4592710000000  0.4313210000000  0.5261160000000 1.0
C      1  0.4592810000000  0.4313210000000  0.4735700000000 1.0
C      1  0.5463350000000  0.5327180000000  0.4217730000000 1.0
C      1  0.5463030000000  0.5327160000000  0.5779520000000 1.0
C      1  0.5100970000000  0.5682650000000  0.4312330000000 1.0
C      1  0.5100680000000  0.5682630000000  0.5684770000000 1.0
C      1  0.4694100000000  0.4068490000000  0.5135140000000 1.0
C      1  0.4694160000000  0.4068500000000  0.4861750000000 1.0
C      1  0.5819880000000  0.5110830000000  0.4520210000000 1.0
C      1  0.5819690000000  0.5110810000000  0.5477180000000 1.0
C      1  0.5667780000000  0.5333360000000  0.5548350000000 1.0
C      1  0.5668000000000  0.5333380000000  0.4448980000000 1.0
C      1  0.4349960000000  0.5707390000000  0.5358280000000 1.0
C      1  0.4350110000000  0.5707400000000  0.4638510000000 1.0
C      1  0.4784420000000  0.5308080000000  0.4491080000000 1.0
C      1  0.4784210000000  0.5308070000000  0.5505890000000 1.0
C      1  0.5184970000000  0.4426110000000  0.5154360000000 1.0
C      1  0.5185030000000  0.4426120000000  0.4842750000000 1.0
C      1  0.4674510000000  0.4313470000000  0.4409060000000 1.0
C      1  0.4674270000000  0.4313450000000  0.5587840000000 1.0
C      1  0.5428830000000  0.5950170000000  0.5143380000000 1.0
C      1  0.5428890000000  0.5950180000000  0.4853870000000 1.0
C      1  0.4807630000000  0.5105930000000  0.5153480000000 1.0
C      1  0.4807690000000  0.5105930000000  0.4843490000000 1.0
C      1  0.4730490000000  0.5160480000000  0.6006050000000 1.0
C      1  0.4730910000000  0.5160510000000  0.3990890000000 1.0
C      1  0.4875060000000  0.5616270000000  0.5865470000000 1.0
C      1  0.4875410000000  0.5616290000000  0.4131540000000 1.0
C      1  0.5171710000000  0.5396460000000  0.4745540000000 1.0
C      1  0.5171600000000  0.5396450000000  0.5251590000000 1.0
C      1  0.3985530000000  0.4945460000000  0.4854600000000 1.0
C      1  0.3985470000000  0.4945460000000  0.5142030000000 1.0
C      1  0.4420370000000  0.5490930000000  0.4195480000000 1.0
C      1  0.4420040000000  0.5490910000000  0.5801340000000 1.0
C      1  0.4411270000000  0.4372100000000  0.4272960000000 1.0
C      1  0.4410970000000  0.4372080000000  0.5723830000000 1.0
C      1  0.4489460000000  0.4926610000000  0.4519350000000 1.0
C      1  0.4489270000000  0.4926600000000  0.5477480000000 1.0
C      1  0.5487420000000  0.4803400000000  0.5134770000000 1.0
C      1  0.5487480000000  0.4803410000000  0.4862470000000 1.0
C      1  0.5440340000000  0.4038040000000  0.5149400000000 1.0
C      1  0.5440400000000  0.4038050000000  0.4847810000000 1.0
C      1  0.4133300000000  0.5240910000000  0.4442140000000 1.0
C      1  0.4133070000000  0.5240890000000  0.5554550000000 1.0
C      1  0.4903890000000  0.3981690000000  0.4702900000000 1.0
C      1  0.4903770000000  0.3981680000000  0.5294080000000 1.0
C      1  0.5164150000000  0.5235990000000  0.4237550000000 1.0
C      1  0.5163840000000  0.5235970000000  0.5759570000000 1.0
C      1  0.5072160000000  0.5403740000000  0.4461690000000 1.0
C      1  0.5071940000000  0.5403730000000  0.5535400000000 1.0
C      1  0.4420210000000  0.4599610000000  0.5911960000000 1.0
C      1  0.4420590000000  0.4599630000000  0.4084840000000 1.0
C      1  0.5527090000000  0.5809070000000  0.4387540000000 1.0
C      1  0.5526840000000  0.5809060000000  0.5609750000000 1.0
C      1  0.4826630000000  0.4892240000000  0.3949370000000 1.0
C      1  0.4826200000000  0.4892210000000  0.6047600000000 1.0
C      1  0.5010960000000  0.4649190000000  0.4723890000000 1.0
C      1  0.5010850000000  0.4649180000000  0.5273160000000 1.0
C      1  0.5541800000000  0.5089040000000  0.4027030000000 1.0
C      1  0.5541400000000  0.5089010000000  0.5970240000000 1.0
C      1  0.5113640000000  0.5124320000000  0.4848920000000 1.0
C      1  0.5113570000000  0.5124320000000  0.5148180000000 1.0
C      1  0.5184480000000  0.6024740000000  0.5267490000000 1.0
C      1  0.5184590000000  0.6024750000000  0.4729660000000 1.0
C      1  0.5961170000000  0.5142470000000  0.5232550000000 1.0
C      1  0.5961260000000  0.5142470000000  0.4764900000000 1.0
C      1  0.4795260000000  0.5977510000000  0.4598270000000 1.0
C      1  0.4795090000000  0.5977490000000  0.5398710000000 1.0
C      1  0.5167330000000  0.4118650000000  0.5560690000000 1.0
C      1  0.5167560000000  0.4118660000000  0.4436400000000 1.0
C      1  0.4163310000000  0.4705050000000  0.5152520000000 1.0
C      1  0.4163380000000  0.4705060000000  0.4844170000000 1.0
C      1  0.5372130000000  0.4430660000000  0.5853660000000 1.0
C      1  0.5372480000000  0.4430680000000  0.4143530000000 1.0
C      1  0.4934210000000  0.5348410000000  0.5950670000000 1.0
C      1  0.4934600000000  0.5348430000000  0.4046360000000 1.0
C      1  0.5376920000000  0.4882510000000  0.4468510000000 1.0
C      1  0.5376700000000  0.4882490000000  0.5528690000000 1.0
C      1  0.5104550000000  0.4522490000000  0.4098550000000 1.0
C      1  0.5104180000000  0.4522460000000  0.5898530000000 1.0
C      1  0.5111060000000  0.4804270000000  0.4002760000000 1.0
C      1  0.5110650000000  0.4804250000000  0.5994320000000 1.0
C      1  0.5592400000000  0.4180120000000  0.4608220000000 1.0
C      1  0.5592240000000  0.4180110000000  0.5389050000000 1.0
C      1  0.4470290000000  0.5225180000000  0.4108520000000 1.0
C      1  0.4469920000000  0.5225160000000  0.5888310000000 1.0
C      1  0.5414650000000  0.4229550000000  0.4359620000000 1.0
C      1  0.5414390000000  0.4229540000000  0.5637570000000 1.0
C      1  0.5251750000000  0.4888700000000  0.4731300000000 1.0
C      1  0.5251640000000  0.4888700000000  0.5265850000000 1.0
C      1  0.4756800000000  0.5012020000000  0.4538500000000 1.0
C      1  0.4756610000000  0.5012000000000  0.5458450000000 1.0
C      1  0.4920690000000  0.6079630000000  0.4855290000000 1.0
C      1  0.4920640000000  0.6079630000000  0.5141750000000 1.0
C      1  0.4878410000000  0.4087260000000  0.4429950000000 1.0
C      1  0.4878170000000  0.4087240000000  0.5567020000000 1.0
C      1  0.6034370000000  0.4715310000000  0.5223210000000 1.0
C      1  0.6034460000000  0.4715320000000  0.4774250000000 1.0
C      1  0.4933580000000  0.4776800000000  0.5545030000000 1.0
C      1  0.4933800000000  0.4776810000000  0.4451980000000 1.0
C      1  0.6037380000000  0.4945440000000  0.4998740000000 1.0
END
