TITL C-25615-29-8 0.00711877083974269 125000 -104.006551077782 0 0 17 (C1) n - 1
REM
REM in /rds/project/t2_vol4/rds-t2-cs072/BORA/CARBON/from-Arr/AIRSS/Generating-Clusters/GAP-ML-2020/Higher-Symm/SD-CG/HFTN-CG
REM
REM
REM
REM
REM
REM ./C.cell (b20cbc046b6831c77cfcea5457e17084)
REM AIRSS Version 0.9.1 bugfix July 2018 build 013d7b7c2542+ Fri, 06 Jul 2018 19:26:36 +0100
REM compiler GCC version 9.3.0
REM options -cpp -mtune=generic -march=x86-64 -g -O0
REM seed 1091258948 -866269244 1374209301 -344690216 1023172146 1209509147 -1190843070 1481667768 1039849609 2132711136 1111117568 -1486532884 -1170677430 1106586219 -1482663898 1892079347 310531965 1120609031 -234768832 1385958647 939726580 1670764157 510065915 -1615124491 1269338956 -1983111050 1591943951 1934924992 1144636666 1540050827 1352818328 -1673274892 -655810630
REM
CELL 1.54180   50.00000   50.00000   50.00000   90.00000   90.00000   90.00000
LATT -1
SFAC C  
C      1  0.5120480000000  0.5220590000000  0.4930850000000 1.0
C      1  0.5139920000000  0.4766540000000  0.5084980000000 1.0
C      1  0.5206220000000  0.5313530000000  0.4681280000000 1.0
C      1  0.5226510000000  0.4679060000000  0.5332920000000 1.0
C      1  0.4562350000000  0.4868830000000  0.4684400000000 1.0
C      1  0.4553370000000  0.5062970000000  0.5364130000000 1.0
C      1  0.4520510000000  0.5195770000000  0.5123930000000 1.0
C      1  0.4679550000000  0.4622720000000  0.4749420000000 1.0
C      1  0.4797530000000  0.4862990000000  0.4818070000000 1.0
C      1  0.4771810000000  0.5100700000000  0.5186640000000 1.0
C      1  0.5222430000000  0.4663990000000  0.4838570000000 1.0
C      1  0.5190230000000  0.5336410000000  0.5175640000000 1.0
C      1  0.5215220000000  0.4555920000000  0.4612560000000 1.0
C      1  0.5199360000000  0.5429970000000  0.5406950000000 1.0
C      1  0.5280110000000  0.5385650000000  0.4450200000000 1.0
C      1  0.5299720000000  0.4612710000000  0.5565490000000 1.0
C      1  0.4960450000000  0.4987450000000  0.5011400000000 1.0
END
