TITL C-25011-9952-3 -364.434255848524 125000 -182.056567817835 0 0 28 (C1) n - 1
REM
REM in /rds/project/t2_vol4/rds-t2-cs072/BORA/CARBON/from-Arr/AIRSS/Generating-Clusters/GAP-ML-2020/Higher-Symm/SD-CG/HFTN-CG
REM
REM
REM
REM
REM
REM ./C.cell (b20cbc046b6831c77cfcea5457e17084)
REM AIRSS Version 0.9.1 bugfix July 2018 build 013d7b7c2542+ Fri, 06 Jul 2018 19:26:36 +0100
REM compiler GCC version 9.3.0
REM options -cpp -mtune=generic -march=x86-64 -g -O0
REM seed 2018427725 1511544984 -619043463 -1577252945 1977303001 -400207533 -1415866706 -1068074042 240887646 1773044664 607842098 1645539821 -1617807781 -2027185279 699551015 -1959476367 2047684129 161642479 2064862499 1149948571 -342660137 -60831341 1307884401 -259320771 -53217029 1295756121 1237022176 -981304173 -1525732435 816052043 1735317116 1911325282 506661657
REM
CELL 1.54180   50.00000   50.00000   50.00000   90.00000   90.00000   90.00000
LATT -1
SFAC C  
C      1  0.5130750000000  0.5106030000000  0.4508780000000 1.0
C      1  0.4427420000000  0.5052550000000  0.5083380000000 1.0
C      1  0.5083510000000  0.4671110000000  0.5098750000000 1.0
C      1  0.4970910000000  0.5054600000000  0.5647630000000 1.0
C      1  0.5140350000000  0.4926390000000  0.5492310000000 1.0
C      1  0.4875320000000  0.4982760000000  0.4522230000000 1.0
C      1  0.5479750000000  0.5131200000000  0.4891500000000 1.0
C      1  0.4509330000000  0.4940220000000  0.4851390000000 1.0
C      1  0.5450150000000  0.5017240000000  0.5153440000000 1.0
C      1  0.4898800000000  0.4682180000000  0.4900880000000 1.0
C      1  0.4970920000000  0.5405430000000  0.5052160000000 1.0
C      1  0.4840020000000  0.5527960000000  0.5230210000000 1.0
C      1  0.4792960000000  0.5240880000000  0.5631230000000 1.0
C      1  0.5574140000000  0.4842600000000  0.5328350000000 1.0
C      1  0.5501310000000  0.5352820000000  0.4505620000000 1.0
C      1  0.5297050000000  0.5276400000000  0.4356870000000 1.0
C      1  0.4746690000000  0.4749920000000  0.4447570000000 1.0
C      1  0.5347610000000  0.4704800000000  0.5457560000000 1.0
C      1  0.4487370000000  0.4712940000000  0.4686110000000 1.0
C      1  0.5636000000000  0.5293850000000  0.4725050000000 1.0
C      1  0.4462320000000  0.5207220000000  0.5279310000000 1.0
C      1  0.4689160000000  0.5334100000000  0.5389360000000 1.0
C      1  0.5234850000000  0.4518680000000  0.5273240000000 1.0
C      1  0.4737020000000  0.4567300000000  0.4691650000000 1.0
C      1  0.5012240000000  0.5132430000000  0.4983470000000 1.0
C      1  0.5139500000000  0.4973420000000  0.5184880000000 1.0
C      1  0.5221730000000  0.5086830000000  0.4780270000000 1.0
C      1  0.4819380000000  0.4975820000000  0.4837860000000 1.0
END
