TITL C-25924-8029-1 2.27018039807325 125000 -403.559693362761 0 0 59 (C1) n - 1
REM
REM in /rds/project/t2_vol4/rds-t2-cs072/BORA/CARBON/from-Arr/AIRSS/Generating-Clusters/GAP-ML-2020/Higher-Symm/SD-CG/HFTN-CG
REM
REM
REM
REM
REM
REM ./C.cell (b20cbc046b6831c77cfcea5457e17084)
REM AIRSS Version 0.9.1 bugfix July 2018 build 013d7b7c2542+ Fri, 06 Jul 2018 19:26:36 +0100
REM compiler GCC version 9.3.0
REM options -cpp -mtune=generic -march=x86-64 -g -O0
REM seed 1316405141 1942989706 -1429425300 -1371090122 935081033 1705827681 851965794 500122835 1854604971 58606806 623360090 -1877817068 -1204836337 -355029980 2053473545 55914614 -1855492459 -1034558895 547782744 -1905442494 1331018737 1457025087 1640611800 179737643 1883086673 155136215 219078279 -926251903 -107077305 750689606 -355486091 -80570429 2039961719
REM
CELL 1.54180   50.00000   50.00000   50.00000   90.00000   90.00000   90.00000
LATT -1
SFAC C  
C      1  0.4613570000000  0.4871040000000  0.4579670000000 1.0
C      1  0.5575990000000  0.4867790000000  0.4869590000000 1.0
C      1  0.4803380000000  0.4878940000000  0.5595160000000 1.0
C      1  0.5174240000000  0.5220750000000  0.4287260000000 1.0
C      1  0.5497420000000  0.5218370000000  0.5487920000000 1.0
C      1  0.4307770000000  0.5243510000000  0.5225710000000 1.0
C      1  0.4844200000000  0.5488990000000  0.5299650000000 1.0
C      1  0.4851790000000  0.5503790000000  0.4787170000000 1.0
C      1  0.5272350000000  0.5507980000000  0.5051040000000 1.0
C      1  0.5327170000000  0.4737940000000  0.4448020000000 1.0
C      1  0.5300970000000  0.4757430000000  0.5564000000000 1.0
C      1  0.4376060000000  0.4759090000000  0.5000810000000 1.0
C      1  0.5012600000000  0.4419890000000  0.4743890000000 1.0
C      1  0.5254440000000  0.4514440000000  0.5164990000000 1.0
C      1  0.4764110000000  0.4429810000000  0.5156650000000 1.0
C      1  0.4887120000000  0.5149720000000  0.5655770000000 1.0
C      1  0.4580150000000  0.5136310000000  0.4703740000000 1.0
C      1  0.5471570000000  0.5130090000000  0.4781530000000 1.0
C      1  0.4764840000000  0.5329680000000  0.4579450000000 1.0
C      1  0.5484660000000  0.5315580000000  0.5015650000000 1.0
C      1  0.4719990000000  0.5334280000000  0.5503110000000 1.0
C      1  0.4982990000000  0.4507560000000  0.5308270000000 1.0
C      1  0.4769750000000  0.4489230000000  0.4868180000000 1.0
C      1  0.5265560000000  0.4491030000000  0.4876130000000 1.0
C      1  0.5596460000000  0.5172730000000  0.5234630000000 1.0
C      1  0.4479250000000  0.5189740000000  0.5439790000000 1.0
C      1  0.4902160000000  0.5193210000000  0.4367960000000 1.0
C      1  0.4254080000000  0.5031710000000  0.5026570000000 1.0
C      1  0.5373780000000  0.5004230000000  0.4332790000000 1.0
C      1  0.5367090000000  0.5020270000000  0.5663440000000 1.0
C      1  0.5203620000000  0.4497390000000  0.4310980000000 1.0
C      1  0.5467040000000  0.4511130000000  0.5577390000000 1.0
C      1  0.4303300000000  0.4523000000000  0.5171030000000 1.0
C      1  0.4592290000000  0.4887980000000  0.5146470000000 1.0
C      1  0.5088550000000  0.4860850000000  0.4566680000000 1.0
C      1  0.5343760000000  0.4790860000000  0.5256150000000 1.0
C      1  0.5456710000000  0.4372340000000  0.5362550000000 1.0
C      1  0.4499970000000  0.4380940000000  0.5251490000000 1.0
C      1  0.5055610000000  0.4358380000000  0.4466240000000 1.0
C      1  0.5327250000000  0.5418270000000  0.4427090000000 1.0
C      1  0.5274880000000  0.5401980000000  0.5519750000000 1.0
C      1  0.4409780000000  0.5426380000000  0.5031590000000 1.0
C      1  0.5151570000000  0.5205930000000  0.5700010000000 1.0
C      1  0.4331150000000  0.5221590000000  0.4827510000000 1.0
C      1  0.5515470000000  0.5192360000000  0.4494460000000 1.0
C      1  0.4995890000000  0.4684600000000  0.5532770000000 1.0
C      1  0.4567120000000  0.4670190000000  0.4768570000000 1.0
C      1  0.5444450000000  0.4661270000000  0.4730180000000 1.0
C      1  0.4706170000000  0.5446890000000  0.5039220000000 1.0
C      1  0.5260330000000  0.5628830000000  0.4571690000000 1.0
C      1  0.5133230000000  0.5515820000000  0.5303190000000 1.0
C      1  0.5134360000000  0.5013420000000  0.5224080000000 1.0
C      1  0.4732330000000  0.5095510000000  0.4995480000000 1.0
C      1  0.5155090000000  0.5067660000000  0.4752000000000 1.0
C      1  0.4843790000000  0.4912680000000  0.4420140000000 1.0
C      1  0.5594630000000  0.4888490000000  0.5152040000000 1.0
C      1  0.4571850000000  0.4921900000000  0.5434360000000 1.0
C      1  0.5006030000000  0.5018640000000  0.4987580000000 1.0
C      1  0.5127460000000  0.5582050000000  0.4810360000000 1.0
END
