TITL C-25619-1-4 0.0505291378131442 125000 -319.888751167473 0 0 47 (C2) n - 1
REM
REM in /rds/project/t2_vol4/rds-t2-cs072/BORA/CARBON/from-Arr/AIRSS/Generating-Clusters/GAP-ML-2020/Higher-Symm/SD-CG/HFTN-CG
REM
REM
REM
REM
REM
REM ./C.cell (b20cbc046b6831c77cfcea5457e17084)
REM AIRSS Version 0.9.1 bugfix July 2018 build 013d7b7c2542+ Fri, 06 Jul 2018 19:26:36 +0100
REM compiler GCC version 9.3.0
REM options -cpp -mtune=generic -march=x86-64 -g -O0
REM seed -2008257149 -2039242102 2048459570 639917099 -857980234 -336279931 1984122130 2079445677 176641524 1293910352 -1889001282 -291414628 -1070686796 1164274879 -1215688253 -1486065699 515548925 1855766397 195606277 1731599604 209883054 753353188 1924066498 -184820030 -1766174573 1566168765 1766028402 -538035011 -1897520834 1595698898 -1432598632 -980995501 1809224735
REM
CELL 1.54180   50.00000   50.00000   50.00000   90.00000   90.00000   90.00000
LATT -1
SFAC C  
C      1  0.5118640000000  0.4389760000000  0.5317690000000 1.0
C      1  0.4882260000000  0.5597950000000  0.5316260000000 1.0
C      1  0.5118710000000  0.5603720000000  0.4705150000000 1.0
C      1  0.4882140000000  0.4395560000000  0.4706610000000 1.0
C      1  0.4918800000000  0.5399260000000  0.4745220000000 1.0
C      1  0.5070660000000  0.4611500000000  0.4770030000000 1.0
C      1  0.4918760000000  0.4594250000000  0.5277640000000 1.0
C      1  0.5070740000000  0.5381990000000  0.5252820000000 1.0
C      1  0.5459970000000  0.4960820000000  0.5386270000000 1.0
C      1  0.4534790000000  0.5024800000000  0.5395000000000 1.0
C      1  0.5459950000000  0.5032600000000  0.4636540000000 1.0
C      1  0.4534750000000  0.4968770000000  0.4627890000000 1.0
C      1  0.4313990000000  0.4856900000000  0.5022120000000 1.0
C      1  0.5701300000000  0.5138420000000  0.5022380000000 1.0
C      1  0.4314010000000  0.5136700000000  0.5000790000000 1.0
C      1  0.5701280000000  0.4854960000000  0.5000410000000 1.0
C      1  0.4652410000000  0.5707720000000  0.5292570000000 1.0
C      1  0.5348210000000  0.4279240000000  0.5290650000000 1.0
C      1  0.4652270000000  0.4285830000000  0.4730310000000 1.0
C      1  0.5348310000000  0.5714200000000  0.4732170000000 1.0
C      1  0.5360620000000  0.4574690000000  0.4849550000000 1.0
C      1  0.4632350000000  0.5427400000000  0.4844050000000 1.0
C      1  0.5360700000000  0.5418740000000  0.5173270000000 1.0
C      1  0.4632290000000  0.4566150000000  0.5178830000000 1.0
C      1  0.4460140000000  0.4776930000000  0.5253260000000 1.0
C      1  0.5540560000000  0.5213030000000  0.5251080000000 1.0
C      1  0.4460150000000  0.5216650000000  0.4769640000000 1.0
C      1  0.5540510000000  0.4780380000000  0.4771720000000 1.0
C      1  0.5574720000000  0.4735890000000  0.5231450000000 1.0
C      1  0.4433220000000  0.5251070000000  0.5231590000000 1.0
C      1  0.5574740000000  0.5257510000000  0.4791350000000 1.0
C      1  0.4433160000000  0.4742520000000  0.4791310000000 1.0
C      1  0.4570250000000  0.5485610000000  0.5131520000000 1.0
C      1  0.5423300000000  0.4508930000000  0.5132480000000 1.0
C      1  0.4570160000000  0.4507960000000  0.4891370000000 1.0
C      1  0.5423370000000  0.5484500000000  0.4890330000000 1.0
C      1  0.5030330000000  0.4806250000000  0.4541040000000 1.0
C      1  0.4960860000000  0.5198510000000  0.4528450000000 1.0
C      1  0.5030400000000  0.5187240000000  0.5481810000000 1.0
C      1  0.4960860000000  0.4794990000000  0.5494400000000 1.0
C      1  0.5203830000000  0.4958530000000  0.5499700000000 1.0
C      1  0.4787990000000  0.5023930000000  0.5507250000000 1.0
C      1  0.5203790000000  0.5034930000000  0.4523140000000 1.0
C      1  0.4787940000000  0.4969590000000  0.4515620000000 1.0
C      1  0.4974270000000  0.4759340000000  0.5026420000000 1.0
C      1  0.4974310000000  0.5234160000000  0.4996440000000 1.0
C      1  0.4838710000000  0.4996760000000  0.5011430000000 1.0
END
