TITL C-25851-3860-7 -113.579442066633 125000 -716.815279791949 0 0 106 (C1) n - 1
REM
REM in /rds/project/t2_vol4/rds-t2-cs072/BORA/CARBON/from-Arr/AIRSS/Generating-Clusters/GAP-ML-2020/Higher-Symm/SD-CG/HFTN-CG
REM
REM
REM
REM
REM
REM ./C.cell (b20cbc046b6831c77cfcea5457e17084)
REM AIRSS Version 0.9.1 bugfix July 2018 build 013d7b7c2542+ Fri, 06 Jul 2018 19:26:36 +0100
REM compiler GCC version 9.3.0
REM options -cpp -mtune=generic -march=x86-64 -g -O0
REM seed -930282357 563054651 253251854 -99749320 1734667561 -1370065323 -1151877718 714993116 -1126288521 -782175824 -1882439099 -1572614020 1290901349 -143564526 2008903476 -2027827396 -1855351959 -2065254185 410507898 1298966775 367948387 1033027633 832581419 -1785406315 1026437345 -56661189 -1886546844 -1483457324 754640016 -257935018 -1857658113 113355434 -2066519694
REM
CELL 1.54180   50.00000   50.00000   50.00000   90.00000   90.00000   90.00000
LATT -1
SFAC C  
C      1  0.4485520000000  0.4192270000000  0.4782200000000 1.0
C      1  0.4574980000000  0.4516010000000  0.5677910000000 1.0
C      1  0.4594480000000  0.5479360000000  0.5683640000000 1.0
C      1  0.4569120000000  0.5802410000000  0.4767630000000 1.0
C      1  0.4687200000000  0.5010890000000  0.4188140000000 1.0
C      1  0.5352260000000  0.4222500000000  0.5214090000000 1.0
C      1  0.5504360000000  0.4566520000000  0.4449790000000 1.0
C      1  0.5452720000000  0.5499730000000  0.4374560000000 1.0
C      1  0.5416690000000  0.5789240000000  0.5277120000000 1.0
C      1  0.5448830000000  0.4989870000000  0.5814240000000 1.0
C      1  0.4513850000000  0.4288790000000  0.5256700000000 1.0
C      1  0.4590420000000  0.4993830000000  0.5736530000000 1.0
C      1  0.4559350000000  0.5732690000000  0.5258520000000 1.0
C      1  0.4538270000000  0.5429560000000  0.4428730000000 1.0
C      1  0.4766510000000  0.4540990000000  0.4225160000000 1.0
C      1  0.5359730000000  0.4237160000000  0.4764250000000 1.0
C      1  0.5546200000000  0.5028750000000  0.4275050000000 1.0
C      1  0.5425890000000  0.5708610000000  0.4793910000000 1.0
C      1  0.5441520000000  0.5434010000000  0.5621190000000 1.0
C      1  0.5448450000000  0.4560960000000  0.5545100000000 1.0
C      1  0.4339160000000  0.4561250000000  0.5562500000000 1.0
C      1  0.4363620000000  0.5360870000000  0.5621500000000 1.0
C      1  0.4362410000000  0.5662380000000  0.4869860000000 1.0
C      1  0.4452920000000  0.5013490000000  0.4335990000000 1.0
C      1  0.4459580000000  0.4407120000000  0.4615920000000 1.0
C      1  0.5688650000000  0.4589620000000  0.4694150000000 1.0
C      1  0.5700760000000  0.5418320000000  0.4438400000000 1.0
C      1  0.5645670000000  0.5690210000000  0.5180670000000 1.0
C      1  0.5681550000000  0.5049570000000  0.5686380000000 1.0
C      1  0.5587820000000  0.4363010000000  0.5140810000000 1.0
C      1  0.4449260000000  0.4847760000000  0.4856150000000 1.0
C      1  0.4428970000000  0.4785450000000  0.5163580000000 1.0
C      1  0.4277100000000  0.5024780000000  0.5284940000000 1.0
C      1  0.4361120000000  0.5260210000000  0.5067720000000 1.0
C      1  0.4277420000000  0.5107320000000  0.4801760000000 1.0
C      1  0.5722580000000  0.4823060000000  0.5153930000000 1.0
C      1  0.5574890000000  0.4812270000000  0.4875690000000 1.0
C      1  0.5589060000000  0.5094790000000  0.4763940000000 1.0
C      1  0.5736240000000  0.5268990000000  0.4955660000000 1.0
C      1  0.5628470000000  0.5118460000000  0.5223100000000 1.0
C      1  0.4803830000000  0.5151100000000  0.5223170000000 1.0
C      1  0.4683730000000  0.5309720000000  0.5015880000000 1.0
C      1  0.4775960000000  0.5179390000000  0.4760180000000 1.0
C      1  0.4750110000000  0.4891040000000  0.4813760000000 1.0
C      1  0.4699410000000  0.4752350000000  0.5258350000000 1.0
C      1  0.5287060000000  0.5110570000000  0.4774810000000 1.0
C      1  0.5214900000000  0.5267890000000  0.5021960000000 1.0
C      1  0.5305550000000  0.5090140000000  0.5242170000000 1.0
C      1  0.5160110000000  0.4816290000000  0.5147780000000 1.0
C      1  0.5271730000000  0.4807030000000  0.4874920000000 1.0
C      1  0.4015780000000  0.4954550000000  0.4836820000000 1.0
C      1  0.4064480000000  0.4656390000000  0.4847640000000 1.0
C      1  0.4058710000000  0.4609440000000  0.5136730000000 1.0
C      1  0.4005650000000  0.4894800000000  0.5228140000000 1.0
C      1  0.3837580000000  0.5003480000000  0.5035180000000 1.0
C      1  0.6171770000000  0.5008300000000  0.5016040000000 1.0
C      1  0.5990910000000  0.4800320000000  0.5014760000000 1.0
C      1  0.5945580000000  0.4737270000000  0.4723760000000 1.0
C      1  0.5966830000000  0.5005710000000  0.4612490000000 1.0
C      1  0.6009830000000  0.5165990000000  0.4860040000000 1.0
C      1  0.5271000000000  0.4367060000000  0.5438450000000 1.0
C      1  0.5302640000000  0.5229320000000  0.5757470000000 1.0
C      1  0.5277050000000  0.5767120000000  0.5029380000000 1.0
C      1  0.5356870000000  0.5243980000000  0.4294150000000 1.0
C      1  0.5279510000000  0.4418890000000  0.4563430000000 1.0
C      1  0.4696280000000  0.4508430000000  0.4478380000000 1.0
C      1  0.4741490000000  0.5268510000000  0.4291530000000 1.0
C      1  0.4699300000000  0.5815820000000  0.5022450000000 1.0
C      1  0.4739450000000  0.5233770000000  0.5713520000000 1.0
C      1  0.4678930000000  0.4333130000000  0.5486560000000 1.0
C      1  0.5278540000000  0.5671200000000  0.5512250000000 1.0
C      1  0.5277080000000  0.5662430000000  0.4546790000000 1.0
C      1  0.5421570000000  0.4768410000000  0.4248400000000 1.0
C      1  0.5182830000000  0.4144070000000  0.4982960000000 1.0
C      1  0.5300110000000  0.4736700000000  0.5745770000000 1.0
C      1  0.4698330000000  0.5662020000000  0.4546700000000 1.0
C      1  0.4727220000000  0.5682350000000  0.5511410000000 1.0
C      1  0.4744610000000  0.4742980000000  0.5780250000000 1.0
C      1  0.4638920000000  0.4163500000000  0.5012310000000 1.0
C      1  0.4889300000000  0.4782630000000  0.4142610000000 1.0
C      1  0.4833930000000  0.4517050000000  0.5336010000000 1.0
C      1  0.4910590000000  0.5212180000000  0.5480540000000 1.0
C      1  0.4834720000000  0.5565760000000  0.5029610000000 1.0
C      1  0.4937100000000  0.5299400000000  0.4513140000000 1.0
C      1  0.4860820000000  0.4661790000000  0.4668240000000 1.0
C      1  0.5129080000000  0.4630450000000  0.4690260000000 1.0
C      1  0.5181600000000  0.5162790000000  0.4505550000000 1.0
C      1  0.5103270000000  0.5533330000000  0.5053230000000 1.0
C      1  0.5172740000000  0.5156330000000  0.5506040000000 1.0
C      1  0.5103710000000  0.4566930000000  0.5319400000000 1.0
C      1  0.4361690000000  0.5207090000000  0.4522840000000 1.0
C      1  0.4307230000000  0.4627970000000  0.4706630000000 1.0
C      1  0.4305080000000  0.4514680000000  0.5271670000000 1.0
C      1  0.4350230000000  0.5086450000000  0.5572080000000 1.0
C      1  0.4341970000000  0.5557840000000  0.5122460000000 1.0
C      1  0.5662050000000  0.5251140000000  0.5498730000000 1.0
C      1  0.5639980000000  0.4589310000000  0.5318410000000 1.0
C      1  0.5606070000000  0.4351670000000  0.4859520000000 1.0
C      1  0.5735590000000  0.5124410000000  0.4478310000000 1.0
C      1  0.5664870000000  0.5565010000000  0.4933590000000 1.0
C      1  0.4982240000000  0.5596770000000  0.4520550000000 1.0
C      1  0.5163610000000  0.4784750000000  0.4126960000000 1.0
C      1  0.5003230000000  0.5692900000000  0.5525340000000 1.0
C      1  0.5021370000000  0.4723800000000  0.5785840000000 1.0
C      1  0.4915980000000  0.4095300000000  0.4987720000000 1.0
C      1  0.4872890000000  0.4899760000000  0.5103500000000 1.0
END
