TITL C-25927-8099-7 -0.00403267594972801 125000 -51.3110357154666 0 0 8 (D(inf)h) n - 1
REM
REM in /rds/project/t2_vol4/rds-t2-cs072/BORA/CARBON/from-Arr/AIRSS/Generating-Clusters/GAP-ML-2020/Higher-Symm/SD-CG/HFTN-CG
REM
REM
REM
REM
REM
REM ./C.cell (b20cbc046b6831c77cfcea5457e17084)
REM AIRSS Version 0.9.1 bugfix July 2018 build 013d7b7c2542+ Fri, 06 Jul 2018 19:26:36 +0100
REM compiler GCC version 9.3.0
REM options -cpp -mtune=generic -march=x86-64 -g -O0
REM seed -746202901 2018890218 162979600 1189598734 836085378 -1776632901 664635720 1630768053 -57552240 1572145386 -1955594307 -2077446054 -659179718 777574178 251391002 176023332 -1456723222 -108254145 876809705 1888038920 -233452531 482627798 363005205 -1207101996 -1449837448 -1469401601 -1994679555 694469194 -1847664915 839791707 -1638815139 -189947871 1225989618
REM
CELL 1.54180   50.00000   50.00000   50.00000   90.00000   90.00000   90.00000
LATT -1
SFAC C  
C      1  0.5009700000000  0.5641290000000  0.5002320000000 1.0
C      1  0.5009700000000  0.5381020000000  0.5002320000000 1.0
C      1  0.5009700000000  0.4618980000000  0.5002320000000 1.0
C      1  0.5009700000000  0.5896510000000  0.5002320000000 1.0
C      1  0.5009700000000  0.4358710000000  0.5002320000000 1.0
C      1  0.5009700000000  0.4869750000000  0.5002320000000 1.0
C      1  0.5009700000000  0.5130250000000  0.5002320000000 1.0
C      1  0.5009700000000  0.4103490000000  0.5002320000000 1.0
END
