TITL C-25626-80-2 1102.58398697969 125000 -834.069088215317 0 0 119 (C1) n - 1
REM
REM in /rds/project/t2_vol4/rds-t2-cs072/BORA/CARBON/from-Arr/AIRSS/Generating-Clusters/GAP-ML-2020/Higher-Symm/SD-CG/HFTN-CG
REM
REM
REM
REM
REM
REM ./C.cell (b20cbc046b6831c77cfcea5457e17084)
REM AIRSS Version 0.9.1 bugfix July 2018 build 013d7b7c2542+ Fri, 06 Jul 2018 19:26:36 +0100
REM compiler GCC version 9.3.0
REM options -cpp -mtune=generic -march=x86-64 -g -O0
REM seed -1062995686 1488343691 1279823980 457451877 1224691197 -1427265648 -516191724 1432558679 -130619730 251486017 1979258697 -1602329607 1299834758 -833892488 657737289 -1817848973 -379065592 -1721666035 -133992875 1026345955 -86353839 -575004201 -841051561 -861583275 1645714954 308117857 -1090121383 -1746278609 1295347363 1043928268 1398593521 -820817629 308302696
REM
CELL 1.54180   50.00000   50.00000   50.00000   90.00000   90.00000   90.00000
LATT -1
SFAC C  
C      1  0.5117210000000  0.5562450000000  0.4302490000000 1.0
C      1  0.5118520000000  0.4436750000000  0.5696910000000 1.0
C      1  0.4543340000000  0.4812260000000  0.5146970000000 1.0
C      1  0.4551560000000  0.5161150000000  0.4814290000000 1.0
C      1  0.4610990000000  0.5085720000000  0.4095130000000 1.0
C      1  0.4616760000000  0.4918750000000  0.5903370000000 1.0
C      1  0.4669530000000  0.4592180000000  0.4254640000000 1.0
C      1  0.4677870000000  0.5413320000000  0.5755390000000 1.0
C      1  0.5107750000000  0.5657080000000  0.5080500000000 1.0
C      1  0.5114960000000  0.4331350000000  0.4920530000000 1.0
C      1  0.5865190000000  0.4985360000000  0.5138660000000 1.0
C      1  0.5870920000000  0.5016110000000  0.4863510000000 1.0
C      1  0.5614890000000  0.4354220000000  0.5246230000000 1.0
C      1  0.5611940000000  0.5642490000000  0.4753510000000 1.0
C      1  0.4766990000000  0.5268610000000  0.5291500000000 1.0
C      1  0.4801520000000  0.4722560000000  0.4702470000000 1.0
C      1  0.5486450000000  0.5269350000000  0.5111220000000 1.0
C      1  0.5496670000000  0.4725380000000  0.4893700000000 1.0
C      1  0.5309020000000  0.4657480000000  0.5757080000000 1.0
C      1  0.5307560000000  0.5341060000000  0.4244880000000 1.0
C      1  0.4434740000000  0.4740550000000  0.5779810000000 1.0
C      1  0.4428910000000  0.5269270000000  0.4211380000000 1.0
C      1  0.5696510000000  0.4323730000000  0.4956590000000 1.0
C      1  0.5694070000000  0.5672600000000  0.5042050000000 1.0
C      1  0.5172240000000  0.5419280000000  0.5817420000000 1.0
C      1  0.5167990000000  0.4581200000000  0.4185970000000 1.0
C      1  0.5298000000000  0.5865460000000  0.4953900000000 1.0
C      1  0.5303750000000  0.4127630000000  0.5045920000000 1.0
C      1  0.5024150000000  0.5155970000000  0.4934650000000 1.0
C      1  0.5029740000000  0.4831640000000  0.5067450000000 1.0
C      1  0.5445150000000  0.4535260000000  0.4275480000000 1.0
C      1  0.5447240000000  0.5462420000000  0.5722910000000 1.0
C      1  0.4586490000000  0.5462360000000  0.5478830000000 1.0
C      1  0.4600810000000  0.4560360000000  0.4543110000000 1.0
C      1  0.5619530000000  0.5186000000000  0.4839600000000 1.0
C      1  0.5619050000000  0.4811490000000  0.5163610000000 1.0
C      1  0.4983780000000  0.4876320000000  0.5348980000000 1.0
C      1  0.5003760000000  0.5126360000000  0.4647670000000 1.0
C      1  0.5407960000000  0.5813800000000  0.5394270000000 1.0
C      1  0.5405450000000  0.4187620000000  0.4603480000000 1.0
C      1  0.5203770000000  0.5353510000000  0.5090110000000 1.0
C      1  0.5217120000000  0.4637020000000  0.4914920000000 1.0
C      1  0.5520710000000  0.4810280000000  0.4245280000000 1.0
C      1  0.5517690000000  0.5186430000000  0.5754390000000 1.0
C      1  0.4415980000000  0.5574060000000  0.4524120000000 1.0
C      1  0.4416480000000  0.4424430000000  0.5480100000000 1.0
C      1  0.5550070000000  0.5264740000000  0.4391500000000 1.0
C      1  0.5549800000000  0.4733840000000  0.5609220000000 1.0
C      1  0.4775950000000  0.4661800000000  0.5000490000000 1.0
C      1  0.4757910000000  0.5316310000000  0.4996740000000 1.0
C      1  0.4565890000000  0.4492450000000  0.5713280000000 1.0
C      1  0.4562770000000  0.5512350000000  0.4285020000000 1.0
C      1  0.5206520000000  0.4944700000000  0.4550160000000 1.0
C      1  0.5190080000000  0.5048720000000  0.5453640000000 1.0
C      1  0.5375430000000  0.5797740000000  0.4691700000000 1.0
C      1  0.5380020000000  0.4197560000000  0.5308580000000 1.0
C      1  0.4866490000000  0.4382960000000  0.5041100000000 1.0
C      1  0.4859680000000  0.5601430000000  0.4956370000000 1.0
C      1  0.5839120000000  0.5177800000000  0.5350380000000 1.0
C      1  0.5843890000000  0.4821120000000  0.4651020000000 1.0
C      1  0.5469170000000  0.4964210000000  0.4701550000000 1.0
C      1  0.5457280000000  0.5030140000000  0.5302490000000 1.0
C      1  0.4526530000000  0.5177450000000  0.5805510000000 1.0
C      1  0.4519420000000  0.4825560000000  0.4199820000000 1.0
C      1  0.5122800000000  0.5799430000000  0.5365030000000 1.0
C      1  0.5119430000000  0.4201640000000  0.4634020000000 1.0
C      1  0.4769670000000  0.4144130000000  0.5180550000000 1.0
C      1  0.4768240000000  0.5845860000000  0.4820700000000 1.0
C      1  0.5067980000000  0.5286330000000  0.5336030000000 1.0
C      1  0.5092440000000  0.4698250000000  0.4661840000000 1.0
C      1  0.4270390000000  0.4860420000000  0.5564630000000 1.0
C      1  0.4264610000000  0.5150720000000  0.4427600000000 1.0
C      1  0.5228870000000  0.5116090000000  0.5776200000000 1.0
C      1  0.5232340000000  0.4882910000000  0.4225800000000 1.0
C      1  0.4852680000000  0.4521580000000  0.5793170000000 1.0
C      1  0.4851330000000  0.5480810000000  0.4204480000000 1.0
C      1  0.4270600000000  0.4469950000000  0.4838880000000 1.0
C      1  0.4266120000000  0.5533230000000  0.5178410000000 1.0
C      1  0.5148990000000  0.4230050000000  0.5491720000000 1.0
C      1  0.5146530000000  0.5767970000000  0.4507890000000 1.0
C      1  0.4876270000000  0.4777750000000  0.5917920000000 1.0
C      1  0.4874350000000  0.5223570000000  0.4080590000000 1.0
C      1  0.4911910000000  0.4097930000000  0.5407120000000 1.0
C      1  0.4909580000000  0.5897440000000  0.4594930000000 1.0
C      1  0.5152400000000  0.5135440000000  0.4105490000000 1.0
C      1  0.5154340000000  0.4863540000000  0.5897440000000 1.0
C      1  0.4328940000000  0.4258560000000  0.5262340000000 1.0
C      1  0.4327060000000  0.5729840000000  0.4748990000000 1.0
C      1  0.5517930000000  0.5868000000000  0.5137260000000 1.0
C      1  0.5520730000000  0.4129460000000  0.4858880000000 1.0
C      1  0.4496620000000  0.4121030000000  0.5083790000000 1.0
C      1  0.4497270000000  0.5873470000000  0.4920220000000 1.0
C      1  0.4209640000000  0.5499190000000  0.4897200000000 1.0
C      1  0.4203890000000  0.4484920000000  0.5115750000000 1.0
C      1  0.4350470000000  0.4714620000000  0.4675830000000 1.0
C      1  0.4309140000000  0.5370500000000  0.5415320000000 1.0
C      1  0.5648360000000  0.5036110000000  0.5554570000000 1.0
C      1  0.5655850000000  0.4961290000000  0.4445180000000 1.0
C      1  0.5695180000000  0.4553780000000  0.4732840000000 1.0
C      1  0.5689800000000  0.5443110000000  0.5268160000000 1.0
C      1  0.4747830000000  0.5016540000000  0.4643530000000 1.0
C      1  0.4718090000000  0.4977180000000  0.5329010000000 1.0
C      1  0.4326430000000  0.5315950000000  0.4672890000000 1.0
C      1  0.4323150000000  0.4679490000000  0.5321260000000 1.0
C      1  0.4458130000000  0.5774130000000  0.5193740000000 1.0
C      1  0.4452950000000  0.4231920000000  0.4809060000000 1.0
C      1  0.4314220000000  0.4872640000000  0.4421670000000 1.0
C      1  0.4301920000000  0.5143580000000  0.5589880000000 1.0
C      1  0.4926450000000  0.5557810000000  0.5769960000000 1.0
C      1  0.4917870000000  0.4446810000000  0.4235900000000 1.0
C      1  0.4896820000000  0.4239530000000  0.4462350000000 1.0
C      1  0.4905370000000  0.5765820000000  0.5541690000000 1.0
C      1  0.5555370000000  0.4408410000000  0.4502730000000 1.0
C      1  0.5558960000000  0.5592810000000  0.5497740000000 1.0
C      1  0.4641700000000  0.5741950000000  0.5412670000000 1.0
C      1  0.4635070000000  0.4271920000000  0.4593050000000 1.0
C      1  0.5634730000000  0.4605800000000  0.5370200000000 1.0
C      1  0.5633560000000  0.5390860000000  0.4631370000000 1.0
C      1  0.4414750000000  0.4920790000000  0.4905010000000 1.0
END
