TITL C-25625-291-5 0.0186154911363878 125000 -84.3472570072336 0 0 13 (Cs) n - 1
REM
REM in /rds/project/t2_vol4/rds-t2-cs072/BORA/CARBON/from-Arr/AIRSS/Generating-Clusters/GAP-ML-2020/Higher-Symm/SD-CG/HFTN-CG
REM
REM
REM
REM
REM
REM ./C.cell (b20cbc046b6831c77cfcea5457e17084)
REM AIRSS Version 0.9.1 bugfix July 2018 build 013d7b7c2542+ Fri, 06 Jul 2018 19:26:36 +0100
REM compiler GCC version 9.3.0
REM options -cpp -mtune=generic -march=x86-64 -g -O0
REM seed -1828208615 557564781 -1143625413 -865826513 -1355204173 310472669 1950858451 496042323 1221762816 538900415 1642738559 372554925 -1415513956 2032935607 1572431050 -1673891753 1003815402 -1892777655 -658276918 19103001 1586621252 607127559 -342985834 731122250 1011177745 -373848786 -1784716663 22238608 883212932 711502420 22589311 596926184 800275116
REM
CELL 1.54180   50.00000   50.00000   50.00000   90.00000   90.00000   90.00000
LATT -1
SFAC C  
C      1  0.5021750000000  0.4737750000000  0.5150600000000 1.0
C      1  0.5261130000000  0.5157090000000  0.5142120000000 1.0
C      1  0.4770080000000  0.5166230000000  0.5138620000000 1.0
C      1  0.5022800000000  0.4737950000000  0.4846230000000 1.0
C      1  0.5262110000000  0.5157280000000  0.4856910000000 1.0
C      1  0.4771050000000  0.5166420000000  0.4857050000000 1.0
C      1  0.5016750000000  0.5300630000000  0.5143330000000 1.0
C      1  0.5265120000000  0.4874420000000  0.5141790000000 1.0
C      1  0.4789600000000  0.4903640000000  0.5217630000000 1.0
C      1  0.5017740000000  0.5300820000000  0.4854210000000 1.0
C      1  0.5266100000000  0.4874610000000  0.4856890000000 1.0
C      1  0.4791110000000  0.4903940000000  0.4777830000000 1.0
C      1  0.4778220000000  0.4742720000000  0.4997580000000 1.0
END
