TITL C-25617-187-5 228.887603741358 125000 -574.098214477602 0 0 83 (C1) n - 1
REM
REM in /rds/project/t2_vol4/rds-t2-cs072/BORA/CARBON/from-Arr/AIRSS/Generating-Clusters/GAP-ML-2020/Higher-Symm/SD-CG/HFTN-CG
REM
REM
REM
REM
REM
REM ./C.cell (b20cbc046b6831c77cfcea5457e17084)
REM AIRSS Version 0.9.1 bugfix July 2018 build 013d7b7c2542+ Fri, 06 Jul 2018 19:26:36 +0100
REM compiler GCC version 9.3.0
REM options -cpp -mtune=generic -march=x86-64 -g -O0
REM seed 1607989843 1764608758 -646028178 918874221 -1552273178 1050482823 1406140149 -1715914808 1978223091 40277770 -2015881155 2141536123 -1742193463 -1060221019 914184879 -976925441 -836051566 -1750921397 -1556758446 212304402 1093342685 -1774591589 1813042281 -952863300 337650526 -1658248065 1984654425 -371591303 935583126 -1163578435 791759484 1886766663 -1522759287
REM
CELL 1.54180   50.00000   50.00000   50.00000   90.00000   90.00000   90.00000
LATT -1
SFAC C  
C      1  0.4549720000000  0.4515970000000  0.5511400000000 1.0
C      1  0.5079830000000  0.4356000000000  0.5536050000000 1.0
C      1  0.5519850000000  0.4695890000000  0.5514280000000 1.0
C      1  0.5663210000000  0.5214830000000  0.5533410000000 1.0
C      1  0.5291690000000  0.5608010000000  0.5508470000000 1.0
C      1  0.4736780000000  0.5548300000000  0.5558150000000 1.0
C      1  0.4394410000000  0.5080590000000  0.5562370000000 1.0
C      1  0.4679750000000  0.5793350000000  0.4873100000000 1.0
C      1  0.4197820000000  0.5276980000000  0.4893360000000 1.0
C      1  0.4338090000000  0.4598720000000  0.4827610000000 1.0
C      1  0.4945600000000  0.4217520000000  0.4814910000000 1.0
C      1  0.5595220000000  0.4450890000000  0.4831020000000 1.0
C      1  0.5810540000000  0.5102680000000  0.4806920000000 1.0
C      1  0.5384400000000  0.5661050000000  0.4778580000000 1.0
C      1  0.4220660000000  0.5109320000000  0.5329860000000 1.0
C      1  0.4428460000000  0.4436080000000  0.5265150000000 1.0
C      1  0.5074720000000  0.4196650000000  0.5274260000000 1.0
C      1  0.5662950000000  0.4575750000000  0.5276020000000 1.0
C      1  0.5772940000000  0.5251650000000  0.5251010000000 1.0
C      1  0.5308840000000  0.5752890000000  0.5246250000000 1.0
C      1  0.4625360000000  0.5700650000000  0.5333840000000 1.0
C      1  0.5313130000000  0.4488590000000  0.5602510000000 1.0
C      1  0.5638390000000  0.4947740000000  0.5636320000000 1.0
C      1  0.5508280000000  0.5447250000000  0.5577500000000 1.0
C      1  0.5025300000000  0.5488730000000  0.5579970000000 1.0
C      1  0.4601200000000  0.5283330000000  0.5575450000000 1.0
C      1  0.4561990000000  0.4818230000000  0.5550080000000 1.0
C      1  0.4825500000000  0.4490230000000  0.5606180000000 1.0
C      1  0.4876230000000  0.5704360000000  0.4684510000000 1.0
C      1  0.4388270000000  0.5417270000000  0.4736920000000 1.0
C      1  0.4318940000000  0.4847390000000  0.4685200000000 1.0
C      1  0.4809390000000  0.4443200000000  0.4687380000000 1.0
C      1  0.5335260000000  0.4474060000000  0.4707210000000 1.0
C      1  0.5699270000000  0.4890360000000  0.4652660000000 1.0
C      1  0.5496270000000  0.5432480000000  0.4621160000000 1.0
C      1  0.5850710000000  0.5030930000000  0.5083440000000 1.0
C      1  0.5501440000000  0.5665640000000  0.5048390000000 1.0
C      1  0.4794390000000  0.5836270000000  0.5135310000000 1.0
C      1  0.4231680000000  0.5351130000000  0.5173420000000 1.0
C      1  0.4268950000000  0.4626730000000  0.5107800000000 1.0
C      1  0.4847470000000  0.4184450000000  0.5088660000000 1.0
C      1  0.5546540000000  0.4374520000000  0.5109890000000 1.0
C      1  0.4588450000000  0.5292790000000  0.4581120000000 1.0
C      1  0.4580560000000  0.4979550000000  0.4560210000000 1.0
C      1  0.4946270000000  0.4629120000000  0.4473180000000 1.0
C      1  0.5236500000000  0.4654680000000  0.4495560000000 1.0
C      1  0.5403190000000  0.4943530000000  0.4561600000000 1.0
C      1  0.5404040000000  0.5219390000000  0.4462750000000 1.0
C      1  0.4849250000000  0.5416460000000  0.4640560000000 1.0
C      1  0.4393350000000  0.5591340000000  0.5180650000000 1.0
C      1  0.4161880000000  0.4891100000000  0.5137380000000 1.0
C      1  0.4577670000000  0.4283000000000  0.5070440000000 1.0
C      1  0.5307040000000  0.4218410000000  0.5102270000000 1.0
C      1  0.5812770000000  0.4746280000000  0.5094510000000 1.0
C      1  0.5696250000000  0.5461310000000  0.5065670000000 1.0
C      1  0.5081390000000  0.5840700000000  0.5088070000000 1.0
C      1  0.4696630000000  0.4894610000000  0.5277750000000 1.0
C      1  0.4855430000000  0.4675680000000  0.5174440000000 1.0
C      1  0.5140830000000  0.4683210000000  0.5205340000000 1.0
C      1  0.5256520000000  0.4848000000000  0.5406860000000 1.0
C      1  0.5250010000000  0.5133920000000  0.5292790000000 1.0
C      1  0.5042130000000  0.5198690000000  0.5512240000000 1.0
C      1  0.4788380000000  0.5179950000000  0.5372620000000 1.0
C      1  0.5185830000000  0.4721750000000  0.4921810000000 1.0
C      1  0.5299730000000  0.4969070000000  0.4856480000000 1.0
C      1  0.5200530000000  0.5180210000000  0.5012460000000 1.0
C      1  0.4966510000000  0.5317220000000  0.4925040000000 1.0
C      1  0.4746410000000  0.5282270000000  0.5092130000000 1.0
C      1  0.4610020000000  0.5034060000000  0.5030620000000 1.0
C      1  0.4881770000000  0.4692220000000  0.4865970000000 1.0
C      1  0.4535500000000  0.4397300000000  0.4806610000000 1.0
C      1  0.5218940000000  0.4236840000000  0.4824640000000 1.0
C      1  0.5762170000000  0.4666850000000  0.4819430000000 1.0
C      1  0.5715490000000  0.5361410000000  0.4795510000000 1.0
C      1  0.5130140000000  0.5779920000000  0.4804100000000 1.0
C      1  0.4445570000000  0.5647610000000  0.4901990000000 1.0
C      1  0.4163070000000  0.5002420000000  0.4864250000000 1.0
C      1  0.4771310000000  0.4837920000000  0.4361960000000 1.0
C      1  0.4727220000000  0.4918280000000  0.4805000000000 1.0
C      1  0.4821740000000  0.4932590000000  0.4108350000000 1.0
C      1  0.5063620000000  0.4916510000000  0.5639800000000 1.0
C      1  0.4832130000000  0.4770850000000  0.5680880000000 1.0
C      1  0.4896910000000  0.5037500000000  0.3889230000000 1.0
END
