TITL C-25008-9961-3 31.2505586725743 125000 -804.653095460757 0 0 117 (S4) n - 1
REM
REM in /rds/project/t2_vol4/rds-t2-cs072/BORA/CARBON/from-Arr/AIRSS/Generating-Clusters/GAP-ML-2020/Higher-Symm/SD-CG/HFTN-CG
REM
REM
REM
REM
REM
REM ./C.cell (b20cbc046b6831c77cfcea5457e17084)
REM AIRSS Version 0.9.1 bugfix July 2018 build 013d7b7c2542+ Fri, 06 Jul 2018 19:26:36 +0100
REM compiler GCC version 9.3.0
REM options -cpp -mtune=generic -march=x86-64 -g -O0
REM seed -535478794 -1767412437 2029260044 1828976421 -43157895 1215806670 676996583 -260973293 525718916 -934407831 -1273515835 1124201591 -1005747693 -2065632551 -1373569354 -1634134571 -1043169613 1351567891 -300559828 270751073 -306284448 -523202821 1006150859 1142673155 281865538 485604884 1208333043 1386663460 1304434639 1657620633 898931629 1487546458 603341757
REM
CELL 1.54180   50.00000   50.00000   50.00000   90.00000   90.00000   90.00000
LATT -1
SFAC C  
C      1  0.4959880000000  0.5820060000000  0.4421620000000 1.0
C      1  0.5031520000000  0.4422090000000  0.4177180000000 1.0
C      1  0.4959600000000  0.4177650000000  0.5575130000000 1.0
C      1  0.5031400000000  0.5575600000000  0.5819590000000 1.0
C      1  0.4719520000000  0.5000080000000  0.3882800000000 1.0
C      1  0.5271740000000  0.3883280000000  0.4997210000000 1.0
C      1  0.4719220000000  0.4997660000000  0.6113900000000 1.0
C      1  0.5271920000000  0.6114380000000  0.4999630000000 1.0
C      1  0.5089360000000  0.6276270000000  0.5065220000000 1.0
C      1  0.4902100000000  0.5065680000000  0.3720940000000 1.0
C      1  0.5089180000000  0.3721410000000  0.4931570000000 1.0
C      1  0.4901760000000  0.4932030000000  0.6275800000000 1.0
C      1  0.4214530000000  0.5511140000000  0.5176850000000 1.0
C      1  0.5776770000000  0.5177360000000  0.4486260000000 1.0
C      1  0.4214490000000  0.4486680000000  0.4819710000000 1.0
C      1  0.5776610000000  0.4820210000000  0.5510710000000 1.0
C      1  0.5387450000000  0.4454260000000  0.4490810000000 1.0
C      1  0.4603660000000  0.4491260000000  0.5542890000000 1.0
C      1  0.5387410000000  0.5543380000000  0.5506060000000 1.0
C      1  0.4603880000000  0.5506500000000  0.4453770000000 1.0
C      1  0.4215570000000  0.4545280000000  0.5280200000000 1.0
C      1  0.5775520000000  0.5280710000000  0.5452110000000 1.0
C      1  0.4215720000000  0.5452540000000  0.4716360000000 1.0
C      1  0.5775590000000  0.4716870000000  0.4544860000000 1.0
C      1  0.4350610000000  0.4630830000000  0.5520970000000 1.0
C      1  0.5640480000000  0.5521470000000  0.5366540000000 1.0
C      1  0.4350810000000  0.5366970000000  0.4475630000000 1.0
C      1  0.5640500000000  0.4476130000000  0.4630400000000 1.0
C      1  0.5153240000000  0.5120980000000  0.5673000000000 1.0
C      1  0.4837950000000  0.5673460000000  0.4876220000000 1.0
C      1  0.5153400000000  0.4876700000000  0.4323800000000 1.0
C      1  0.4837810000000  0.4324260000000  0.5120500000000 1.0
C      1  0.4553900000000  0.5028620000000  0.4709170000000 1.0
C      1  0.5437330000000  0.4709660000000  0.4968710000000 1.0
C      1  0.4553810000000  0.4969150000000  0.5287480000000 1.0
C      1  0.5437360000000  0.5287970000000  0.5028170000000 1.0
C      1  0.4084370000000  0.4769000000000  0.5150660000000 1.0
C      1  0.5906770000000  0.5151180000000  0.5228420000000 1.0
C      1  0.4084450000000  0.5228840000000  0.4845860000000 1.0
C      1  0.5906810000000  0.4846370000000  0.4768580000000 1.0
C      1  0.4127840000000  0.4986910000000  0.4706450000000 1.0
C      1  0.5863380000000  0.4706970000000  0.5010500000000 1.0
C      1  0.4127760000000  0.5010920000000  0.5290080000000 1.0
C      1  0.5863430000000  0.5290590000000  0.4986490000000 1.0
C      1  0.5170040000000  0.4911730000000  0.5217720000000 1.0
C      1  0.4821130000000  0.5218180000000  0.5085470000000 1.0
C      1  0.5170110000000  0.5085950000000  0.4779090000000 1.0
C      1  0.4821120000000  0.4779550000000  0.4911250000000 1.0
C      1  0.4438570000000  0.5146890000000  0.5714350000000 1.0
C      1  0.5552620000000  0.5714840000000  0.4850460000000 1.0
C      1  0.4438740000000  0.4850890000000  0.4282270000000 1.0
C      1  0.5552470000000  0.4282770000000  0.5146460000000 1.0
C      1  0.4314870000000  0.4367650000000  0.5062960000000 1.0
C      1  0.5676200000000  0.5063460000000  0.5629720000000 1.0
C      1  0.4314980000000  0.5630150000000  0.4933630000000 1.0
C      1  0.5676350000000  0.4934130000000  0.4367220000000 1.0
C      1  0.5016170000000  0.5075200000000  0.4508690000000 1.0
C      1  0.4975070000000  0.4509160000000  0.4922020000000 1.0
C      1  0.5016030000000  0.4922490000000  0.5488080000000 1.0
C      1  0.4975130000000  0.5488540000000  0.5074740000000 1.0
C      1  0.5409880000000  0.4991740000000  0.5752170000000 1.0
C      1  0.4581280000000  0.5752620000000  0.5005410000000 1.0
C      1  0.5410080000000  0.5005900000000  0.4244700000000 1.0
C      1  0.4581160000000  0.4245150000000  0.4991250000000 1.0
C      1  0.4784840000000  0.5106860000000  0.5373590000000 1.0
C      1  0.5206360000000  0.5374060000000  0.4890410000000 1.0
C      1  0.4784920000000  0.4890870000000  0.4623120000000 1.0
C      1  0.5206270000000  0.4623600000000  0.5106410000000 1.0
C      1  0.4715000000000  0.4527940000000  0.5286440000000 1.0
C      1  0.5276090000000  0.5286920000000  0.5469350000000 1.0
C      1  0.4715150000000  0.5469800000000  0.4710250000000 1.0
C      1  0.5276160000000  0.4710730000000  0.4527490000000 1.0
C      1  0.5499910000000  0.4408280000000  0.5403800000000 1.0
C      1  0.4491140000000  0.5404240000000  0.5588850000000 1.0
C      1  0.5500110000000  0.5589340000000  0.4593100000000 1.0
C      1  0.4491230000000  0.4593540000000  0.4407790000000 1.0
C      1  0.4092970000000  0.5251720000000  0.5132190000000 1.0
C      1  0.5898280000000  0.5132700000000  0.4745710000000 1.0
C      1  0.4092970000000  0.4746130000000  0.4864340000000 1.0
C      1  0.5898190000000  0.4864860000000  0.5251300000000 1.0
C      1  0.5599920000000  0.5397550000000  0.4412400000000 1.0
C      1  0.4391400000000  0.4412840000000  0.4599550000000 1.0
C      1  0.5599700000000  0.4600050000000  0.5584520000000 1.0
C      1  0.4391380000000  0.5584960000000  0.5397050000000 1.0
C      1  0.4623900000000  0.4750010000000  0.5125690000000 1.0
C      1  0.5367240000000  0.5126170000000  0.5247300000000 1.0
C      1  0.4623980000000  0.5247750000000  0.4870980000000 1.0
C      1  0.5367280000000  0.4871470000000  0.4749570000000 1.0
C      1  0.5135140000000  0.5668190000000  0.5575310000000 1.0
C      1  0.4856170000000  0.5575770000000  0.4329010000000 1.0
C      1  0.5135180000000  0.4329490000000  0.4421490000000 1.0
C      1  0.4855900000000  0.4421950000000  0.5667720000000 1.0
C      1  0.5093830000000  0.5364860000000  0.4396290000000 1.0
C      1  0.4897480000000  0.4396760000000  0.4632350000000 1.0
C      1  0.5093610000000  0.4632830000000  0.5600500000000 1.0
C      1  0.4897480000000  0.5600960000000  0.5364380000000 1.0
C      1  0.5367320000000  0.4713470000000  0.5720830000000 1.0
C      1  0.4623780000000  0.5721270000000  0.5283690000000 1.0
C      1  0.5367560000000  0.5284170000000  0.4276040000000 1.0
C      1  0.4623740000000  0.4276480000000  0.4712980000000 1.0
C      1  0.5649240000000  0.5506200000000  0.5059970000000 1.0
C      1  0.4342060000000  0.5060400000000  0.4490890000000 1.0
C      1  0.5649180000000  0.4491390000000  0.4936970000000 1.0
C      1  0.4341920000000  0.4937400000000  0.5505700000000 1.0
C      1  0.4926220000000  0.4696310000000  0.4215900000000 1.0
C      1  0.5064960000000  0.4216370000000  0.5300940000000 1.0
C      1  0.4926060000000  0.5301400000000  0.5780840000000 1.0
C      1  0.5065170000000  0.5781310000000  0.4695840000000 1.0
C      1  0.4675630000000  0.5131980000000  0.5879510000000 1.0
C      1  0.5315550000000  0.5880000000000  0.4865320000000 1.0
C      1  0.4675840000000  0.4865770000000  0.4117170000000 1.0
C      1  0.5315370000000  0.4117650000000  0.5131530000000 1.0
C      1  0.4776080000000  0.5367570000000  0.5529070000000 1.0
C      1  0.5215170000000  0.5529550000000  0.4629710000000 1.0
C      1  0.4776160000000  0.4630160000000  0.4467640000000 1.0
C      1  0.5214990000000  0.4468110000000  0.5367110000000 1.0
C      1  0.4995600000000  0.4998850000000  0.4998380000000 1.0
END
