TITL C-25631-60-1 -43.2129938439944 125000 -543.911966028323 0 0 81 (C1) n - 1
REM
REM in /rds/project/t2_vol4/rds-t2-cs072/BORA/CARBON/from-Arr/AIRSS/Generating-Clusters/GAP-ML-2020/Higher-Symm/SD-CG/HFTN-CG
REM
REM
REM
REM
REM
REM ./C.cell (b20cbc046b6831c77cfcea5457e17084)
REM AIRSS Version 0.9.1 bugfix July 2018 build 013d7b7c2542+ Fri, 06 Jul 2018 19:26:36 +0100
REM compiler GCC version 9.3.0
REM options -cpp -mtune=generic -march=x86-64 -g -O0
REM seed -962651979 849835698 -1653199314 -58117044 -874883395 -1706597825 -267224663 -864128278 -189510105 686938819 -1692099885 1026999594 -7313373 -1715347071 -1820096947 1047636621 221583208 -1623667631 -327890960 -429450142 1609423960 1119944606 1940389109 -679152790 -1939325466 49573845 189615130 -1734886307 1954353351 810676661 1407786225 1403274109 1201744118
REM
CELL 1.54180   50.00000   50.00000   50.00000   90.00000   90.00000   90.00000
LATT -1
SFAC C  
C      1  0.4643840000000  0.4676170000000  0.5579810000000 1.0
C      1  0.5357930000000  0.5277360000000  0.4475990000000 1.0
C      1  0.5338540000000  0.5008110000000  0.5677430000000 1.0
C      1  0.4655690000000  0.5053910000000  0.4264610000000 1.0
C      1  0.5225940000000  0.5936520000000  0.4835330000000 1.0
C      1  0.4711130000000  0.3976590000000  0.5043590000000 1.0
C      1  0.4436470000000  0.5381800000000  0.4524730000000 1.0
C      1  0.5581780000000  0.4634480000000  0.5519420000000 1.0
C      1  0.4718110000000  0.4535720000000  0.4338820000000 1.0
C      1  0.5200080000000  0.5453000000000  0.5450660000000 1.0
C      1  0.4619430000000  0.4218780000000  0.5121160000000 1.0
C      1  0.5387560000000  0.5715830000000  0.4851200000000 1.0
C      1  0.5141270000000  0.5345510000000  0.4652620000000 1.0
C      1  0.4848020000000  0.4495080000000  0.5518430000000 1.0
C      1  0.4386120000000  0.5137830000000  0.5655410000000 1.0
C      1  0.5552510000000  0.4785270000000  0.4344490000000 1.0
C      1  0.4973370000000  0.5984670000000  0.4890610000000 1.0
C      1  0.4974030000000  0.3988000000000  0.4985520000000 1.0
C      1  0.5765900000000  0.5083940000000  0.4681110000000 1.0
C      1  0.4263550000000  0.4875910000000  0.5274170000000 1.0
C      1  0.5101700000000  0.4562970000000  0.5616390000000 1.0
C      1  0.4927130000000  0.5412900000000  0.4453900000000 1.0
C      1  0.5662400000000  0.4825150000000  0.4584610000000 1.0
C      1  0.4294170000000  0.5142730000000  0.5394060000000 1.0
C      1  0.4641940000000  0.4673670000000  0.4866500000000 1.0
C      1  0.5685720000000  0.5359170000000  0.5082400000000 1.0
C      1  0.4657620000000  0.5134350000000  0.5649300000000 1.0
C      1  0.5279730000000  0.4837600000000  0.4398070000000 1.0
C      1  0.5433630000000  0.4243220000000  0.5040280000000 1.0
C      1  0.4503270000000  0.5748500000000  0.4920670000000 1.0
C      1  0.5553690000000  0.4837810000000  0.5693770000000 1.0
C      1  0.4450230000000  0.5238490000000  0.4295830000000 1.0
C      1  0.5012010000000  0.4344650000000  0.4662420000000 1.0
C      1  0.4903760000000  0.5740250000000  0.5232030000000 1.0
C      1  0.5061130000000  0.5073440000000  0.4812160000000 1.0
C      1  0.4809580000000  0.4962800000000  0.5225890000000 1.0
C      1  0.5483890000000  0.4983330000000  0.4967830000000 1.0
C      1  0.4669510000000  0.4934040000000  0.4991220000000 1.0
C      1  0.5626670000000  0.5227800000000  0.5344440000000 1.0
C      1  0.4466480000000  0.4780950000000  0.4648760000000 1.0
C      1  0.5199630000000  0.5092680000000  0.4302200000000 1.0
C      1  0.4796090000000  0.4892380000000  0.5711560000000 1.0
C      1  0.5473580000000  0.4737100000000  0.4808540000000 1.0
C      1  0.4465920000000  0.5329040000000  0.5254410000000 1.0
C      1  0.5079580000000  0.5700700000000  0.5440450000000 1.0
C      1  0.4890290000000  0.4363850000000  0.4417080000000 1.0
C      1  0.4196440000000  0.4889770000000  0.5010410000000 1.0
C      1  0.5774100000000  0.5098630000000  0.4973070000000 1.0
C      1  0.4322390000000  0.5279030000000  0.4760990000000 1.0
C      1  0.5699020000000  0.4688450000000  0.5264980000000 1.0
C      1  0.4724790000000  0.5229210000000  0.5365440000000 1.0
C      1  0.5170670000000  0.4801610000000  0.4707400000000 1.0
C      1  0.4696190000000  0.5520100000000  0.4593850000000 1.0
C      1  0.5337830000000  0.4470840000000  0.5461360000000 1.0
C      1  0.4951800000000  0.4596950000000  0.4803720000000 1.0
C      1  0.5004980000000  0.5317770000000  0.5258700000000 1.0
C      1  0.4452850000000  0.4670670000000  0.5353100000000 1.0
C      1  0.5600050000000  0.5314310000000  0.4616010000000 1.0
C      1  0.4731140000000  0.5405140000000  0.4877260000000 1.0
C      1  0.5274120000000  0.4612390000000  0.5190570000000 1.0
C      1  0.4455590000000  0.5439750000000  0.4988370000000 1.0
C      1  0.5524870000000  0.4545910000000  0.5034120000000 1.0
C      1  0.4751730000000  0.5879500000000  0.5027940000000 1.0
C      1  0.5147310000000  0.4207910000000  0.4906420000000 1.0
C      1  0.5303380000000  0.4909270000000  0.5191380000000 1.0
C      1  0.4774390000000  0.5121190000000  0.4808590000000 1.0
C      1  0.5756030000000  0.4965290000000  0.5233210000000 1.0
C      1  0.4277130000000  0.4986920000000  0.4769690000000 1.0
C      1  0.5175470000000  0.5533080000000  0.4860070000000 1.0
C      1  0.4827640000000  0.4416790000000  0.5243560000000 1.0
C      1  0.4589890000000  0.4780210000000  0.4390770000000 1.0
C      1  0.5411780000000  0.5266360000000  0.5531830000000 1.0
C      1  0.4562090000000  0.4507380000000  0.5121300000000 1.0
C      1  0.5577170000000  0.5497470000000  0.4855020000000 1.0
C      1  0.4950140000000  0.5512410000000  0.5045050000000 1.0
C      1  0.5047530000000  0.4475240000000  0.5063110000000 1.0
C      1  0.5086120000000  0.4836170000000  0.5707880000000 1.0
C      1  0.4924340000000  0.5187320000000  0.4284000000000 1.0
C      1  0.5395530000000  0.4222220000000  0.5314280000000 1.0
C      1  0.4527540000000  0.5739450000000  0.4644410000000 1.0
C      1  0.5074330000000  0.5055230000000  0.5121630000000 1.0
END
