TITL C-25615-29-3 -577.042777686974 125000 -1130.92417624526 0 0 157 (Cs) n - 1
REM
REM in /rds/project/t2_vol4/rds-t2-cs072/BORA/CARBON/from-Arr/AIRSS/Generating-Clusters/GAP-ML-2020/Higher-Symm/SD-CG/HFTN-CG
REM
REM
REM
REM
REM
REM ./C.cell (b20cbc046b6831c77cfcea5457e17084)
REM AIRSS Version 0.9.1 bugfix July 2018 build 013d7b7c2542+ Fri, 06 Jul 2018 19:26:36 +0100
REM compiler GCC version 9.3.0
REM options -cpp -mtune=generic -march=x86-64 -g -O0
REM seed 351108245 -1629395284 -2007068888 1761221761 1374177624 658445492 -1014594383 745527205 2144113308 1923375447 -223166912 -1403368219 -1134588794 1308059590 1330476370 1567530278 636651099 1178308353 -2145093680 2009228049 -2137423379 -1244665782 -2023680057 385758680 -1707224142 230668441 -1564599438 -829654994 1819948379 1947189186 1955092364 -2081490352 -1024978937
REM
CELL 1.54180   50.00000   50.00000   50.00000   90.00000   90.00000   90.00000
LATT -1
SFAC C  
C      1  0.4507460000000  0.4453870000000  0.4846520000000 1.0
C      1  0.5715360000000  0.4850680000000  0.4846990000000 1.0
C      1  0.4775220000000  0.5703140000000  0.4846260000000 1.0
C      1  0.4507450000000  0.4453870000000  0.5153820000000 1.0
C      1  0.5715350000000  0.4850680000000  0.5153380000000 1.0
C      1  0.4775210000000  0.5703150000000  0.5154060000000 1.0
C      1  0.4507570000000  0.5549990000000  0.4845930000000 1.0
C      1  0.5716430000000  0.5154650000000  0.4847160000000 1.0
C      1  0.4773560000000  0.4302780000000  0.4846800000000 1.0
C      1  0.4507560000000  0.5550000000000  0.5154390000000 1.0
C      1  0.5716420000000  0.5154650000000  0.5153210000000 1.0
C      1  0.4773550000000  0.4302780000000  0.5153550000000 1.0
C      1  0.4312950000000  0.5140560000000  0.4230620000000 1.0
C      1  0.5227410000000  0.4330090000000  0.4226350000000 1.0
C      1  0.5470750000000  0.5532580000000  0.4224540000000 1.0
C      1  0.4312920000000  0.5140580000000  0.5769710000000 1.0
C      1  0.5227380000000  0.4330110000000  0.5774010000000 1.0
C      1  0.5470720000000  0.5532600000000  0.5775820000000 1.0
C      1  0.4309800000000  0.4860030000000  0.4227390000000 1.0
C      1  0.5228300000000  0.5673670000000  0.4225570000000 1.0
C      1  0.5469880000000  0.4471560000000  0.4226250000000 1.0
C      1  0.4309780000000  0.4860050000000  0.5772940000000 1.0
C      1  0.5228270000000  0.5673680000000  0.5774770000000 1.0
C      1  0.5469860000000  0.4471570000000  0.5774120000000 1.0
C      1  0.3983830000000  0.4850260000000  0.4859340000000 1.0
C      1  0.5636690000000  0.4199070000000  0.4859810000000 1.0
C      1  0.5396520000000  0.5955080000000  0.4859740000000 1.0
C      1  0.3983830000000  0.4850260000000  0.5140970000000 1.0
C      1  0.5636690000000  0.4199080000000  0.5140570000000 1.0
C      1  0.5396520000000  0.5955080000000  0.5140600000000 1.0
C      1  0.3978980000000  0.5141080000000  0.4859520000000 1.0
C      1  0.5644670000000  0.5802610000000  0.4859280000000 1.0
C      1  0.5385520000000  0.4051210000000  0.4859960000000 1.0
C      1  0.3978980000000  0.5141080000000  0.5140790000000 1.0
C      1  0.5644660000000  0.5802610000000  0.5141070000000 1.0
C      1  0.5385510000000  0.4051210000000  0.5140420000000 1.0
C      1  0.4765880000000  0.4309790000000  0.5757450000000 1.0
C      1  0.5719290000000  0.5142730000000  0.5758810000000 1.0
C      1  0.4525850000000  0.5550240000000  0.5752950000000 1.0
C      1  0.4765910000000  0.4309780000000  0.4242900000000 1.0
C      1  0.5719320000000  0.5142720000000  0.4241560000000 1.0
C      1  0.4525880000000  0.5550230000000  0.4247370000000 1.0
C      1  0.4767020000000  0.5692700000000  0.5756790000000 1.0
C      1  0.5718050000000  0.4861840000000  0.5757690000000 1.0
C      1  0.4522440000000  0.4449280000000  0.5757350000000 1.0
C      1  0.4767040000000  0.5692690000000  0.4243540000000 1.0
C      1  0.5718080000000  0.4861830000000  0.4242680000000 1.0
C      1  0.4522470000000  0.4449260000000  0.4242980000000 1.0
C      1  0.5251630000000  0.5143550000000  0.4034890000000 1.0
C      1  0.4759470000000  0.5142530000000  0.4044890000000 1.0
C      1  0.5002530000000  0.4714610000000  0.4036200000000 1.0
C      1  0.5251590000000  0.5143570000000  0.5965460000000 1.0
C      1  0.4759430000000  0.5142550000000  0.5955440000000 1.0
C      1  0.5002490000000  0.4714630000000  0.5964150000000 1.0
C      1  0.5250550000000  0.4858910000000  0.4034610000000 1.0
C      1  0.4756930000000  0.4856470000000  0.4039220000000 1.0
C      1  0.5003800000000  0.5286240000000  0.4039930000000 1.0
C      1  0.5250520000000  0.4858930000000  0.5965750000000 1.0
C      1  0.4756900000000  0.4856490000000  0.5961120000000 1.0
C      1  0.5003760000000  0.5286260000000  0.5960410000000 1.0
C      1  0.5512450000000  0.5577660000000  0.5298670000000 1.0
C      1  0.4239330000000  0.5155760000000  0.5300560000000 1.0
C      1  0.5245540000000  0.4270410000000  0.5297910000000 1.0
C      1  0.5512450000000  0.5577650000000  0.4701680000000 1.0
C      1  0.4239340000000  0.5155760000000  0.4699760000000 1.0
C      1  0.5245550000000  0.4270410000000  0.4702460000000 1.0
C      1  0.5510840000000  0.4427180000000  0.5298140000000 1.0
C      1  0.4244140000000  0.4846220000000  0.5299330000000 1.0
C      1  0.5249750000000  0.5739000000000  0.5298640000000 1.0
C      1  0.5510850000000  0.4427170000000  0.4702230000000 1.0
C      1  0.4244150000000  0.4846210000000  0.4701000000000 1.0
C      1  0.5249760000000  0.5738990000000  0.4701700000000 1.0
C      1  0.4765240000000  0.5137480000000  0.5252350000000 1.0
C      1  0.5002100000000  0.4714160000000  0.5315130000000 1.0
C      1  0.5248550000000  0.5149190000000  0.5320390000000 1.0
C      1  0.4765250000000  0.5137470000000  0.4747990000000 1.0
C      1  0.5002110000000  0.4714150000000  0.4685220000000 1.0
C      1  0.5248560000000  0.5149190000000  0.4679970000000 1.0
C      1  0.4750260000000  0.4856910000000  0.5312340000000 1.0
C      1  0.5006710000000  0.5296820000000  0.5313010000000 1.0
C      1  0.5243090000000  0.4858780000000  0.5313980000000 1.0
C      1  0.4750270000000  0.4856900000000  0.4688000000000 1.0
C      1  0.5006720000000  0.5296810000000  0.4687330000000 1.0
C      1  0.5243100000000  0.4858770000000  0.4686370000000 1.0
C      1  0.6163840000000  0.5157130000000  0.5148860000000 1.0
C      1  0.4288220000000  0.5936160000000  0.5149440000000 1.0
C      1  0.4551130000000  0.3915590000000  0.5148880000000 1.0
C      1  0.6163850000000  0.5157130000000  0.4851520000000 1.0
C      1  0.4288220000000  0.5936160000000  0.4850870000000 1.0
C      1  0.4551130000000  0.3915590000000  0.4851470000000 1.0
C      1  0.6162810000000  0.4851210000000  0.5148430000000 1.0
C      1  0.4286110000000  0.4066770000000  0.5149220000000 1.0
C      1  0.4551490000000  0.6087960000000  0.5149530000000 1.0
C      1  0.6162810000000  0.4851210000000  0.4851960000000 1.0
C      1  0.4286120000000  0.4066760000000  0.4851120000000 1.0
C      1  0.4551500000000  0.6087960000000  0.4850780000000 1.0
C      1  0.5490630000000  0.5272070000000  0.4117880000000 1.0
C      1  0.4531120000000  0.5285510000000  0.4130230000000 1.0
C      1  0.4992840000000  0.4443410000000  0.4119770000000 1.0
C      1  0.5490600000000  0.5272090000000  0.5882470000000 1.0
C      1  0.4531090000000  0.5285530000000  0.5870100000000 1.0
C      1  0.4992810000000  0.4443420000000  0.5880590000000 1.0
C      1  0.5489490000000  0.4731650000000  0.4119420000000 1.0
C      1  0.4525920000000  0.4713420000000  0.4121210000000 1.0
C      1  0.4993520000000  0.5557820000000  0.4121720000000 1.0
C      1  0.5489460000000  0.4731670000000  0.5880950000000 1.0
C      1  0.4525890000000  0.4713430000000  0.5879120000000 1.0
C      1  0.4993490000000  0.5557840000000  0.5878620000000 1.0
C      1  0.4864880000000  0.5883580000000  0.5557360000000 1.0
C      1  0.4308720000000  0.4439460000000  0.5557130000000 1.0
C      1  0.5831960000000  0.4682630000000  0.5556170000000 1.0
C      1  0.4864900000000  0.5883570000000  0.4442970000000 1.0
C      1  0.4308740000000  0.4439450000000  0.4443210000000 1.0
C      1  0.5831980000000  0.4682620000000  0.4444210000000 1.0
C      1  0.4863770000000  0.4120580000000  0.5556580000000 1.0
C      1  0.4310900000000  0.5562230000000  0.5555960000000 1.0
C      1  0.5832710000000  0.5322550000000  0.5557310000000 1.0
C      1  0.4863790000000  0.4120570000000  0.4443780000000 1.0
C      1  0.4310920000000  0.5562220000000  0.4444350000000 1.0
C      1  0.5832730000000  0.5322540000000  0.4443060000000 1.0
C      1  0.4498970000000  0.5249550000000  0.4841850000000 1.0
C      1  0.5032970000000  0.4456280000000  0.4837570000000 1.0
C      1  0.5454410000000  0.5302120000000  0.4837150000000 1.0
C      1  0.4498960000000  0.5249550000000  0.5158480000000 1.0
C      1  0.5032970000000  0.4456280000000  0.5162790000000 1.0
C      1  0.5454400000000  0.5302120000000  0.5163210000000 1.0
C      1  0.4508050000000  0.4754220000000  0.4836510000000 1.0
C      1  0.5038170000000  0.5556340000000  0.4837290000000 1.0
C      1  0.5453260000000  0.4703340000000  0.4836700000000 1.0
C      1  0.4508040000000  0.4754220000000  0.5163820000000 1.0
C      1  0.5038170000000  0.5556340000000  0.5163050000000 1.0
C      1  0.5453250000000  0.4703340000000  0.5163660000000 1.0
C      1  0.4753210000000  0.5952610000000  0.4699180000000 1.0
C      1  0.4303590000000  0.4308600000000  0.4698970000000 1.0
C      1  0.5944360000000  0.4744990000000  0.4701010000000 1.0
C      1  0.4753200000000  0.5952620000000  0.5301140000000 1.0
C      1  0.4303580000000  0.4308600000000  0.5301370000000 1.0
C      1  0.5944350000000  0.4744990000000  0.5299370000000 1.0
C      1  0.4752250000000  0.4052500000000  0.4699980000000 1.0
C      1  0.4304070000000  0.5694100000000  0.4699390000000 1.0
C      1  0.5944870000000  0.5260820000000  0.4699990000000 1.0
C      1  0.4752240000000  0.4052500000000  0.5300370000000 1.0
C      1  0.4304060000000  0.5694110000000  0.5300920000000 1.0
C      1  0.5944860000000  0.5260820000000  0.5300390000000 1.0
C      1  0.5649410000000  0.4464760000000  0.4447740000000 1.0
C      1  0.5145310000000  0.5834980000000  0.4446890000000 1.0
C      1  0.4211700000000  0.4706790000000  0.4446990000000 1.0
C      1  0.5649390000000  0.4464770000000  0.5552640000000 1.0
C      1  0.5145300000000  0.5834990000000  0.5553450000000 1.0
C      1  0.4211680000000  0.4706800000000  0.5553340000000 1.0
C      1  0.5649870000000  0.5539900000000  0.4446570000000 1.0
C      1  0.5143860000000  0.4170010000000  0.4447660000000 1.0
C      1  0.4212760000000  0.5295190000000  0.4447490000000 1.0
C      1  0.5649850000000  0.5539910000000  0.5553790000000 1.0
C      1  0.5143840000000  0.4170020000000  0.5552700000000 1.0
C      1  0.4212740000000  0.5295200000000  0.5552830000000 1.0
C      1  0.4901910000000  0.5080020000000  0.5000170000000 1.0
END
