TITL C-25925-7860-1 0.224665305532422 125000 -956.43662294366 0 0 140 (Cs) n - 1
REM
REM in /rds/project/t2_vol4/rds-t2-cs072/BORA/CARBON/from-Arr/AIRSS/Generating-Clusters/GAP-ML-2020/Higher-Symm/SD-CG/HFTN-CG
REM
REM
REM
REM
REM
REM ./C.cell (b20cbc046b6831c77cfcea5457e17084)
REM AIRSS Version 0.9.1 bugfix July 2018 build 013d7b7c2542+ Fri, 06 Jul 2018 19:26:36 +0100
REM compiler GCC version 9.3.0
REM options -cpp -mtune=generic -march=x86-64 -g -O0
REM seed 1888491402 -1484721534 -1544015258 1117898764 -770080778 -1070866823 -1161567038 -1281503454 -1741810350 1417531609 -286854820 -1098815783 -957522321 1060165270 -1517895393 -1553313387 -1882342073 -1553088542 -1301965189 -1546257138 -357456739 33861096 -2051198308 -57789716 -1161670591 -1746652450 -282105824 849406825 -813660020 1640438574 -1366029066 -1375027562 -469419039
REM
CELL 1.54180   50.00000   50.00000   50.00000   90.00000   90.00000   90.00000
LATT -1
SFAC C  
C      1  0.4338600000000  0.5307090000000  0.4157460000000 1.0
C      1  0.6074560000000  0.5284660000000  0.4842150000000 1.0
C      1  0.4623750000000  0.5280590000000  0.5908480000000 1.0
C      1  0.4338480000000  0.4705150000000  0.4157600000000 1.0
C      1  0.6074450000000  0.4727200000000  0.4842280000000 1.0
C      1  0.4623640000000  0.4732330000000  0.5908610000000 1.0
C      1  0.4332730000000  0.5297700000000  0.5845860000000 1.0
C      1  0.6076540000000  0.5284640000000  0.5143060000000 1.0
C      1  0.4609700000000  0.5314960000000  0.4020860000000 1.0
C      1  0.4332610000000  0.4715310000000  0.5845990000000 1.0
C      1  0.6076430000000  0.4727350000000  0.5143190000000 1.0
C      1  0.4609580000000  0.4697110000000  0.4021000000000 1.0
C      1  0.5727850000000  0.4448140000000  0.4664780000000 1.0
C      1  0.4944600000000  0.4401990000000  0.5732720000000 1.0
C      1  0.4318130000000  0.4448850000000  0.4551280000000 1.0
C      1  0.5728070000000  0.5563770000000  0.4664520000000 1.0
C      1  0.4944840000000  0.5610730000000  0.5732450000000 1.0
C      1  0.4318360000000  0.5563580000000  0.4551030000000 1.0
C      1  0.5730750000000  0.4445550000000  0.5322130000000 1.0
C      1  0.4949720000000  0.4415820000000  0.4239380000000 1.0
C      1  0.4259850000000  0.4458060000000  0.5468320000000 1.0
C      1  0.5730970000000  0.5566660000000  0.5321870000000 1.0
C      1  0.4949950000000  0.5596210000000  0.4239110000000 1.0
C      1  0.4260060000000  0.5554800000000  0.5468070000000 1.0
C      1  0.5492070000000  0.4859070000000  0.4753120000000 1.0
C      1  0.4933200000000  0.4851580000000  0.5544590000000 1.0
C      1  0.4516090000000  0.4849090000000  0.4706330000000 1.0
C      1  0.5492130000000  0.5152980000000  0.4753050000000 1.0
C      1  0.4933270000000  0.5161050000000  0.5544520000000 1.0
C      1  0.4516160000000  0.5163320000000  0.4706260000000 1.0
C      1  0.5489240000000  0.4859100000000  0.5248990000000 1.0
C      1  0.4943710000000  0.4856100000000  0.4463600000000 1.0
C      1  0.4492290000000  0.4855930000000  0.5347530000000 1.0
C      1  0.5489300000000  0.5153170000000  0.5248930000000 1.0
C      1  0.4943770000000  0.5156040000000  0.4463540000000 1.0
C      1  0.4492350000000  0.5156790000000  0.5347460000000 1.0
C      1  0.5588970000000  0.4856000000000  0.5697330000000 1.0
C      1  0.4054310000000  0.4861780000000  0.5152850000000 1.0
C      1  0.5318820000000  0.4859020000000  0.4164190000000 1.0
C      1  0.5589030000000  0.5156440000000  0.5697270000000 1.0
C      1  0.4054370000000  0.5151020000000  0.5152790000000 1.0
C      1  0.5318880000000  0.5152830000000  0.4164130000000 1.0
C      1  0.5576400000000  0.4857550000000  0.4294410000000 1.0
C      1  0.4068170000000  0.4857900000000  0.4861730000000 1.0
C      1  0.5329530000000  0.4857360000000  0.5821690000000 1.0
C      1  0.5576460000000  0.5154250000000  0.4294340000000 1.0
C      1  0.4068220000000  0.5154760000000  0.4861660000000 1.0
C      1  0.5329590000000  0.5155240000000  0.5821620000000 1.0
C      1  0.5499460000000  0.5707450000000  0.4728800000000 1.0
C      1  0.5037070000000  0.5765140000000  0.5508370000000 1.0
C      1  0.4502950000000  0.5705580000000  0.4679940000000 1.0
C      1  0.5499180000000  0.4304580000000  0.4729120000000 1.0
C      1  0.5036770000000  0.4247440000000  0.5508720000000 1.0
C      1  0.4502670000000  0.4306830000000  0.4680260000000 1.0
C      1  0.5504500000000  0.5709810000000  0.5248210000000 1.0
C      1  0.5050410000000  0.5756550000000  0.4452450000000 1.0
C      1  0.4311910000000  0.5748460000000  0.5285100000000 1.0
C      1  0.5504220000000  0.4302460000000  0.5248540000000 1.0
C      1  0.5050110000000  0.4255540000000  0.4452800000000 1.0
C      1  0.4311610000000  0.4264300000000  0.5285440000000 1.0
C      1  0.5685830000000  0.4730520000000  0.4545360000000 1.0
C      1  0.5065900000000  0.4721950000000  0.5791520000000 1.0
C      1  0.4231260000000  0.4735950000000  0.4637000000000 1.0
C      1  0.5685940000000  0.5281360000000  0.4545240000000 1.0
C      1  0.5066010000000  0.5290740000000  0.5791390000000 1.0
C      1  0.4231370000000  0.5276540000000  0.4636880000000 1.0
C      1  0.5691040000000  0.4727650000000  0.5446630000000 1.0
C      1  0.5051370000000  0.4727460000000  0.4202370000000 1.0
C      1  0.4203550000000  0.4746060000000  0.5391910000000 1.0
C      1  0.5691150000000  0.5284640000000  0.5446510000000 1.0
C      1  0.5051480000000  0.5284510000000  0.4202240000000 1.0
C      1  0.4203650000000  0.5266790000000  0.5391790000000 1.0
C      1  0.4675280000000  0.4446650000000  0.4160590000000 1.0
C      1  0.5945950000000  0.4469380000000  0.5138000000000 1.0
C      1  0.4382590000000  0.4457670000000  0.5723490000000 1.0
C      1  0.4675500000000  0.5565450000000  0.4160330000000 1.0
C      1  0.5946160000000  0.5542670000000  0.5137750000000 1.0
C      1  0.4382810000000  0.5555260000000  0.5723240000000 1.0
C      1  0.4672750000000  0.4450650000000  0.5813250000000 1.0
C      1  0.5944300000000  0.4469760000000  0.4847960000000 1.0
C      1  0.4406220000000  0.4453890000000  0.4282830000000 1.0
C      1  0.4672970000000  0.5562210000000  0.5812990000000 1.0
C      1  0.5944510000000  0.5542150000000  0.4847710000000 1.0
C      1  0.4406440000000  0.5558370000000  0.4282580000000 1.0
C      1  0.4167460000000  0.5142320000000  0.5667440000000 1.0
C      1  0.4840360000000  0.5148380000000  0.4019940000000 1.0
C      1  0.5948950000000  0.5142690000000  0.5352190000000 1.0
C      1  0.4167400000000  0.4870670000000  0.5667510000000 1.0
C      1  0.4840300000000  0.4863590000000  0.4020010000000 1.0
C      1  0.5948890000000  0.4869450000000  0.5352260000000 1.0
C      1  0.4199140000000  0.5145110000000  0.4355160000000 1.0
C      1  0.4874900000000  0.5146580000000  0.5982210000000 1.0
C      1  0.5945200000000  0.5142430000000  0.4634430000000 1.0
C      1  0.4199080000000  0.4867270000000  0.4355220000000 1.0
C      1  0.4874850000000  0.4866280000000  0.5982270000000 1.0
C      1  0.5945140000000  0.4869380000000  0.4634490000000 1.0
C      1  0.4667600000000  0.5316510000000  0.5171430000000 1.0
C      1  0.4979830000000  0.5279000000000  0.4722190000000 1.0
C      1  0.5231980000000  0.5259430000000  0.5152910000000 1.0
C      1  0.4667480000000  0.4696060000000  0.5171570000000 1.0
C      1  0.4979720000000  0.4733230000000  0.4722320000000 1.0
C      1  0.5231880000000  0.4752900000000  0.5153020000000 1.0
C      1  0.4706050000000  0.5315020000000  0.4878750000000 1.0
C      1  0.4955630000000  0.5294020000000  0.5286190000000 1.0
C      1  0.5239910000000  0.5259720000000  0.4853030000000 1.0
C      1  0.4705930000000  0.4697400000000  0.4878900000000 1.0
C      1  0.4955510000000  0.4718490000000  0.5286320000000 1.0
C      1  0.5239810000000  0.4752470000000  0.4853140000000 1.0
C      1  0.5372440000000  0.5949950000000  0.5156350000000 1.0
C      1  0.4921790000000  0.6019150000000  0.5098430000000 1.0
C      1  0.5135370000000  0.5988930000000  0.4647620000000 1.0
C      1  0.5372060000000  0.4062330000000  0.5156780000000 1.0
C      1  0.4921390000000  0.3993280000000  0.5098890000000 1.0
C      1  0.5134980000000  0.4023210000000  0.4648070000000 1.0
C      1  0.5374880000000  0.5946020000000  0.4825890000000 1.0
C      1  0.4975020000000  0.6094200000000  0.4837390000000 1.0
C      1  0.5124050000000  0.5990650000000  0.5308530000000 1.0
C      1  0.5374510000000  0.4066100000000  0.4826320000000 1.0
C      1  0.4974590000000  0.3918090000000  0.4837890000000 1.0
C      1  0.5123660000000  0.4021800000000  0.5308980000000 1.0
C      1  0.4730890000000  0.4380530000000  0.4826150000000 1.0
C      1  0.5263330000000  0.4446580000000  0.4842840000000 1.0
C      1  0.5005100000000  0.4414930000000  0.5269300000000 1.0
C      1  0.4731140000000  0.5631850000000  0.4825870000000 1.0
C      1  0.5263550000000  0.5565600000000  0.4842580000000 1.0
C      1  0.5005340000000  0.5597550000000  0.5269030000000 1.0
C      1  0.4551740000000  0.4367850000000  0.5211800000000 1.0
C      1  0.5268670000000  0.4451000000000  0.5138950000000 1.0
C      1  0.5011910000000  0.4419720000000  0.4688980000000 1.0
C      1  0.4551990000000  0.5644780000000  0.5211510000000 1.0
C      1  0.5268890000000  0.5561310000000  0.5138700000000 1.0
C      1  0.5012140000000  0.5592490000000  0.4688710000000 1.0
C      1  0.4644360000000  0.4854740000000  0.5613990000000 1.0
C      1  0.4644420000000  0.5158040000000  0.5613920000000 1.0
C      1  0.4652150000000  0.4852740000000  0.4447330000000 1.0
C      1  0.4652210000000  0.5159500000000  0.4447260000000 1.0
C      1  0.5649380000000  0.4852970000000  0.5000430000000 1.0
C      1  0.5649440000000  0.5159130000000  0.5000360000000 1.0
C      1  0.4782560000000  0.5758470000000  0.5093290000000 1.0
C      1  0.4782260000000  0.4254020000000  0.5093630000000 1.0
END
