TITL C-25023-9683-4 -0.179387943977171 125000 -523.008318956047 0 0 75 (C1) n - 1
REM
REM in /rds/project/t2_vol4/rds-t2-cs072/BORA/CARBON/from-Arr/AIRSS/Generating-Clusters/GAP-ML-2020/Higher-Symm/SD-CG/HFTN-CG
REM
REM
REM
REM
REM
REM ./C.cell (b20cbc046b6831c77cfcea5457e17084)
REM AIRSS Version 0.9.1 bugfix July 2018 build 013d7b7c2542+ Fri, 06 Jul 2018 19:26:36 +0100
REM compiler GCC version 9.3.0
REM options -cpp -mtune=generic -march=x86-64 -g -O0
REM seed 1342263306 -1234604643 -1778524586 -471140461 410834945 344628296 -512230885 922870862 -1615856956 -1173898850 -55283939 743689010 1306094751 1915096818 1662387227 -252955677 86071928 -1453070081 323844293 897105972 626312317 395574667 1649801193 -2051605240 921626978 -1182045536 -224162139 1480207308 -389698158 -995606867 343037851 1151871960 1139895562
REM
CELL 1.54180   50.00000   50.00000   50.00000   90.00000   90.00000   90.00000
LATT -1
SFAC C  
C      1  0.4752570000000  0.4510510000000  0.5275960000000 1.0
C      1  0.5568060000000  0.4919780000000  0.5301690000000 1.0
C      1  0.4915340000000  0.5158740000000  0.5291560000000 1.0
C      1  0.4859890000000  0.5773590000000  0.4500600000000 1.0
C      1  0.5092640000000  0.5628650000000  0.4471300000000 1.0
C      1  0.4306530000000  0.4940350000000  0.5062420000000 1.0
C      1  0.4533970000000  0.5490680000000  0.5292030000000 1.0
C      1  0.5277170000000  0.4252840000000  0.5219570000000 1.0
C      1  0.5467970000000  0.5155230000000  0.4494030000000 1.0
C      1  0.5260890000000  0.4747300000000  0.4343880000000 1.0
C      1  0.4780100000000  0.5629620000000  0.5249650000000 1.0
C      1  0.4898280000000  0.4394470000000  0.5517120000000 1.0
C      1  0.4638280000000  0.5348100000000  0.4535600000000 1.0
C      1  0.4907370000000  0.4752090000000  0.5119510000000 1.0
C      1  0.5309840000000  0.5836210000000  0.5110350000000 1.0
C      1  0.4345580000000  0.5171460000000  0.4899300000000 1.0
C      1  0.4390430000000  0.4898480000000  0.5346520000000 1.0
C      1  0.5185430000000  0.5104290000000  0.5710170000000 1.0
C      1  0.4609680000000  0.4338080000000  0.5074260000000 1.0
C      1  0.4628340000000  0.4465780000000  0.4618440000000 1.0
C      1  0.4307020000000  0.4683110000000  0.4928870000000 1.0
C      1  0.5557190000000  0.5391410000000  0.5150810000000 1.0
C      1  0.5095780000000  0.4538890000000  0.4458160000000 1.0
C      1  0.5067330000000  0.5406640000000  0.4294420000000 1.0
C      1  0.5350700000000  0.5282570000000  0.5561930000000 1.0
C      1  0.5432220000000  0.4480210000000  0.4824040000000 1.0
C      1  0.5390170000000  0.5618720000000  0.5249810000000 1.0
C      1  0.4469200000000  0.4625340000000  0.5345520000000 1.0
C      1  0.4949880000000  0.5588560000000  0.5480090000000 1.0
C      1  0.4809180000000  0.4571580000000  0.4426390000000 1.0
C      1  0.4808750000000  0.5280260000000  0.4309380000000 1.0
C      1  0.5570360000000  0.5577070000000  0.4692660000000 1.0
C      1  0.5469740000000  0.4438880000000  0.5110420000000 1.0
C      1  0.4442560000000  0.5157280000000  0.4622350000000 1.0
C      1  0.5518760000000  0.4731120000000  0.4729960000000 1.0
C      1  0.5487460000000  0.4852540000000  0.4482470000000 1.0
C      1  0.4373060000000  0.4483790000000  0.5115980000000 1.0
C      1  0.5569320000000  0.5190140000000  0.5392720000000 1.0
C      1  0.4855360000000  0.5009130000000  0.4228980000000 1.0
C      1  0.5195470000000  0.4382230000000  0.4676150000000 1.0
C      1  0.4499810000000  0.5333560000000  0.5063170000000 1.0
C      1  0.4689900000000  0.4817100000000  0.4337940000000 1.0
C      1  0.5674610000000  0.5329240000000  0.4615810000000 1.0
C      1  0.5369730000000  0.5220470000000  0.5006800000000 1.0
C      1  0.4510970000000  0.5066750000000  0.5552740000000 1.0
C      1  0.4801220000000  0.5423840000000  0.5663540000000 1.0
C      1  0.4549290000000  0.5352050000000  0.5537560000000 1.0
C      1  0.4470260000000  0.4893880000000  0.4510320000000 1.0
C      1  0.5183070000000  0.4360210000000  0.5471710000000 1.0
C      1  0.4421500000000  0.4663580000000  0.4670290000000 1.0
C      1  0.4829170000000  0.4471250000000  0.5776050000000 1.0
C      1  0.4723250000000  0.4292370000000  0.4820870000000 1.0
C      1  0.5691830000000  0.5437330000000  0.4893540000000 1.0
C      1  0.5515870000000  0.4641010000000  0.5321070000000 1.0
C      1  0.4920260000000  0.5189180000000  0.5767590000000 1.0
C      1  0.5093720000000  0.4989880000000  0.4749920000000 1.0
C      1  0.4892750000000  0.4736030000000  0.5730420000000 1.0
C      1  0.4810160000000  0.5231190000000  0.5039870000000 1.0
C      1  0.5153710000000  0.4827540000000  0.5607970000000 1.0
C      1  0.5274750000000  0.5566900000000  0.4696440000000 1.0
C      1  0.5299320000000  0.4830420000000  0.4882650000000 1.0
C      1  0.5117530000000  0.4105040000000  0.5055980000000 1.0
C      1  0.4734500000000  0.4976430000000  0.5718670000000 1.0
C      1  0.4764530000000  0.5580350000000  0.4684280000000 1.0
C      1  0.5068890000000  0.4916770000000  0.5298040000000 1.0
C      1  0.4885750000000  0.5568340000000  0.4972180000000 1.0
C      1  0.5236720000000  0.5528900000000  0.5470770000000 1.0
C      1  0.5271830000000  0.5212470000000  0.4272300000000 1.0
C      1  0.5010000000000  0.4231880000000  0.4832260000000 1.0
C      1  0.4865830000000  0.4959390000000  0.4909140000000 1.0
C      1  0.5160640000000  0.5680140000000  0.4938980000000 1.0
C      1  0.5328380000000  0.4594310000000  0.5530480000000 1.0
C      1  0.5265950000000  0.5240430000000  0.4737920000000 1.0
C      1  0.5327960000000  0.4960030000000  0.5134340000000 1.0
C      1  0.5138480000000  0.4966010000000  0.4213290000000 1.0
END
