TITL C-25026-9707-3 -36.8639393889068 125000 -442.154312154737 0 0 65 (C1) n - 1
REM
REM in /rds/project/t2_vol4/rds-t2-cs072/BORA/CARBON/from-Arr/AIRSS/Generating-Clusters/GAP-ML-2020/Higher-Symm/SD-CG/HFTN-CG
REM
REM
REM
REM
REM
REM ./C.cell (b20cbc046b6831c77cfcea5457e17084)
REM AIRSS Version 0.9.1 bugfix July 2018 build 013d7b7c2542+ Fri, 06 Jul 2018 19:26:36 +0100
REM compiler GCC version 9.3.0
REM options -cpp -mtune=generic -march=x86-64 -g -O0
REM seed -889867227 1125367894 -610078138 21875975 -240166763 1184240773 -1351863794 124541095 594283668 845360098 1372963802 -525099052 -1331896566 -1607279972 863977163 988966133 317853329 862268893 -178527552 1128912623 -1436848862 2080799492 2082145130 -1926052188 1528323221 -716268019 -138920194 629098674 898873349 -1012670126 608341490 2146804133 -935000843
REM
CELL 1.54180   50.00000   50.00000   50.00000   90.00000   90.00000   90.00000
LATT -1
SFAC C  
C      1  0.5460830000000  0.5399330000000  0.4749730000000 1.0
C      1  0.5266250000000  0.5426030000000  0.5461170000000 1.0
C      1  0.4553360000000  0.5381430000000  0.5261750000000 1.0
C      1  0.4741420000000  0.5412110000000  0.4544830000000 1.0
C      1  0.4889010000000  0.5719720000000  0.5185640000000 1.0
C      1  0.4827490000000  0.5723200000000  0.4901890000000 1.0
C      1  0.5111860000000  0.5739460000000  0.4835010000000 1.0
C      1  0.5173380000000  0.5745460000000  0.5117820000000 1.0
C      1  0.4906640000000  0.4865890000000  0.5285390000000 1.0
C      1  0.4798690000000  0.4920210000000  0.4839590000000 1.0
C      1  0.5199060000000  0.4787830000000  0.4714440000000 1.0
C      1  0.5259410000000  0.4882420000000  0.4995410000000 1.0
C      1  0.4402630000000  0.4837060000000  0.4500050000000 1.0
C      1  0.5351610000000  0.4809720000000  0.4282420000000 1.0
C      1  0.5586940000000  0.4859520000000  0.5496340000000 1.0
C      1  0.4618810000000  0.4762740000000  0.5675740000000 1.0
C      1  0.4648090000000  0.5547010000000  0.4786730000000 1.0
C      1  0.5222430000000  0.5546200000000  0.4667120000000 1.0
C      1  0.5354810000000  0.5567670000000  0.5221190000000 1.0
C      1  0.4793570000000  0.5515410000000  0.5353670000000 1.0
C      1  0.5104870000000  0.5158070000000  0.4433800000000 1.0
C      1  0.5650350000000  0.5197610000000  0.5131430000000 1.0
C      1  0.4918230000000  0.5140430000000  0.5657210000000 1.0
C      1  0.4341550000000  0.5196730000000  0.4835140000000 1.0
C      1  0.5305190000000  0.4555160000000  0.4398410000000 1.0
C      1  0.5559620000000  0.4644620000000  0.5311290000000 1.0
C      1  0.4640430000000  0.4501230000000  0.5561790000000 1.0
C      1  0.4414070000000  0.4635980000000  0.4695180000000 1.0
C      1  0.4820260000000  0.4592310000000  0.5759520000000 1.0
C      1  0.4221460000000  0.4619340000000  0.4889300000000 1.0
C      1  0.5113370000000  0.4681030000000  0.4238520000000 1.0
C      1  0.5747220000000  0.4594870000000  0.5110270000000 1.0
C      1  0.4534290000000  0.5029110000000  0.4947440000000 1.0
C      1  0.4974880000000  0.4930110000000  0.4584470000000 1.0
C      1  0.5538850000000  0.4999010000000  0.4966910000000 1.0
C      1  0.5126040000000  0.4939250000000  0.5710460000000 1.0
C      1  0.4478550000000  0.5406330000000  0.4972410000000 1.0
C      1  0.5028270000000  0.5411580000000  0.4507290000000 1.0
C      1  0.5527680000000  0.5431590000000  0.5033160000000 1.0
C      1  0.4987650000000  0.5381110000000  0.5523310000000 1.0
C      1  0.5655860000000  0.4894580000000  0.4738220000000 1.0
C      1  0.5389510000000  0.4990170000000  0.5665270000000 1.0
C      1  0.4415160000000  0.4938370000000  0.5188080000000 1.0
C      1  0.4635350000000  0.4902290000000  0.4352710000000 1.0
C      1  0.5062630000000  0.4662780000000  0.5652310000000 1.0
C      1  0.4367670000000  0.4663760000000  0.5125660000000 1.0
C      1  0.4877750000000  0.4722240000000  0.4399310000000 1.0
C      1  0.5627650000000  0.4628110000000  0.4862770000000 1.0
C      1  0.5185190000000  0.4495390000000  0.4670750000000 1.0
C      1  0.5294760000000  0.4610700000000  0.5165550000000 1.0
C      1  0.4777070000000  0.4451680000000  0.5313420000000 1.0
C      1  0.4698350000000  0.4586730000000  0.4815650000000 1.0
C      1  0.5661160000000  0.5129650000000  0.5403040000000 1.0
C      1  0.4652490000000  0.5033510000000  0.5606110000000 1.0
C      1  0.4348520000000  0.5123960000000  0.4563620000000 1.0
C      1  0.5373650000000  0.5074350000000  0.4391330000000 1.0
C      1  0.5372680000000  0.4479010000000  0.4899680000000 1.0
C      1  0.5049270000000  0.4599440000000  0.5353040000000 1.0
C      1  0.4620420000000  0.4501420000000  0.5088180000000 1.0
C      1  0.4891470000000  0.4500840000000  0.4625100000000 1.0
C      1  0.4588260000000  0.5203760000000  0.4422960000000 1.0
C      1  0.5531660000000  0.5142710000000  0.4616580000000 1.0
C      1  0.5457470000000  0.5251960000000  0.5564840000000 1.0
C      1  0.4497330000000  0.5127830000000  0.5384740000000 1.0
C      1  0.4993600000000  0.4998830000000  0.5046240000000 1.0
END
