TITL C-25830-2298-5 -0.280494210110951 125000 -781.785161281633 0 0 115 (C1) n - 1
REM
REM in /rds/project/t2_vol4/rds-t2-cs072/BORA/CARBON/from-Arr/AIRSS/Generating-Clusters/GAP-ML-2020/Higher-Symm/SD-CG/HFTN-CG
REM
REM
REM
REM
REM
REM ./C.cell (b20cbc046b6831c77cfcea5457e17084)
REM AIRSS Version 0.9.1 bugfix July 2018 build 013d7b7c2542+ Fri, 06 Jul 2018 19:26:36 +0100
REM compiler GCC version 9.3.0
REM options -cpp -mtune=generic -march=x86-64 -g -O0
REM seed 1879597891 459888499 381684118 1566303777 -1204164063 -1639453141 329725442 1568965991 -1688767943 372734195 1381961877 -198870750 -1530221044 -874491653 -1208516834 -784141145 -188406923 -35807061 1009075079 947234986 991454033 -728140992 879416575 -1264786954 -2050216993 -687243411 -203147453 -265574894 -533278663 -1216862251 -2119817698 1104611680 -959704115
REM
CELL 1.54180   50.00000   50.00000   50.00000   90.00000   90.00000   90.00000
LATT -1
SFAC C  
C      1  0.4374330000000  0.4758920000000  0.5269970000000 1.0
C      1  0.5223180000000  0.4258700000000  0.4716780000000 1.0
C      1  0.4710450000000  0.5257980000000  0.4363320000000 1.0
C      1  0.5871500000000  0.4606380000000  0.4715460000000 1.0
C      1  0.4420800000000  0.5196760000000  0.4762050000000 1.0
C      1  0.5667460000000  0.5227710000000  0.5172390000000 1.0
C      1  0.4765190000000  0.4417410000000  0.5204860000000 1.0
C      1  0.5175980000000  0.5752260000000  0.5397850000000 1.0
C      1  0.4762670000000  0.5515480000000  0.4771460000000 1.0
C      1  0.5131560000000  0.5404860000000  0.5709720000000 1.0
C      1  0.4646810000000  0.4763080000000  0.5726200000000 1.0
C      1  0.5299900000000  0.4722110000000  0.4225030000000 1.0
C      1  0.4325720000000  0.5220460000000  0.5251820000000 1.0
C      1  0.5276390000000  0.5669040000000  0.4707110000000 1.0
C      1  0.4797970000000  0.4801190000000  0.4449100000000 1.0
C      1  0.5815960000000  0.5198710000000  0.4577430000000 1.0
C      1  0.4421640000000  0.4763020000000  0.4765190000000 1.0
C      1  0.5664350000000  0.4767960000000  0.5217110000000 1.0
C      1  0.4716160000000  0.5559030000000  0.5244070000000 1.0
C      1  0.5298360000000  0.4400240000000  0.5153610000000 1.0
C      1  0.4771480000000  0.4428310000000  0.4751410000000 1.0
C      1  0.5271050000000  0.4815420000000  0.5786850000000 1.0
C      1  0.4657730000000  0.5235320000000  0.5585140000000 1.0
C      1  0.5249230000000  0.5381310000000  0.4239860000000 1.0
C      1  0.4485380000000  0.4485180000000  0.4815110000000 1.0
C      1  0.4859230000000  0.4510460000000  0.4456270000000 1.0
C      1  0.4498590000000  0.4844450000000  0.4483880000000 1.0
C      1  0.5603230000000  0.4458570000000  0.5140980000000 1.0
C      1  0.4438050000000  0.5491770000000  0.5146910000000 1.0
C      1  0.5534630000000  0.5585270000000  0.4832060000000 1.0
C      1  0.5210770000000  0.4507930000000  0.5421240000000 1.0
C      1  0.4706980000000  0.5531550000000  0.5533360000000 1.0
C      1  0.5135090000000  0.5466580000000  0.4501030000000 1.0
C      1  0.5672270000000  0.4877480000000  0.5500970000000 1.0
C      1  0.4363480000000  0.5173670000000  0.5557170000000 1.0
C      1  0.5668750000000  0.5088860000000  0.4347840000000 1.0
C      1  0.4475600000000  0.5473430000000  0.4840150000000 1.0
C      1  0.4816540000000  0.5495260000000  0.4486280000000 1.0
C      1  0.4469350000000  0.5147780000000  0.4474720000000 1.0
C      1  0.5541040000000  0.5501210000000  0.5126610000000 1.0
C      1  0.4463110000000  0.4473500000000  0.5145270000000 1.0
C      1  0.5700170000000  0.4417110000000  0.4848510000000 1.0
C      1  0.4978100000000  0.5616580000000  0.5607270000000 1.0
C      1  0.4906200000000  0.4497290000000  0.5441090000000 1.0
C      1  0.5153780000000  0.4492540000000  0.4332490000000 1.0
C      1  0.5705270000000  0.5160120000000  0.5461920000000 1.0
C      1  0.4378660000000  0.4846210000000  0.5593010000000 1.0
C      1  0.5577300000000  0.4809870000000  0.4313810000000 1.0
C      1  0.4123940000000  0.4832710000000  0.5121650000000 1.0
C      1  0.5102240000000  0.4053470000000  0.4840140000000 1.0
C      1  0.4812430000000  0.5163760000000  0.4124290000000 1.0
C      1  0.6009070000000  0.4804830000000  0.4844010000000 1.0
C      1  0.4135490000000  0.5115360000000  0.4824690000000 1.0
C      1  0.5921340000000  0.5139400000000  0.5059450000000 1.0
C      1  0.4868860000000  0.4158710000000  0.5129700000000 1.0
C      1  0.5061770000000  0.5882510000000  0.5158160000000 1.0
C      1  0.4830370000000  0.5793090000000  0.4845460000000 1.0
C      1  0.5026360000000  0.5234990000000  0.5903370000000 1.0
C      1  0.4797860000000  0.4892920000000  0.5917810000000 1.0
C      1  0.5128750000000  0.4901060000000  0.4101660000000 1.0
C      1  0.4092910000000  0.5117950000000  0.5102560000000 1.0
C      1  0.5113210000000  0.5838240000000  0.4864100000000 1.0
C      1  0.4853110000000  0.4885420000000  0.4168000000000 1.0
C      1  0.5976650000000  0.5088530000000  0.4776530000000 1.0
C      1  0.4147210000000  0.4830240000000  0.4841270000000 1.0
C      1  0.5930520000000  0.4855770000000  0.5112530000000 1.0
C      1  0.4788540000000  0.5824080000000  0.5126040000000 1.0
C      1  0.5145340000000  0.4127990000000  0.5129700000000 1.0
C      1  0.4834950000000  0.4143680000000  0.4847090000000 1.0
C      1  0.5091880000000  0.4950540000000  0.5951790000000 1.0
C      1  0.4754510000000  0.5167830000000  0.5857640000000 1.0
C      1  0.5096240000000  0.5195050000000  0.4094580000000 1.0
C      1  0.4355930000000  0.5603070000000  0.4584960000000 1.0
C      1  0.4148220000000  0.4444700000000  0.5501390000000 1.0
C      1  0.5709580000000  0.4610530000000  0.4469570000000 1.0
C      1  0.5632040000000  0.5640650000000  0.5418440000000 1.0
C      1  0.4247470000000  0.4326600000000  0.5288100000000 1.0
C      1  0.5566110000000  0.4386920000000  0.4582290000000 1.0
C      1  0.5320850000000  0.4309710000000  0.4469270000000 1.0
C      1  0.4546280000000  0.5615930000000  0.4386470000000 1.0
C      1  0.5444410000000  0.5817410000000  0.5489070000000 1.0
C      1  0.4159760000000  0.4657690000000  0.5657460000000 1.0
C      1  0.5599390000000  0.5387890000000  0.5565830000000 1.0
C      1  0.4350210000000  0.5412800000000  0.4383330000000 1.0
C      1  0.4402490000000  0.4379230000000  0.4546220000000 1.0
C      1  0.4394140000000  0.5620510000000  0.5583900000000 1.0
C      1  0.5537190000000  0.5338640000000  0.4246780000000 1.0
C      1  0.5653310000000  0.4338820000000  0.5408070000000 1.0
C      1  0.4309550000000  0.5690120000000  0.5338210000000 1.0
C      1  0.5709530000000  0.5474230000000  0.4626040000000 1.0
C      1  0.5665900000000  0.5565220000000  0.4361350000000 1.0
C      1  0.4590600000000  0.4400030000000  0.4344020000000 1.0
C      1  0.5480410000000  0.4452570000000  0.5581000000000 1.0
C      1  0.4268870000000  0.5404650000000  0.5702560000000 1.0
C      1  0.5531660000000  0.4720770000000  0.5701810000000 1.0
C      1  0.4396460000000  0.4588000000000  0.4355920000000 1.0
C      1  0.5254720000000  0.5483200000000  0.5263030000000 1.0
C      1  0.5316660000000  0.5305300000000  0.5499760000000 1.0
C      1  0.5235880000000  0.5034800000000  0.5331790000000 1.0
C      1  0.4959910000000  0.5336270000000  0.4891270000000 1.0
C      1  0.5173100000000  0.4520300000000  0.4906950000000 1.0
C      1  0.4858970000000  0.4891760000000  0.4941280000000 1.0
C      1  0.5131690000000  0.5192330000000  0.4711410000000 1.0
C      1  0.5234180000000  0.4768390000000  0.4762780000000 1.0
C      1  0.5160030000000  0.4797050000000  0.5514540000000 1.0
C      1  0.4576210000000  0.4972320000000  0.4915170000000 1.0
C      1  0.5361880000000  0.5005040000000  0.4851530000000 1.0
C      1  0.4753310000000  0.5029390000000  0.5371800000000 1.0
C      1  0.4844500000000  0.4772800000000  0.5518890000000 1.0
C      1  0.5461430000000  0.4999420000000  0.5123050000000 1.0
C      1  0.4985070000000  0.5381430000000  0.5159770000000 1.0
C      1  0.4992990000000  0.4926240000000  0.4678440000000 1.0
C      1  0.4520800000000  0.4999020000000  0.5194040000000 1.0
C      1  0.4891290000000  0.4583700000000  0.4971610000000 1.0
C      1  0.4975230000000  0.5086910000000  0.5188530000000 1.0
END
