TITL C-25828-2301-8 -73.6352673510855 125000 -442.124561063504 0 0 64 (Cs) n - 1
REM
REM in /rds/project/t2_vol4/rds-t2-cs072/BORA/CARBON/from-Arr/AIRSS/Generating-Clusters/GAP-ML-2020/Higher-Symm/SD-CG/HFTN-CG
REM
REM
REM
REM
REM
REM ./C.cell (b20cbc046b6831c77cfcea5457e17084)
REM AIRSS Version 0.9.1 bugfix July 2018 build 013d7b7c2542+ Fri, 06 Jul 2018 19:26:36 +0100
REM compiler GCC version 9.3.0
REM options -cpp -mtune=generic -march=x86-64 -g -O0
REM seed -2067539273 1538961332 625042514 -199720913 -964617383 -1204143227 -802467433 -1545965810 -394533696 -303680017 -20566415 1540038684 1136250087 -380221171 -2043872310 -334348538 -1610339219 -1795892417 87520505 36016518 145665212 1713832413 532697793 1114970230 1438792603 272243343 228324700 1343066940 454643176 1607225865 -1308917224 -2119093727 83455662
REM
CELL 1.54180   50.00000   50.00000   50.00000   90.00000   90.00000   90.00000
LATT -1
SFAC C  
C      1  0.5137860000000  0.5255210000000  0.5385330000000 1.0
C      1  0.5418320000000  0.5224860000000  0.5350290000000 1.0
C      1  0.5520430000000  0.4953860000000  0.5363110000000 1.0
C      1  0.5410620000000  0.4661750000000  0.5369350000000 1.0
C      1  0.5178290000000  0.4498170000000  0.5366420000000 1.0
C      1  0.4863400000000  0.4485710000000  0.5362720000000 1.0
C      1  0.4616260000000  0.4626560000000  0.5358980000000 1.0
C      1  0.4466490000000  0.4903830000000  0.5355660000000 1.0
C      1  0.4488780000000  0.5187100000000  0.5355410000000 1.0
C      1  0.4684260000000  0.5430390000000  0.5350480000000 1.0
C      1  0.4969680000000  0.5480530000000  0.5343510000000 1.0
C      1  0.4487720000000  0.5054060000000  0.4579880000000 1.0
C      1  0.4595300000000  0.5331940000000  0.4571240000000 1.0
C      1  0.4838610000000  0.5499570000000  0.4590950000000 1.0
C      1  0.5130260000000  0.5527110000000  0.4559100000000 1.0
C      1  0.5394480000000  0.5376530000000  0.4563090000000 1.0
C      1  0.5518630000000  0.5112020000000  0.4601230000000 1.0
C      1  0.5498840000000  0.4817020000000  0.4584900000000 1.0
C      1  0.5314400000000  0.4582940000000  0.4592380000000 1.0
C      1  0.5036400000000  0.4478770000000  0.4575650000000 1.0
C      1  0.4748340000000  0.4550490000000  0.4584880000000 1.0
C      1  0.4540120000000  0.4761600000000  0.4568150000000 1.0
C      1  0.4322330000000  0.4649020000000  0.4738300000000 1.0
C      1  0.4261410000000  0.5072830000000  0.4774040000000 1.0
C      1  0.4405170000000  0.5476550000000  0.4748320000000 1.0
C      1  0.4772440000000  0.5697790000000  0.4804300000000 1.0
C      1  0.5189760000000  0.5765490000000  0.4731790000000 1.0
C      1  0.5565290000000  0.5551470000000  0.4737470000000 1.0
C      1  0.5717990000000  0.5158920000000  0.4818590000000 1.0
C      1  0.5716040000000  0.4729480000000  0.4768130000000 1.0
C      1  0.5441410000000  0.4400350000000  0.4791870000000 1.0
C      1  0.5046610000000  0.4236250000000  0.4749250000000 1.0
C      1  0.4633970000000  0.4354900000000  0.4776880000000 1.0
C      1  0.4404120000000  0.4437800000000  0.4905060000000 1.0
C      1  0.4195900000000  0.4837850000000  0.4903200000000 1.0
C      1  0.4241920000000  0.5312360000000  0.4907670000000 1.0
C      1  0.4525880000000  0.5660780000000  0.4921240000000 1.0
C      1  0.4992980000000  0.5797550000000  0.4935320000000 1.0
C      1  0.5431760000000  0.5757140000000  0.4866010000000 1.0
C      1  0.5688470000000  0.5401190000000  0.4945830000000 1.0
C      1  0.5809080000000  0.4929480000000  0.4940630000000 1.0
C      1  0.5654340000000  0.4507430000000  0.4929020000000 1.0
C      1  0.5269700000000  0.4225890000000  0.4919430000000 1.0
C      1  0.4819460000000  0.4201100000000  0.4911340000000 1.0
C      1  0.4265530000000  0.4783430000000  0.5179620000000 1.0
C      1  0.4306570000000  0.5346860000000  0.5187170000000 1.0
C      1  0.4490020000000  0.5577820000000  0.5194310000000 1.0
C      1  0.5098050000000  0.5700790000000  0.5196190000000 1.0
C      1  0.5383080000000  0.5679280000000  0.5151630000000 1.0
C      1  0.5545760000000  0.5445640000000  0.5202950000000 1.0
C      1  0.5749760000000  0.4859900000000  0.5213360000000 1.0
C      1  0.5644700000000  0.4584260000000  0.5207400000000 1.0
C      1  0.5181110000000  0.4261650000000  0.5193460000000 1.0
C      1  0.4889630000000  0.4247770000000  0.5188320000000 1.0
C      1  0.4402200000000  0.4525550000000  0.5180950000000 1.0
C      1  0.5013710000000  0.5003000000000  0.4090030000000 1.0
C      1  0.4993480000000  0.5001880000000  0.5386150000000 1.0
C      1  0.5007570000000  0.5005550000000  0.4592160000000 1.0
C      1  0.4958860000000  0.4933300000000  0.5090880000000 1.0
C      1  0.5013930000000  0.5023800000000  0.4859660000000 1.0
C      1  0.4941250000000  0.4916710000000  0.5630420000000 1.0
C      1  0.4942110000000  0.4931860000000  0.6144530000000 1.0
C      1  0.5016490000000  0.5014590000000  0.4343130000000 1.0
C      1  0.4946690000000  0.4932960000000  0.5883350000000 1.0
END
