TITL C-25826-2261-2 -0.00650311383305724 125000 -101.79428001578 0 0 16 (Cs) n - 1
REM
REM in /rds/project/t2_vol4/rds-t2-cs072/BORA/CARBON/from-Arr/AIRSS/Generating-Clusters/GAP-ML-2020/Higher-Symm/SD-CG/HFTN-CG
REM
REM
REM
REM
REM
REM ./C.cell (b20cbc046b6831c77cfcea5457e17084)
REM AIRSS Version 0.9.1 bugfix July 2018 build 013d7b7c2542+ Fri, 06 Jul 2018 19:26:36 +0100
REM compiler GCC version 9.3.0
REM options -cpp -mtune=generic -march=x86-64 -g -O0
REM seed 1837007045 -992704530 299221165 2081430495 -1521764513 2097585968 -1703318984 1504941538 224040038 -1876385682 -1874456909 -993139286 -547704195 -548433104 1374018557 -248809207 -128429770 98755243 1876905991 -228419598 -1036012863 1437884726 962357969 1865992019 -214161488 -649075933 1763405636 -239652757 1891376246 1603379499 -425896358 235910206 236727233
REM
CELL 1.54180   50.00000   50.00000   50.00000   90.00000   90.00000   90.00000
LATT -1
SFAC C  
C      1  0.4987470000000  0.4464540000000  0.5349170000000 1.0
C      1  0.4939760000000  0.5579350000000  0.5057090000000 1.0
C      1  0.4850670000000  0.4832070000000  0.4504990000000 1.0
C      1  0.4991510000000  0.5505510000000  0.5349370000000 1.0
C      1  0.4935150000000  0.4391210000000  0.5056860000000 1.0
C      1  0.4851870000000  0.5139370000000  0.4505050000000 1.0
C      1  0.4945120000000  0.4838160000000  0.4769960000000 1.0
C      1  0.5026450000000  0.4735160000000  0.5271040000000 1.0
C      1  0.4981500000000  0.5309350000000  0.4987790000000 1.0
C      1  0.4946260000000  0.5132440000000  0.4770020000000 1.0
C      1  0.5028390000000  0.5234620000000  0.5271130000000 1.0
C      1  0.4978980000000  0.4660900000000  0.4987670000000 1.0
C      1  0.4875750000000  0.5728060000000  0.5268270000000 1.0
C      1  0.4869980000000  0.4242920000000  0.5267990000000 1.0
C      1  0.4733900000000  0.4986210000000  0.4323410000000 1.0
C      1  0.5056180000000  0.4984760000000  0.5378360000000 1.0
END
