TITL C-25004-9944-3 0.0709680133122849 125000 -442.882672445951 0 0 67 (C1) n - 1
REM
REM in /rds/project/t2_vol4/rds-t2-cs072/BORA/CARBON/from-Arr/AIRSS/Generating-Clusters/GAP-ML-2020/Higher-Symm/SD-CG/HFTN-CG
REM
REM
REM
REM
REM
REM ./C.cell (b20cbc046b6831c77cfcea5457e17084)
REM AIRSS Version 0.9.1 bugfix July 2018 build 013d7b7c2542+ Fri, 06 Jul 2018 19:26:36 +0100
REM compiler GCC version 9.3.0
REM options -cpp -mtune=generic -march=x86-64 -g -O0
REM seed -1635644131 -320213809 -1760398768 183421611 -648286069 283307894 -1343391085 -1321013893 8831274 1211775661 -1162429468 713216985 -791016680 -250887863 712392736 122775605 -727382545 -2124438483 46327269 -1601264712 66006980 -1083807030 803818351 950369752 -918401266 1171214530 1713293166 258887390 1819252557 -1179695633 -2102956979 1559889754 1081993518
REM
CELL 1.54180   50.00000   50.00000   50.00000   90.00000   90.00000   90.00000
LATT -1
SFAC C  
C      1  0.5511420000000  0.4881860000000  0.5560300000000 1.0
C      1  0.4428030000000  0.5139450000000  0.5513240000000 1.0
C      1  0.4450870000000  0.4718570000000  0.4472650000000 1.0
C      1  0.5513840000000  0.5165670000000  0.4434280000000 1.0
C      1  0.4757600000000  0.5524920000000  0.5537960000000 1.0
C      1  0.5171280000000  0.4495730000000  0.5570500000000 1.0
C      1  0.4876150000000  0.4429990000000  0.4504510000000 1.0
C      1  0.5235100000000  0.5602160000000  0.4513670000000 1.0
C      1  0.5440910000000  0.5603780000000  0.4939620000000 1.0
C      1  0.4758860000000  0.4337570000000  0.4957440000000 1.0
C      1  0.4717080000000  0.5564250000000  0.5052370000000 1.0
C      1  0.5254980000000  0.4431200000000  0.5108110000000 1.0
C      1  0.5704900000000  0.5237850000000  0.4880220000000 1.0
C      1  0.4389150000000  0.4649170000000  0.4937560000000 1.0
C      1  0.5586410000000  0.4792450000000  0.5087810000000 1.0
C      1  0.4412600000000  0.5185290000000  0.5033820000000 1.0
C      1  0.5037750000000  0.4661310000000  0.5152740000000 1.0
C      1  0.4988310000000  0.5396310000000  0.5148400000000 1.0
C      1  0.4886340000000  0.4636170000000  0.4902510000000 1.0
C      1  0.5193000000000  0.5429560000000  0.4933060000000 1.0
C      1  0.4652490000000  0.5005020000000  0.5119150000000 1.0
C      1  0.5372420000000  0.5019920000000  0.5138970000000 1.0
C      1  0.4656890000000  0.4819440000000  0.4883400000000 1.0
C      1  0.5345720000000  0.5158970000000  0.4877530000000 1.0
C      1  0.5229760000000  0.4594870000000  0.5825840000000 1.0
C      1  0.4628830000000  0.5458010000000  0.5780880000000 1.0
C      1  0.4821040000000  0.4508080000000  0.4245810000000 1.0
C      1  0.5285840000000  0.5527190000000  0.4239730000000 1.0
C      1  0.4464590000000  0.5259470000000  0.5764150000000 1.0
C      1  0.5419530000000  0.4813950000000  0.5817110000000 1.0
C      1  0.4577240000000  0.4671510000000  0.4229920000000 1.0
C      1  0.5422520000000  0.5310410000000  0.4203970000000 1.0
C      1  0.4422650000000  0.4512810000000  0.4673650000000 1.0
C      1  0.5651470000000  0.5345980000000  0.4610290000000 1.0
C      1  0.5569380000000  0.4672900000000  0.5369450000000 1.0
C      1  0.4379100000000  0.5331410000000  0.5290500000000 1.0
C      1  0.4656980000000  0.4344730000000  0.4679800000000 1.0
C      1  0.5485880000000  0.5587150000000  0.4658680000000 1.0
C      1  0.4571000000000  0.5549380000000  0.5300660000000 1.0
C      1  0.5384750000000  0.4452340000000  0.5378550000000 1.0
C      1  0.5045690000000  0.4601230000000  0.4657190000000 1.0
C      1  0.5005970000000  0.5539980000000  0.4702020000000 1.0
C      1  0.4957500000000  0.4618140000000  0.5432880000000 1.0
C      1  0.4999880000000  0.5415020000000  0.5444650000000 1.0
C      1  0.4565740000000  0.4931070000000  0.4615660000000 1.0
C      1  0.5355420000000  0.5007450000000  0.4618060000000 1.0
C      1  0.4599230000000  0.4938330000000  0.5409730000000 1.0
C      1  0.5376500000000  0.5090620000000  0.5428350000000 1.0
C      1  0.5149560000000  0.4837870000000  0.4528770000000 1.0
C      1  0.4741730000000  0.5121370000000  0.4495250000000 1.0
C      1  0.4817410000000  0.4832100000000  0.5557200000000 1.0
C      1  0.5145160000000  0.5204190000000  0.5564950000000 1.0
C      1  0.4529320000000  0.4457310000000  0.5094690000000 1.0
C      1  0.4570310000000  0.5388910000000  0.4857290000000 1.0
C      1  0.5439210000000  0.4580530000000  0.4943670000000 1.0
C      1  0.5656990000000  0.5468300000000  0.5036910000000 1.0
C      1  0.5026630000000  0.4258100000000  0.5038940000000 1.0
C      1  0.4269900000000  0.4930290000000  0.4967910000000 1.0
C      1  0.5771190000000  0.4977980000000  0.4972010000000 1.0
C      1  0.4870720000000  0.5730320000000  0.4882040000000 1.0
C      1  0.4995680000000  0.5001700000000  0.5710930000000 1.0
C      1  0.4943380000000  0.4958760000000  0.4364580000000 1.0
C      1  0.5158820000000  0.4854390000000  0.5894440000000 1.0
C      1  0.4823750000000  0.4778550000000  0.4182490000000 1.0
C      1  0.4762870000000  0.5352200000000  0.4651360000000 1.0
C      1  0.5110230000000  0.4930090000000  0.5083920000000 1.0
C      1  0.4914390000000  0.5117450000000  0.5080410000000 1.0
END
