TITL C-25014-9784-7 248.421304990583 125000 -1050.49296098838 0 0 150 (S4) n - 1
REM
REM in /rds/project/t2_vol4/rds-t2-cs072/BORA/CARBON/from-Arr/AIRSS/Generating-Clusters/GAP-ML-2020/Higher-Symm/SD-CG/HFTN-CG
REM
REM
REM
REM
REM
REM ./C.cell (b20cbc046b6831c77cfcea5457e17084)
REM AIRSS Version 0.9.1 bugfix July 2018 build 013d7b7c2542+ Fri, 06 Jul 2018 19:26:36 +0100
REM compiler GCC version 9.3.0
REM options -cpp -mtune=generic -march=x86-64 -g -O0
REM seed -1004491928 2091793378 -2091349552 -639335436 429455592 605602785 2044636235 1264824231 -45690467 735894314 -1175164648 -691241016 -1256826660 416504351 151978791 -2099506814 -766772179 -1646141880 -658568401 1935665354 -496642469 -983734345 -534938773 1995851587 -1267422087 2089464930 877213867 -232368386 253922094 -1123907516 1610439751 1861684891 -1607368878
REM
CELL 1.54180   50.00000   50.00000   50.00000   90.00000   90.00000   90.00000
LATT -1
SFAC C  
C      1  0.5181810000000  0.5657090000000  0.5816540000000 1.0
C      1  0.4185300000000  0.4343220000000  0.5186610000000 1.0
C      1  0.4815760000000  0.5656950000000  0.4190250000000 1.0
C      1  0.5811590000000  0.4342740000000  0.4820550000000 1.0
C      1  0.5333160000000  0.4642950000000  0.4073850000000 1.0
C      1  0.5928390000000  0.5356640000000  0.5338080000000 1.0
C      1  0.4663880000000  0.4643380000000  0.5933220000000 1.0
C      1  0.4069020000000  0.5357030000000  0.4668800000000 1.0
C      1  0.4875310000000  0.4457090000000  0.4180300000000 1.0
C      1  0.5822020000000  0.5542590000000  0.4880250000000 1.0
C      1  0.5121630000000  0.4457260000000  0.5826830000000 1.0
C      1  0.4175490000000  0.5543050000000  0.5126570000000 1.0
C      1  0.4502850000000  0.4693500000000  0.4688090000000 1.0
C      1  0.5314130000000  0.5306430000000  0.4507760000000 1.0
C      1  0.5494220000000  0.4693330000000  0.5318970000000 1.0
C      1  0.4683250000000  0.5306740000000  0.5499130000000 1.0
C      1  0.6005680000000  0.5078300000000  0.4941240000000 1.0
C      1  0.5060820000000  0.4921560000000  0.6010550000000 1.0
C      1  0.3991590000000  0.5078840000000  0.5065710000000 1.0
C      1  0.4936360000000  0.4921310000000  0.3996450000000 1.0
C      1  0.5456170000000  0.5286570000000  0.5014660000000 1.0
C      1  0.4987330000000  0.4713380000000  0.5461010000000 1.0
C      1  0.4541210000000  0.5286810000000  0.4992240000000 1.0
C      1  0.5009750000000  0.4713240000000  0.4546050000000 1.0
C      1  0.5321470000000  0.4654840000000  0.4882670000000 1.0
C      1  0.5119570000000  0.5345070000000  0.5326380000000 1.0
C      1  0.4675580000000  0.4655050000000  0.5124400000000 1.0
C      1  0.4877840000000  0.5345040000000  0.4680500000000 1.0
C      1  0.4291150000000  0.4756530000000  0.4286040000000 1.0
C      1  0.5716160000000  0.5243270000000  0.4296050000000 1.0
C      1  0.5705950000000  0.4756360000000  0.5721010000000 1.0
C      1  0.4281190000000  0.5243840000000  0.5710860000000 1.0
C      1  0.4778110000000  0.4292800000000  0.5522520000000 1.0
C      1  0.4479860000000  0.5707430000000  0.4783070000000 1.0
C      1  0.5218750000000  0.4292550000000  0.4484650000000 1.0
C      1  0.5517730000000  0.5707220000000  0.5223710000000 1.0
C      1  0.4380740000000  0.5710540000000  0.5258110000000 1.0
C      1  0.4743710000000  0.4289640000000  0.4385530000000 1.0
C      1  0.5616850000000  0.5710140000000  0.4748670000000 1.0
C      1  0.5253150000000  0.4289680000000  0.5621640000000 1.0
C      1  0.4527960000000  0.4850910000000  0.4169730000000 1.0
C      1  0.5832430000000  0.5148810000000  0.4532850000000 1.0
C      1  0.5469190000000  0.4850900000000  0.5837290000000 1.0
C      1  0.4164870000000  0.5149380000000  0.5474090000000 1.0
C      1  0.5192260000000  0.5892410000000  0.4828710000000 1.0
C      1  0.5173040000000  0.4107500000000  0.5197030000000 1.0
C      1  0.4805420000000  0.5892560000000  0.5178020000000 1.0
C      1  0.4823730000000  0.4107530000000  0.4810190000000 1.0
C      1  0.5239600000000  0.4711630000000  0.5934240000000 1.0
C      1  0.4067980000000  0.5288720000000  0.5244510000000 1.0
C      1  0.4757470000000  0.4711490000000  0.4072820000000 1.0
C      1  0.5929400000000  0.5288170000000  0.4762380000000 1.0
C      1  0.5825520000000  0.5262070000000  0.5601150000000 1.0
C      1  0.4400840000000  0.4738070000000  0.5830370000000 1.0
C      1  0.4171840000000  0.5262330000000  0.4405750000000 1.0
C      1  0.5596250000000  0.4737530000000  0.4176680000000 1.0
C      1  0.5356440000000  0.5116640000000  0.4042710000000 1.0
C      1  0.5959340000000  0.4882940000000  0.5361300000000 1.0
C      1  0.4640850000000  0.5117090000000  0.5964230000000 1.0
C      1  0.4037820000000  0.4883330000000  0.4645710000000 1.0
C      1  0.4866760000000  0.4788770000000  0.4957150000000 1.0
C      1  0.5045030000000  0.5211230000000  0.4871660000000 1.0
C      1  0.5130350000000  0.4788720000000  0.5049880000000 1.0
C      1  0.4952300000000  0.5211290000000  0.5135250000000 1.0
C      1  0.3951780000000  0.5123600000000  0.4794100000000 1.0
C      1  0.5207950000000  0.4876440000000  0.3956640000000 1.0
C      1  0.6045510000000  0.5123120000000  0.5212840000000 1.0
C      1  0.4789210000000  0.4876840000000  0.6050370000000 1.0
C      1  0.4785300000000  0.4827050000000  0.4675610000000 1.0
C      1  0.5326560000000  0.5172840000000  0.4790190000000 1.0
C      1  0.5211840000000  0.4827030000000  0.5331410000000 1.0
C      1  0.4670760000000  0.5173070000000  0.5216730000000 1.0
C      1  0.4543500000000  0.5611110000000  0.4282660000000 1.0
C      1  0.5719200000000  0.4388660000000  0.4548300000000 1.0
C      1  0.5454040000000  0.5611080000000  0.5724140000000 1.0
C      1  0.4277710000000  0.4389160000000  0.5458840000000 1.0
C      1  0.4726590000000  0.5077870000000  0.5667240000000 1.0
C      1  0.4334830000000  0.4922430000000  0.4731460000000 1.0
C      1  0.5270680000000  0.5077550000000  0.4339710000000 1.0
C      1  0.5662360000000  0.4922160000000  0.5275540000000 1.0
C      1  0.5722720000000  0.4640000000000  0.4414000000000 1.0
C      1  0.5588250000000  0.5359680000000  0.5727640000000 1.0
C      1  0.4274320000000  0.4640540000000  0.5593080000000 1.0
C      1  0.4409170000000  0.5359790000000  0.4279240000000 1.0
C      1  0.4926380000000  0.5471460000000  0.5517850000000 1.0
C      1  0.4484060000000  0.4528760000000  0.4931200000000 1.0
C      1  0.5071090000000  0.5471280000000  0.4489000000000 1.0
C      1  0.5512920000000  0.4528510000000  0.5075910000000 1.0
C      1  0.5141840000000  0.5180800000000  0.5909820000000 1.0
C      1  0.4092200000000  0.4819550000000  0.5146690000000 1.0
C      1  0.4855480000000  0.5180620000000  0.4097100000000 1.0
C      1  0.5904930000000  0.4819040000000  0.4860330000000 1.0
C      1  0.4522920000000  0.5693060000000  0.5508680000000 1.0
C      1  0.4493150000000  0.4307200000000  0.4527710000000 1.0
C      1  0.5474670000000  0.5692670000000  0.4498110000000 1.0
C      1  0.5503720000000  0.4307070000000  0.5479460000000 1.0
C      1  0.5583570000000  0.4166310000000  0.4881210000000 1.0
C      1  0.5121220000000  0.5833570000000  0.5588550000000 1.0
C      1  0.4413220000000  0.4166650000000  0.5126000000000 1.0
C      1  0.4876440000000  0.5833470000000  0.4418190000000 1.0
C      1  0.5803170000000  0.5565510000000  0.5170110000000 1.0
C      1  0.4831770000000  0.4434460000000  0.5807970000000 1.0
C      1  0.4194350000000  0.5565880000000  0.4836710000000 1.0
C      1  0.5165170000000  0.4434150000000  0.4199160000000 1.0
C      1  0.4508890000000  0.4203300000000  0.5408810000000 1.0
C      1  0.4593610000000  0.5796920000000  0.4513860000000 1.0
C      1  0.5487930000000  0.4202930000000  0.4598390000000 1.0
C      1  0.5404030000000  0.5796850000000  0.5492900000000 1.0
C      1  0.5010450000000  0.5432390000000  0.4165720000000 1.0
C      1  0.5836210000000  0.4567270000000  0.5015270000000 1.0
C      1  0.4987000000000  0.5432630000000  0.5841130000000 1.0
C      1  0.4160800000000  0.4567700000000  0.4991820000000 1.0
C      1  0.4698580000000  0.5403870000000  0.5924060000000 1.0
C      1  0.4077880000000  0.4596530000000  0.4703410000000 1.0
C      1  0.5298850000000  0.5403460000000  0.4082800000000 1.0
C      1  0.5919140000000  0.4596140000000  0.5303680000000 1.0
C      1  0.5610620000000  0.5027020000000  0.4138040000000 1.0
C      1  0.5864050000000  0.4972560000000  0.5615490000000 1.0
C      1  0.4386620000000  0.5027580000000  0.5868920000000 1.0
C      1  0.4133160000000  0.4972840000000  0.4391500000000 1.0
C      1  0.4679650000000  0.5501240000000  0.4853110000000 1.0
C      1  0.5148800000000  0.4498740000000  0.4684460000000 1.0
C      1  0.5317840000000  0.5501110000000  0.5153730000000 1.0
C      1  0.4848170000000  0.4498910000000  0.5322660000000 1.0
C      1  0.4498060000000  0.5463130000000  0.5697900000000 1.0
C      1  0.4304020000000  0.4537210000000  0.4502870000000 1.0
C      1  0.5499410000000  0.5462670000000  0.4308950000000 1.0
C      1  0.5692970000000  0.4536990000000  0.5504230000000 1.0
C      1  0.5450380000000  0.5822220000000  0.4943820000000 1.0
C      1  0.5057950000000  0.4177700000000  0.5455160000000 1.0
C      1  0.4547270000000  0.5822480000000  0.5062930000000 1.0
C      1  0.4938850000000  0.4177600000000  0.4552050000000 1.0
C      1  0.5242650000000  0.4855480000000  0.4487260000000 1.0
C      1  0.5514890000000  0.5144280000000  0.5247540000000 1.0
C      1  0.4754500000000  0.4855750000000  0.5519750000000 1.0
C      1  0.4482410000000  0.5144480000000  0.4759390000000 1.0
C      1  0.4833750000000  0.5768950000000  0.5451300000000 1.0
C      1  0.4550490000000  0.4231250000000  0.4838530000000 1.0
C      1  0.5163880000000  0.5768740000000  0.4555460000000 1.0
C      1  0.5446340000000  0.4231060000000  0.5168660000000 1.0
C      1  0.5422330000000  0.4887450000000  0.4718160000000 1.0
C      1  0.5283990000000  0.5112390000000  0.5427220000000 1.0
C      1  0.4574840000000  0.4887750000000  0.5288850000000 1.0
C      1  0.4713300000000  0.5112420000000  0.4579730000000 1.0
C      1  0.5380170000000  0.5131720000000  0.5747200000000 1.0
C      1  0.4254850000000  0.4868530000000  0.5385030000000 1.0
C      1  0.4617120000000  0.5131710000000  0.4259740000000 1.0
C      1  0.5742310000000  0.4868040000000  0.4621980000000 1.0
C      1  0.4998360000000  0.4027460000000  0.5003620000000 1.0
C      1  0.4998860000000  0.5972540000000  0.5003350000000 1.0
END
