TITL C-25931-186-4 -0.0555714667119833 125000 -496.242798398038 0 0 72 (Cs) n - 1
REM
REM in /rds/project/t2_vol4/rds-t2-cs072/BORA/CARBON/from-Arr/AIRSS/Generating-Clusters/GAP-ML-2020/Higher-Symm/SD-CG/HFTN-CG
REM
REM
REM
REM
REM
REM ./C.cell (b20cbc046b6831c77cfcea5457e17084)
REM AIRSS Version 0.9.1 bugfix July 2018 build 013d7b7c2542+ Fri, 06 Jul 2018 19:26:36 +0100
REM compiler GCC version 9.3.0
REM options -cpp -mtune=generic -march=x86-64 -g -O0
REM seed 1016199457 -1416594911 1955285465 1958112264 -2064680711 480012361 318847134 -1971329698 1757014377 -1523895620 -1383676070 -747710891 1141066302 -664889082 -2073288354 864568924 168967956 240344200 -1855503552 675084711 1584098565 1494731115 745143893 1383714120 -258143695 -1752737997 -1772376513 891583419 -277621909 -568542129 405499128 -327209209 875504628
REM
CELL 1.54180   50.00000   50.00000   50.00000   90.00000   90.00000   90.00000
LATT -1
SFAC C  
C      1  0.5555500000000  0.5510700000000  0.5139920000000 1.0
C      1  0.4665800000000  0.5698660000000  0.5117490000000 1.0
C      1  0.4234280000000  0.4907380000000  0.5116010000000 1.0
C      1  0.4844490000000  0.4250270000000  0.5115970000000 1.0
C      1  0.5668760000000  0.4612600000000  0.5113320000000 1.0
C      1  0.4732540000000  0.5376920000000  0.4403470000000 1.0
C      1  0.4563060000000  0.4863240000000  0.4392920000000 1.0
C      1  0.4996850000000  0.4543070000000  0.4393180000000 1.0
C      1  0.5437770000000  0.4856410000000  0.4403890000000 1.0
C      1  0.5272470000000  0.5370450000000  0.4409590000000 1.0
C      1  0.5600150000000  0.4559330000000  0.4844890000000 1.0
C      1  0.5596300000000  0.5434850000000  0.4869880000000 1.0
C      1  0.4761340000000  0.5704780000000  0.4852150000000 1.0
C      1  0.4250740000000  0.4993630000000  0.4847650000000 1.0
C      1  0.4769430000000  0.4289380000000  0.4846230000000 1.0
C      1  0.4508370000000  0.5416240000000  0.5371580000000 1.0
C      1  0.4460230000000  0.4677300000000  0.5371970000000 1.0
C      1  0.5139350000000  0.4379730000000  0.5373230000000 1.0
C      1  0.5636490000000  0.4931030000000  0.5375660000000 1.0
C      1  0.5234150000000  0.5565120000000  0.5392850000000 1.0
C      1  0.5135360000000  0.4242310000000  0.5116560000000 1.0
C      1  0.5764330000000  0.4887850000000  0.5118150000000 1.0
C      1  0.5322510000000  0.5682670000000  0.5139780000000 1.0
C      1  0.4430940000000  0.5526220000000  0.5112570000000 1.0
C      1  0.4327600000000  0.4631780000000  0.5115660000000 1.0
C      1  0.4711640000000  0.4611470000000  0.5476040000000 1.0
C      1  0.5289370000000  0.4590570000000  0.5481500000000 1.0
C      1  0.5498460000000  0.5135890000000  0.5503810000000 1.0
C      1  0.4980870000000  0.5517920000000  0.5503500000000 1.0
C      1  0.4521400000000  0.5157390000000  0.5481040000000 1.0
C      1  0.5146480000000  0.4799510000000  0.5609700000000 1.0
C      1  0.5279650000000  0.5045220000000  0.5669850000000 1.0
C      1  0.4958580000000  0.5282200000000  0.5669650000000 1.0
C      1  0.4763070000000  0.5082500000000  0.5609470000000 1.0
C      1  0.4864860000000  0.4819170000000  0.5597640000000 1.0
C      1  0.5003170000000  0.5443810000000  0.4490320000000 1.0
C      1  0.4578230000000  0.5140510000000  0.4478540000000 1.0
C      1  0.4735890000000  0.4643510000000  0.4473110000000 1.0
C      1  0.5257280000000  0.4639320000000  0.4478950000000 1.0
C      1  0.5421870000000  0.5134770000000  0.4490570000000 1.0
C      1  0.5708150000000  0.4765660000000  0.4415010000000 1.0
C      1  0.5442690000000  0.5601110000000  0.4439890000000 1.0
C      1  0.4566140000000  0.5608560000000  0.4414320000000 1.0
C      1  0.4290750000000  0.4775370000000  0.4417750000000 1.0
C      1  0.4993120000000  0.4256970000000  0.4418170000000 1.0
C      1  0.4400460000000  0.5444800000000  0.4844160000000 1.0
C      1  0.4387310000000  0.4571420000000  0.4846000000000 1.0
C      1  0.5213140000000  0.4283310000000  0.4848230000000 1.0
C      1  0.5742230000000  0.4980800000000  0.4852740000000 1.0
C      1  0.5238220000000  0.5699150000000  0.4869670000000 1.0
C      1  0.4994680000000  0.5253780000000  0.4957470000000 1.0
C      1  0.4745710000000  0.5075630000000  0.4944720000000 1.0
C      1  0.4839270000000  0.4783960000000  0.4937230000000 1.0
C      1  0.5145550000000  0.4780510000000  0.4944970000000 1.0
C      1  0.5242420000000  0.5070930000000  0.4957620000000 1.0
C      1  0.5310930000000  0.4555880000000  0.4775340000000 1.0
C      1  0.5512840000000  0.5159990000000  0.4789450000000 1.0
C      1  0.5000220000000  0.5538350000000  0.4789140000000 1.0
C      1  0.4482450000000  0.5167370000000  0.4774840000000 1.0
C      1  0.4675560000000  0.4562020000000  0.4770520000000 1.0
C      1  0.4537610000000  0.5640360000000  0.4676970000000 1.0
C      1  0.4236190000000  0.4756310000000  0.4678880000000 1.0
C      1  0.4990780000000  0.4199360000000  0.4679330000000 1.0
C      1  0.5746740000000  0.4747920000000  0.4677700000000 1.0
C      1  0.5469660000000  0.5637860000000  0.4703360000000 1.0
C      1  0.4744530000000  0.5589370000000  0.5375120000000 1.0
C      1  0.4364220000000  0.4951840000000  0.5372760000000 1.0
C      1  0.4848710000000  0.4390570000000  0.5372210000000 1.0
C      1  0.5540650000000  0.4654330000000  0.5372200000000 1.0
C      1  0.5469020000000  0.5391770000000  0.5393000000000 1.0
C      1  0.4997590000000  0.4998350000000  0.4800340000000 1.0
C      1  0.5156620000000  0.5214670000000  0.5847260000000 1.0
END
