TITL C-25619-1-5 412.429191727632 125000 -860.892899224444 0 0 116 (C1) n - 1
REM
REM in /rds/project/t2_vol4/rds-t2-cs072/BORA/CARBON/from-Arr/AIRSS/Generating-Clusters/GAP-ML-2020/Higher-Symm/SD-CG/HFTN-CG
REM
REM
REM
REM
REM
REM ./C.cell (b20cbc046b6831c77cfcea5457e17084)
REM AIRSS Version 0.9.1 bugfix July 2018 build 013d7b7c2542+ Fri, 06 Jul 2018 19:26:36 +0100
REM compiler GCC version 9.3.0
REM options -cpp -mtune=generic -march=x86-64 -g -O0
REM seed 1586990715 -216882472 577106927 1263748687 1593871567 1696110468 424587760 -1931595012 560624824 -2115771726 -1732942251 -784194850 -973107364 307509913 -1762111577 1735089339 536743876 260279223 97644295 -1254411440 865849364 886800209 908983340 219158162 -1540883480 1629502360 -1439658574 -644045983 -826904109 2253299 -1671497667 535349454 -1987101199
REM
CELL 1.54180   50.00000   50.00000   50.00000   90.00000   90.00000   90.00000
LATT -1
SFAC C  
C      1  0.5828930000000  0.5347060000000  0.5061230000000 1.0
C      1  0.4854390000000  0.5956070000000  0.5112550000000 1.0
C      1  0.4294110000000  0.5565620000000  0.5074990000000 1.0
C      1  0.4294270000000  0.4479810000000  0.5151600000000 1.0
C      1  0.5104390000000  0.4119020000000  0.5128950000000 1.0
C      1  0.5839930000000  0.4651510000000  0.5136480000000 1.0
C      1  0.5730320000000  0.5497160000000  0.4830470000000 1.0
C      1  0.4867760000000  0.5916040000000  0.4819740000000 1.0
C      1  0.4221450000000  0.5402150000000  0.4844860000000 1.0
C      1  0.4290930000000  0.4484230000000  0.4861060000000 1.0
C      1  0.5099870000000  0.4113440000000  0.4836990000000 1.0
C      1  0.5836190000000  0.4659350000000  0.4835540000000 1.0
C      1  0.5393230000000  0.4119130000000  0.4770880000000 1.0
C      1  0.5919170000000  0.4934250000000  0.4768970000000 1.0
C      1  0.5545610000000  0.5724300000000  0.4821130000000 1.0
C      1  0.4590840000000  0.5845320000000  0.4759280000000 1.0
C      1  0.4111940000000  0.5133510000000  0.4838700000000 1.0
C      1  0.4441050000000  0.4235820000000  0.4790050000000 1.0
C      1  0.5397880000000  0.4127940000000  0.5187060000000 1.0
C      1  0.5934880000000  0.4911260000000  0.5211440000000 1.0
C      1  0.5464990000000  0.5945930000000  0.5267940000000 1.0
C      1  0.4581760000000  0.5912920000000  0.5185700000000 1.0
C      1  0.3930860000000  0.5010260000000  0.5291200000000 1.0
C      1  0.4450090000000  0.4233800000000  0.5212360000000 1.0
C      1  0.5691340000000  0.4532280000000  0.5352610000000 1.0
C      1  0.5768110000000  0.5322080000000  0.5352030000000 1.0
C      1  0.4998200000000  0.5879320000000  0.5355880000000 1.0
C      1  0.4371100000000  0.5539570000000  0.5374600000000 1.0
C      1  0.4269330000000  0.4651930000000  0.5374640000000 1.0
C      1  0.4941090000000  0.4179570000000  0.5351920000000 1.0
C      1  0.5687670000000  0.4535400000000  0.4624230000000 1.0
C      1  0.5760650000000  0.5362480000000  0.4584270000000 1.0
C      1  0.5060640000000  0.5835450000000  0.4621300000000 1.0
C      1  0.4320250000000  0.5485470000000  0.4592500000000 1.0
C      1  0.4263540000000  0.4670040000000  0.4649580000000 1.0
C      1  0.4923300000000  0.4174820000000  0.4623520000000 1.0
C      1  0.5647700000000  0.4686050000000  0.5600470000000 1.0
C      1  0.5559250000000  0.5379950000000  0.5549180000000 1.0
C      1  0.4796660000000  0.5777900000000  0.5532870000000 1.0
C      1  0.4418370000000  0.5333250000000  0.5581780000000 1.0
C      1  0.4439220000000  0.4610320000000  0.5600320000000 1.0
C      1  0.5068540000000  0.4290360000000  0.5589780000000 1.0
C      1  0.5621450000000  0.4706560000000  0.4395410000000 1.0
C      1  0.5578320000000  0.5405310000000  0.4366800000000 1.0
C      1  0.4947430000000  0.5708600000000  0.4381990000000 1.0
C      1  0.4363900000000  0.5311770000000  0.4370540000000 1.0
C      1  0.4413410000000  0.4615620000000  0.4400630000000 1.0
C      1  0.5043030000000  0.4309120000000  0.4395040000000 1.0
C      1  0.5233460000000  0.4771170000000  0.5858910000000 1.0
C      1  0.5302120000000  0.5051180000000  0.5854200000000 1.0
C      1  0.5091010000000  0.5232840000000  0.5852990000000 1.0
C      1  0.4815680000000  0.5158510000000  0.5853860000000 1.0
C      1  0.4744490000000  0.4890700000000  0.5850680000000 1.0
C      1  0.4955350000000  0.4694200000000  0.5856490000000 1.0
C      1  0.5188850000000  0.4811990000000  0.4166530000000 1.0
C      1  0.5261100000000  0.5088260000000  0.4148780000000 1.0
C      1  0.5059160000000  0.5287230000000  0.4140810000000 1.0
C      1  0.4784160000000  0.5202090000000  0.4125890000000 1.0
C      1  0.4708830000000  0.4922620000000  0.4134600000000 1.0
C      1  0.4916010000000  0.4725820000000  0.4149580000000 1.0
C      1  0.5047690000000  0.5262720000000  0.4772310000000 1.0
C      1  0.4834470000000  0.5100620000000  0.4684980000000 1.0
C      1  0.4822710000000  0.4842310000000  0.4714240000000 1.0
C      1  0.5205910000000  0.4696620000000  0.4901480000000 1.0
C      1  0.5341280000000  0.4936630000000  0.4952440000000 1.0
C      1  0.5288870000000  0.5130030000000  0.4766700000000 1.0
C      1  0.4736200000000  0.5269290000000  0.5100210000000 1.0
C      1  0.4671760000000  0.5020140000000  0.5144630000000 1.0
C      1  0.4828500000000  0.4792110000000  0.5185510000000 1.0
C      1  0.5063160000000  0.4843400000000  0.5325680000000 1.0
C      1  0.5254750000000  0.5022220000000  0.5231990000000 1.0
C      1  0.5181300000000  0.5300660000000  0.5246650000000 1.0
C      1  0.5720050000000  0.4951270000000  0.5636050000000 1.0
C      1  0.5298280000000  0.5514670000000  0.5492270000000 1.0
C      1  0.4850540000000  0.5572460000000  0.5700480000000 1.0
C      1  0.4332730000000  0.5058170000000  0.5603270000000 1.0
C      1  0.4634250000000  0.4413430000000  0.5611340000000 1.0
C      1  0.5333160000000  0.4365300000000  0.5593740000000 1.0
C      1  0.5695000000000  0.4968400000000  0.4353450000000 1.0
C      1  0.5377080000000  0.5591480000000  0.4382280000000 1.0
C      1  0.4685430000000  0.5630270000000  0.4346080000000 1.0
C      1  0.4300500000000  0.5047150000000  0.4390960000000 1.0
C      1  0.4604610000000  0.4415220000000  0.4381770000000 1.0
C      1  0.5307830000000  0.4387020000000  0.4396400000000 1.0
C      1  0.4195040000000  0.4948740000000  0.4636740000000 1.0
C      1  0.4641390000000  0.4235110000000  0.4596220000000 1.0
C      1  0.5491340000000  0.4318260000000  0.4597890000000 1.0
C      1  0.5845530000000  0.5091650000000  0.4555210000000 1.0
C      1  0.5342650000000  0.5750120000000  0.4616020000000 1.0
C      1  0.4508250000000  0.5690780000000  0.4553720000000 1.0
C      1  0.4153870000000  0.4913280000000  0.5425320000000 1.0
C      1  0.4662720000000  0.4240520000000  0.5391420000000 1.0
C      1  0.5495640000000  0.4320630000000  0.5368400000000 1.0
C      1  0.5864590000000  0.5063810000000  0.5427810000000 1.0
C      1  0.5265890000000  0.5803460000000  0.5397240000000 1.0
C      1  0.4539870000000  0.5767410000000  0.5419140000000 1.0
C      1  0.4600800000000  0.5388080000000  0.4227650000000 1.0
C      1  0.4459430000000  0.4854590000000  0.4254760000000 1.0
C      1  0.4853980000000  0.4472570000000  0.4257650000000 1.0
C      1  0.5375030000000  0.4633330000000  0.4278730000000 1.0
C      1  0.5519310000000  0.5158800000000  0.4236790000000 1.0
C      1  0.5130520000000  0.5538820000000  0.4251790000000 1.0
C      1  0.4659150000000  0.5366500000000  0.5737260000000 1.0
C      1  0.4493750000000  0.4855540000000  0.5726570000000 1.0
C      1  0.4885810000000  0.4450630000000  0.5737220000000 1.0
C      1  0.5415600000000  0.4595950000000  0.5734690000000 1.0
C      1  0.5537690000000  0.5148120000000  0.5726690000000 1.0
C      1  0.5114330000000  0.5477150000000  0.5720410000000 1.0
C      1  0.4426870000000  0.5804800000000  0.4985800000000 1.0
C      1  0.5544350000000  0.5894060000000  0.5036190000000 1.0
C      1  0.5944820000000  0.5092370000000  0.4997770000000 1.0
C      1  0.3949340000000  0.5059940000000  0.5046190000000 1.0
C      1  0.5550050000000  0.4012630000000  0.4980490000000 1.0
C      1  0.4450560000000  0.4051710000000  0.5000510000000 1.0
C      1  0.4926620000000  0.4680450000000  0.4908980000000 1.0
C      1  0.4988090000000  0.5368070000000  0.5052570000000 1.0
END
