TITL C-25628-115-3 -124.821058633715 125000 -565.344829447759 0 0 80 (C2h) n - 1
REM
REM in /rds/project/t2_vol4/rds-t2-cs072/BORA/CARBON/from-Arr/AIRSS/Generating-Clusters/GAP-ML-2020/Higher-Symm/SD-CG/HFTN-CG
REM
REM
REM
REM
REM
REM ./C.cell (b20cbc046b6831c77cfcea5457e17084)
REM AIRSS Version 0.9.1 bugfix July 2018 build 013d7b7c2542+ Fri, 06 Jul 2018 19:26:36 +0100
REM compiler GCC version 9.3.0
REM options -cpp -mtune=generic -march=x86-64 -g -O0
REM seed -334441083 1335453312 -739571079 572198019 -531309424 -2073773786 -1439891451 1204133997 -2111658184 -2142608361 -10718004 -1888393938 327136401 -1903635576 47595985 1730952563 593763628 1518660595 1424524724 -1718181340 -1593685991 33993342 -912613239 -1917981623 1541154375 -542227276 -49248875 599700794 1217662532 -1598483673 957914309 2140682540 -1367043358
REM
CELL 1.54180   50.00000   50.00000   50.00000   90.00000   90.00000   90.00000
LATT -1
SFAC C  
C      1  0.4449540000000  0.5469970000000  0.4651950000000 1.0
C      1  0.4449660000000  0.4529910000000  0.5348090000000 1.0
C      1  0.5550330000000  0.5470090000000  0.4651910000000 1.0
C      1  0.5550460000000  0.4530030000000  0.5348050000000 1.0
C      1  0.5140600000000  0.5059440000000  0.4193910000000 1.0
C      1  0.5140660000000  0.4940590000000  0.5806080000000 1.0
C      1  0.4859340000000  0.5059410000000  0.4193920000000 1.0
C      1  0.4859400000000  0.4940560000000  0.5806090000000 1.0
C      1  0.5294640000000  0.5394050000000  0.4547600000000 1.0
C      1  0.5294760000000  0.4606020000000  0.5452380000000 1.0
C      1  0.4705240000000  0.5393980000000  0.4547620000000 1.0
C      1  0.4705360000000  0.4605950000000  0.5452400000000 1.0
C      1  0.5348070000000  0.5506790000000  0.5088780000000 1.0
C      1  0.5348180000000  0.4493290000000  0.4911200000000 1.0
C      1  0.4651820000000  0.5506710000000  0.5088800000000 1.0
C      1  0.4651930000000  0.4493210000000  0.4911220000000 1.0
C      1  0.4671260000000  0.5263280000000  0.4288650000000 1.0
C      1  0.4671370000000  0.4736650000000  0.5711370000000 1.0
C      1  0.5328630000000  0.5263350000000  0.4288630000000 1.0
C      1  0.5328740000000  0.4736720000000  0.5711350000000 1.0
C      1  0.5589430000000  0.5480390000000  0.4933470000000 1.0
C      1  0.5589540000000  0.4519740000000  0.5066490000000 1.0
C      1  0.4410460000000  0.5480260000000  0.4933510000000 1.0
C      1  0.4410570000000  0.4519610000000  0.5066530000000 1.0
C      1  0.4212930000000  0.4723000000000  0.5001040000000 1.0
C      1  0.4212870000000  0.5276830000000  0.4999010000000 1.0
C      1  0.5787130000000  0.4723170000000  0.5000990000000 1.0
C      1  0.5787070000000  0.5277000000000  0.4998960000000 1.0
C      1  0.5729580000000  0.4723060000000  0.5464520000000 1.0
C      1  0.5729490000000  0.5277100000000  0.4535430000000 1.0
C      1  0.4270510000000  0.4722900000000  0.5464570000000 1.0
C      1  0.4270420000000  0.5276940000000  0.4535480000000 1.0
C      1  0.5277160000000  0.4813340000000  0.4270250000000 1.0
C      1  0.5277170000000  0.5186720000000  0.5729730000000 1.0
C      1  0.4722830000000  0.4813280000000  0.4270270000000 1.0
C      1  0.4722840000000  0.5186660000000  0.5729750000000 1.0
C      1  0.5152670000000  0.4671100000000  0.4496320000000 1.0
C      1  0.5152630000000  0.5328930000000  0.5503670000000 1.0
C      1  0.4847370000000  0.4671070000000  0.4496330000000 1.0
C      1  0.4847330000000  0.5328900000000  0.5503680000000 1.0
C      1  0.5154980000000  0.5114430000000  0.5252120000000 1.0
C      1  0.5154980000000  0.4885600000000  0.4747870000000 1.0
C      1  0.4845020000000  0.5114400000000  0.5252130000000 1.0
C      1  0.4845020000000  0.4885570000000  0.4747880000000 1.0
C      1  0.5704170000000  0.5286420000000  0.5493820000000 1.0
C      1  0.5704200000000  0.4713740000000  0.4506130000000 1.0
C      1  0.4295800000000  0.5286260000000  0.5493870000000 1.0
C      1  0.4295830000000  0.4713580000000  0.4506180000000 1.0
C      1  0.5819090000000  0.4841310000000  0.4744080000000 1.0
C      1  0.5819070000000  0.5158870000000  0.5255860000000 1.0
C      1  0.4180930000000  0.4841130000000  0.4744140000000 1.0
C      1  0.4180910000000  0.5158690000000  0.5255920000000 1.0
C      1  0.5158250000000  0.4695830000000  0.4982190000000 1.0
C      1  0.5158180000000  0.5304200000000  0.5017800000000 1.0
C      1  0.4841820000000  0.4695800000000  0.4982200000000 1.0
C      1  0.4841750000000  0.5304160000000  0.5017810000000 1.0
C      1  0.5561800000000  0.5131150000000  0.5688210000000 1.0
C      1  0.5561780000000  0.4868980000000  0.4311750000000 1.0
C      1  0.4438220000000  0.5131020000000  0.5688250000000 1.0
C      1  0.4438200000000  0.4868850000000  0.4311790000000 1.0
C      1  0.5593270000000  0.5542410000000  0.5486510000000 1.0
C      1  0.5593350000000  0.4457720000000  0.4513450000000 1.0
C      1  0.4406650000000  0.5542280000000  0.5486550000000 1.0
C      1  0.4406730000000  0.4457590000000  0.4513490000000 1.0
C      1  0.5590410000000  0.4851530000000  0.5678240000000 1.0
C      1  0.5590330000000  0.5148600000000  0.4321720000000 1.0
C      1  0.4409670000000  0.4851400000000  0.5678280000000 1.0
C      1  0.4409590000000  0.5148470000000  0.4321760000000 1.0
C      1  0.5152920000000  0.4799830000000  0.5257530000000 1.0
C      1  0.5152860000000  0.5200200000000  0.4742460000000 1.0
C      1  0.4847140000000  0.4799800000000  0.5257540000000 1.0
C      1  0.4847080000000  0.5200170000000  0.4742470000000 1.0
C      1  0.5841810000000  0.5128950000000  0.4752220000000 1.0
C      1  0.5841850000000  0.4871240000000  0.5247720000000 1.0
C      1  0.4158150000000  0.5128760000000  0.4752280000000 1.0
C      1  0.4158190000000  0.4871050000000  0.5247780000000 1.0
C      1  0.5346140000000  0.4475470000000  0.4622510000000 1.0
C      1  0.5346050000000  0.5524610000000  0.5377470000000 1.0
C      1  0.4653950000000  0.4475390000000  0.4622530000000 1.0
C      1  0.4653860000000  0.5524530000000  0.5377490000000 1.0
END
