TITL C-25833-4769-5 60.8276198077846 125000 -946.568332463541 0 0 132 (C1) n - 1
REM
REM in /rds/project/t2_vol4/rds-t2-cs072/BORA/CARBON/from-Arr/AIRSS/Generating-Clusters/GAP-ML-2020/Higher-Symm/SD-CG/HFTN-CG
REM
REM
REM
REM
REM
REM ./C.cell (b20cbc046b6831c77cfcea5457e17084)
REM AIRSS Version 0.9.1 bugfix July 2018 build 013d7b7c2542+ Fri, 06 Jul 2018 19:26:36 +0100
REM compiler GCC version 9.3.0
REM options -cpp -mtune=generic -march=x86-64 -g -O0
REM seed -410253882 1936820592 482218463 -74565814 1454057651 602579699 910832455 1552934908 1125515738 -1582812222 1767078648 -511309731 628229072 1476493610 -108750464 1397832584 1760335808 1019556197 -684065260 393612229 1991390352 117846881 24837563 498422620 -770751041 2061219312 1741528417 255750024 596527782 1652671148 -211364504 2078315083 -1695409728
REM
CELL 1.54180   50.00000   50.00000   50.00000   90.00000   90.00000   90.00000
LATT -1
SFAC C  
C      1  0.4566150000000  0.5933960000000  0.5169800000000 1.0
C      1  0.4514330000000  0.6026850000000  0.4912210000000 1.0
C      1  0.4657060000000  0.5950380000000  0.4686040000000 1.0
C      1  0.4901530000000  0.6071780000000  0.4602680000000 1.0
C      1  0.5140960000000  0.5952320000000  0.4553310000000 1.0
C      1  0.5378810000000  0.5936970000000  0.4731110000000 1.0
C      1  0.5423490000000  0.6044570000000  0.4972760000000 1.0
C      1  0.5403200000000  0.5927770000000  0.5228100000000 1.0
C      1  0.5237790000000  0.6014900000000  0.5433440000000 1.0
C      1  0.4974930000000  0.5928640000000  0.5466660000000 1.0
C      1  0.4743250000000  0.6035180000000  0.5357970000000 1.0
C      1  0.4065190000000  0.5094020000000  0.5081270000000 1.0
C      1  0.4177570000000  0.5093630000000  0.4565050000000 1.0
C      1  0.4538840000000  0.5088830000000  0.4195300000000 1.0
C      1  0.5051790000000  0.5088950000000  0.4079720000000 1.0
C      1  0.5546390000000  0.5088470000000  0.4246500000000 1.0
C      1  0.5862460000000  0.5089770000000  0.4664350000000 1.0
C      1  0.5915770000000  0.5090540000000  0.5189500000000 1.0
C      1  0.5677860000000  0.5092830000000  0.5653600000000 1.0
C      1  0.5213180000000  0.5092390000000  0.5911360000000 1.0
C      1  0.4691090000000  0.5089500000000  0.5876770000000 1.0
C      1  0.4258150000000  0.5092070000000  0.5564940000000 1.0
C      1  0.4113900000000  0.5377320000000  0.5075630000000 1.0
C      1  0.4214400000000  0.5378600000000  0.4579550000000 1.0
C      1  0.4555060000000  0.5373330000000  0.4225030000000 1.0
C      1  0.5049210000000  0.5372300000000  0.4103210000000 1.0
C      1  0.5510580000000  0.5372110000000  0.4281210000000 1.0
C      1  0.5811670000000  0.5368040000000  0.4674520000000 1.0
C      1  0.5859860000000  0.5372450000000  0.5176850000000 1.0
C      1  0.5640740000000  0.5375330000000  0.5618850000000 1.0
C      1  0.5199850000000  0.5375090000000  0.5870600000000 1.0
C      1  0.4705630000000  0.5371220000000  0.5835840000000 1.0
C      1  0.4292770000000  0.5374330000000  0.5535900000000 1.0
C      1  0.4706110000000  0.4543540000000  0.5814670000000 1.0
C      1  0.4312470000000  0.4541060000000  0.5533740000000 1.0
C      1  0.4126490000000  0.4541110000000  0.5068080000000 1.0
C      1  0.4218830000000  0.4541080000000  0.4595920000000 1.0
C      1  0.4572400000000  0.4534090000000  0.4243370000000 1.0
C      1  0.5041210000000  0.4534350000000  0.4136860000000 1.0
C      1  0.5505920000000  0.4531580000000  0.4318460000000 1.0
C      1  0.5833230000000  0.4540110000000  0.4689740000000 1.0
C      1  0.5872810000000  0.4532830000000  0.5171240000000 1.0
C      1  0.5631410000000  0.4540050000000  0.5614650000000 1.0
C      1  0.5208690000000  0.4539990000000  0.5849120000000 1.0
C      1  0.4690700000000  0.4302400000000  0.5672810000000 1.0
C      1  0.4453050000000  0.4298940000000  0.5504000000000 1.0
C      1  0.4255900000000  0.4302250000000  0.4993600000000 1.0
C      1  0.4312780000000  0.4300400000000  0.4708020000000 1.0
C      1  0.4689760000000  0.4285990000000  0.4314110000000 1.0
C      1  0.4974000000000  0.4279220000000  0.4241020000000 1.0
C      1  0.5444310000000  0.4284120000000  0.4400170000000 1.0
C      1  0.5725560000000  0.4296030000000  0.4785590000000 1.0
C      1  0.5752980000000  0.4293060000000  0.5077630000000 1.0
C      1  0.5493580000000  0.4299120000000  0.5563730000000 1.0
C      1  0.5239990000000  0.4298600000000  0.5707930000000 1.0
C      1  0.4841360000000  0.4145900000000  0.5467770000000 1.0
C      1  0.4602780000000  0.4144070000000  0.5297770000000 1.0
C      1  0.4504770000000  0.4143520000000  0.5042470000000 1.0
C      1  0.4559660000000  0.4136100000000  0.4754620000000 1.0
C      1  0.4749720000000  0.4115650000000  0.4554600000000 1.0
C      1  0.5034890000000  0.4110530000000  0.4477510000000 1.0
C      1  0.5305190000000  0.4111680000000  0.4571450000000 1.0
C      1  0.5474170000000  0.4138100000000  0.4802780000000 1.0
C      1  0.5500530000000  0.4132090000000  0.5097100000000 1.0
C      1  0.5368880000000  0.4145170000000  0.5339430000000 1.0
C      1  0.5113890000000  0.4145400000000  0.5483540000000 1.0
C      1  0.4521810000000  0.5635750000000  0.5183810000000 1.0
C      1  0.4525390000000  0.5528320000000  0.4895430000000 1.0
C      1  0.4626630000000  0.5653170000000  0.4630740000000 1.0
C      1  0.4883810000000  0.5543840000000  0.4503220000000 1.0
C      1  0.5164170000000  0.5661730000000  0.4477180000000 1.0
C      1  0.5410760000000  0.5639010000000  0.4676160000000 1.0
C      1  0.5456920000000  0.5504360000000  0.4948090000000 1.0
C      1  0.5442960000000  0.5628130000000  0.5237420000000 1.0
C      1  0.5236910000000  0.5517440000000  0.5430330000000 1.0
C      1  0.4968710000000  0.5631210000000  0.5516840000000 1.0
C      1  0.4715540000000  0.5515110000000  0.5389890000000 1.0
C      1  0.4149640000000  0.4666410000000  0.5328190000000 1.0
C      1  0.4095820000000  0.4685210000000  0.4817770000000 1.0
C      1  0.4346180000000  0.4664250000000  0.4369640000000 1.0
C      1  0.4789920000000  0.4680000000000  0.4120580000000 1.0
C      1  0.5297400000000  0.4666650000000  0.4167900000000 1.0
C      1  0.5725120000000  0.4670120000000  0.4455540000000 1.0
C      1  0.5932150000000  0.4679430000000  0.4925640000000 1.0
C      1  0.5818020000000  0.4662340000000  0.5428960000000 1.0
C      1  0.5455860000000  0.4684780000000  0.5796970000000 1.0
C      1  0.4952960000000  0.4665870000000  0.5906180000000 1.0
C      1  0.4465160000000  0.4685720000000  0.5733980000000 1.0
C      1  0.4608770000000  0.5237890000000  0.4903420000000 1.0
C      1  0.4753740000000  0.5105820000000  0.4715770000000 1.0
C      1  0.4938680000000  0.5272510000000  0.4609400000000 1.0
C      1  0.5163520000000  0.5146810000000  0.4555660000000 1.0
C      1  0.5296250000000  0.5040990000000  0.4756650000000 1.0
C      1  0.5357260000000  0.5221340000000  0.4957390000000 1.0
C      1  0.5356240000000  0.5090030000000  0.5195850000000 1.0
C      1  0.5208760000000  0.5222760000000  0.5380370000000 1.0
C      1  0.4977800000000  0.5081920000000  0.5387180000000 1.0
C      1  0.4771390000000  0.5233880000000  0.5302760000000 1.0
C      1  0.4614410000000  0.5092900000000  0.5133410000000 1.0
C      1  0.5767990000000  0.5479630000000  0.4929610000000 1.0
C      1  0.5694820000000  0.5496040000000  0.5368520000000 1.0
C      1  0.5391180000000  0.5491960000000  0.5693370000000 1.0
C      1  0.4955410000000  0.5496010000000  0.5794330000000 1.0
C      1  0.4535110000000  0.5481710000000  0.5636310000000 1.0
C      1  0.4260700000000  0.5499610000000  0.5283210000000 1.0
C      1  0.4224190000000  0.5494000000000  0.4839740000000 1.0
C      1  0.4425020000000  0.5505270000000  0.4440700000000 1.0
C      1  0.4814170000000  0.5486950000000  0.4212470000000 1.0
C      1  0.5262110000000  0.5503040000000  0.4235140000000 1.0
C      1  0.5619400000000  0.5493840000000  0.4512190000000 1.0
C      1  0.4570890000000  0.4696350000000  0.4885990000000 1.0
C      1  0.4747080000000  0.4819210000000  0.4712950000000 1.0
C      1  0.4907940000000  0.4632200000000  0.4598780000000 1.0
C      1  0.5092750000000  0.4579280000000  0.4771690000000 1.0
C      1  0.5292200000000  0.4758530000000  0.4804360000000 1.0
C      1  0.5467290000000  0.4670850000000  0.4987630000000 1.0
C      1  0.5363530000000  0.4801840000000  0.5198500000000 1.0
C      1  0.5212310000000  0.4663300000000  0.5374640000000 1.0
C      1  0.4974280000000  0.4790020000000  0.5374830000000 1.0
C      1  0.4743850000000  0.4658580000000  0.5326050000000 1.0
C      1  0.4629010000000  0.4801240000000  0.5126250000000 1.0
C      1  0.5735700000000  0.4953570000000  0.4434350000000 1.0
C      1  0.5934050000000  0.4961100000000  0.4924440000000 1.0
C      1  0.5832480000000  0.4949710000000  0.5439660000000 1.0
C      1  0.5464760000000  0.4964870000000  0.5815500000000 1.0
C      1  0.4951010000000  0.4951210000000  0.5927310000000 1.0
C      1  0.4452070000000  0.4964890000000  0.5750900000000 1.0
C      1  0.4128000000000  0.4952040000000  0.5336740000000 1.0
C      1  0.4081860000000  0.4966070000000  0.4815270000000 1.0
C      1  0.4332450000000  0.4950420000000  0.4355950000000 1.0
C      1  0.4786970000000  0.4959320000000  0.4103600000000 1.0
C      1  0.5309240000000  0.4949030000000  0.4137530000000 1.0
END
