TITL C-25031-9806-3 -0.0139108841686041 125000 -97.3696984809824 0 0 16 (Td) n - 1
REM
REM in /rds/project/t2_vol4/rds-t2-cs072/BORA/CARBON/from-Arr/AIRSS/Generating-Clusters/GAP-ML-2020/Higher-Symm/SD-CG/HFTN-CG
REM
REM
REM
REM
REM
REM ./C.cell (b20cbc046b6831c77cfcea5457e17084)
REM AIRSS Version 0.9.1 bugfix July 2018 build 013d7b7c2542+ Fri, 06 Jul 2018 19:26:36 +0100
REM compiler GCC version 9.3.0
REM options -cpp -mtune=generic -march=x86-64 -g -O0
REM seed 13890586 601423847 -911792409 -1467731646 -1966638902 -1808646843 1387099052 -1069149472 2047957014 1254476174 -1336316102 1580981245 -1020750128 -97756910 490926720 -269302146 -1549234405 1535236281 -1566666019 -1333722314 -23174277 -1396209366 1813746516 1300331903 284228154 -634029320 563888419 1328611477 -1634389993 -1826344172 1075412590 -820329430 1362107255
REM
CELL 1.54180   50.00000   50.00000   50.00000   90.00000   90.00000   90.00000
LATT -1
SFAC C  
C      1  0.5257810000000  0.5253230000000  0.4930520000000 1.0
C      1  0.5257810000000  0.4918800000000  0.5264960000000 1.0
C      1  0.5257810000000  0.5048610000000  0.4725900000000 1.0
C      1  0.4923370000000  0.5253230000000  0.5264960000000 1.0
C      1  0.4718740000000  0.5048610000000  0.5264960000000 1.0
C      1  0.5257810000000  0.4714170000000  0.5060330000000 1.0
C      1  0.5053180000000  0.5253230000000  0.4725900000000 1.0
C      1  0.4718740000000  0.5253230000000  0.5060330000000 1.0
C      1  0.5053180000000  0.4714170000000  0.5264960000000 1.0
C      1  0.4923370000000  0.4714170000000  0.4725900000000 1.0
C      1  0.4718740000000  0.4714170000000  0.4930520000000 1.0
C      1  0.4718740000000  0.4918790000000  0.4725900000000 1.0
C      1  0.5165130000000  0.4806850000000  0.4818570000000 1.0
C      1  0.4811420000000  0.5160550000000  0.4818570000000 1.0
C      1  0.4811420000000  0.4806850000000  0.5172280000000 1.0
C      1  0.5165130000000  0.5160560000000  0.5172280000000 1.0
END
