TITL C-25624-73-1 0.0651531245307937 125000 -149.11164005118 0 0 23 (D3h) n - 1
REM
REM in /rds/project/t2_vol4/rds-t2-cs072/BORA/CARBON/from-Arr/AIRSS/Generating-Clusters/GAP-ML-2020/Higher-Symm/SD-CG/HFTN-CG
REM
REM
REM
REM
REM
REM ./C.cell (b20cbc046b6831c77cfcea5457e17084)
REM AIRSS Version 0.9.1 bugfix July 2018 build 013d7b7c2542+ Fri, 06 Jul 2018 19:26:36 +0100
REM compiler GCC version 9.3.0
REM options -cpp -mtune=generic -march=x86-64 -g -O0
REM seed 1560714249 -678316803 -1243660897 308920108 286505432 1831642775 336028577 -689340146 900019268 -1652947731 1793335811 -1567737082 910088287 1732902826 868032784 -52811927 95740306 -1072844701 240258799 402064668 733478123 -811094472 -1816613335 -1350512731 713259347 -40949663 -1046413414 1161257252 1429854971 -1422038222 -1908453399 -901527053 -614006764
REM
CELL 1.54180   50.00000   50.00000   50.00000   90.00000   90.00000   90.00000
LATT -1
SFAC C  
C      1  0.4513530000000  0.4748030000000  0.5158720000000 1.0
C      1  0.4475450000000  0.4981340000000  0.4802640000000 1.0
C      1  0.4490080000000  0.5174050000000  0.5183850000000 1.0
C      1  0.5618910000000  0.5240710000000  0.5106820000000 1.0
C      1  0.5604270000000  0.5048000000000  0.4725600000000 1.0
C      1  0.5642350000000  0.4814690000000  0.5081690000000 1.0
C      1  0.5532950000000  0.5011520000000  0.5277390000000 1.0
C      1  0.5515180000000  0.4777450000000  0.4814380000000 1.0
C      1  0.5486700000000  0.5294890000000  0.4844900000000 1.0
C      1  0.4624590000000  0.4957880000000  0.5339380000000 1.0
C      1  0.4578340000000  0.5241250000000  0.4906890000000 1.0
C      1  0.4606820000000  0.4723810000000  0.4876370000000 1.0
C      1  0.4764720000000  0.5417970000000  0.4810400000000 1.0
C      1  0.4839520000000  0.4959650000000  0.5509910000000 1.0
C      1  0.4810770000000  0.4581070000000  0.4761030000000 1.0
C      1  0.5315630000000  0.4610880000000  0.4726580000000 1.0
C      1  0.5344380000000  0.4989460000000  0.5475460000000 1.0
C      1  0.5269580000000  0.5447790000000  0.4775950000000 1.0
C      1  0.5093440000000  0.4973410000000  0.5513570000000 1.0
C      1  0.5015400000000  0.5451560000000  0.4783800000000 1.0
C      1  0.5063450000000  0.4578440000000  0.4732290000000 1.0
C      1  0.5770660000000  0.5043250000000  0.4961210000000 1.0
C      1  0.4344200000000  0.4959020000000  0.5058560000000 1.0
END
