TITL C-25913-7862-7 577.373658834767 125000 -920.77613549639 0 0 130 (C5) n - 1
REM
REM in /rds/project/t2_vol4/rds-t2-cs072/BORA/CARBON/from-Arr/AIRSS/Generating-Clusters/GAP-ML-2020/Higher-Symm/SD-CG/HFTN-CG
REM
REM
REM
REM
REM
REM ./C.cell (b20cbc046b6831c77cfcea5457e17084)
REM AIRSS Version 0.9.1 bugfix July 2018 build 013d7b7c2542+ Fri, 06 Jul 2018 19:26:36 +0100
REM compiler GCC version 9.3.0
REM options -cpp -mtune=generic -march=x86-64 -g -O0
REM seed 451314791 -609507291 -1865724748 469661184 -270488289 1166990474 -1429869080 -465773536 192945420 745771677 968707983 2014166472 50537962 1589709611 -1590763552 1057013746 271773439 56807670 -1093770339 342446127 -1263871578 155277364 414390567 -1433090996 -1624092456 -1412254930 -50033371 1127953392 -1290212308 722213948 1696770791 -1909530547 561773678
REM
CELL 1.54180   50.00000   50.00000   50.00000   90.00000   90.00000   90.00000
LATT -1
SFAC C  
C      1  0.4278500000000  0.5336040000000  0.5491150000000 1.0
C      1  0.5247220000000  0.5342500000000  0.5834450000000 1.0
C      1  0.5873110000000  0.5334710000000  0.5019260000000 1.0
C      1  0.5291210000000  0.5323430000000  0.4172160000000 1.0
C      1  0.4305680000000  0.5324260000000  0.4463800000000 1.0
C      1  0.5073690000000  0.5891170000000  0.4758670000000 1.0
C      1  0.4801460000000  0.5891480000000  0.4846030000000 1.0
C      1  0.4800420000000  0.5894770000000  0.5131920000000 1.0
C      1  0.5072010000000  0.5896500000000  0.5221240000000 1.0
C      1  0.5240900000000  0.5894280000000  0.4990560000000 1.0
C      1  0.3924600000000  0.5457900000000  0.5159220000000 1.0
C      1  0.4823310000000  0.5470690000000  0.6067120000000 1.0
C      1  0.5964570000000  0.5467010000000  0.5492980000000 1.0
C      1  0.5771190000000  0.5451940000000  0.4230240000000 1.0
C      1  0.4510420000000  0.5446300000000  0.4023970000000 1.0
C      1  0.5103900000000  0.4122980000000  0.4552810000000 1.0
C      1  0.4598760000000  0.4124210000000  0.4772110000000 1.0
C      1  0.4651230000000  0.4130670000000  0.5320260000000 1.0
C      1  0.5188800000000  0.4133430000000  0.5439730000000 1.0
C      1  0.5468560000000  0.4128680000000  0.4965420000000 1.0
C      1  0.4529410000000  0.4360770000000  0.5485470000000 1.0
C      1  0.5310390000000  0.4364150000000  0.5604240000000 1.0
C      1  0.5664710000000  0.4356920000000  0.4898240000000 1.0
C      1  0.5102720000000  0.4349060000000  0.4343130000000 1.0
C      1  0.4401070000000  0.4351440000000  0.4706060000000 1.0
C      1  0.4100920000000  0.4770020000000  0.5086750000000 1.0
C      1  0.4802550000000  0.4781030000000  0.5884210000000 1.0
C      1  0.5777860000000  0.4778690000000  0.5463370000000 1.0
C      1  0.5679010000000  0.4766230000000  0.4405810000000 1.0
C      1  0.4642600000000  0.4760870000000  0.4173050000000 1.0
C      1  0.4937600000000  0.5684120000000  0.5636840000000 1.0
C      1  0.5592650000000  0.5681340000000  0.5249060000000 1.0
C      1  0.5426270000000  0.5672340000000  0.4506290000000 1.0
C      1  0.4668390000000  0.5669560000000  0.4435010000000 1.0
C      1  0.4366370000000  0.5676840000000  0.5133730000000 1.0
C      1  0.4028160000000  0.5218190000000  0.5094650000000 1.0
C      1  0.4791700000000  0.5230040000000  0.5951170000000 1.0
C      1  0.5842320000000  0.5227430000000  0.5489700000000 1.0
C      1  0.5728100000000  0.5213950000000  0.4347970000000 1.0
C      1  0.4606880000000  0.5208250000000  0.4103820000000 1.0
C      1  0.5358330000000  0.5034880000000  0.4135390000000 1.0
C      1  0.4288800000000  0.5035080000000  0.4391610000000 1.0
C      1  0.4201960000000  0.5047510000000  0.5487910000000 1.0
C      1  0.5217830000000  0.5054990000000  0.5909230000000 1.0
C      1  0.5932510000000  0.5047180000000  0.5073330000000 1.0
C      1  0.4532630000000  0.4107030000000  0.5068190000000 1.0
C      1  0.4912210000000  0.4112700000000  0.5474850000000 1.0
C      1  0.5416300000000  0.4111280000000  0.5239520000000 1.0
C      1  0.5348260000000  0.4104740000000  0.4687420000000 1.0
C      1  0.4802120000000  0.4102110000000  0.4581530000000 1.0
C      1  0.5782270000000  0.4892150000000  0.4648930000000 1.0
C      1  0.4906870000000  0.4884120000000  0.4148690000000 1.0
C      1  0.4160560000000  0.4890020000000  0.4826620000000 1.0
C      1  0.4574700000000  0.4901690000000  0.5745840000000 1.0
C      1  0.5576970000000  0.4903010000000  0.5636020000000 1.0
C      1  0.5216650000000  0.4589640000000  0.4864390000000 1.0
C      1  0.4934210000000  0.4587670000000  0.4756330000000 1.0
C      1  0.4744140000000  0.4589890000000  0.4991550000000 1.0
C      1  0.4909120000000  0.4593240000000  0.5244980000000 1.0
C      1  0.5201150000000  0.4593090000000  0.5166390000000 1.0
C      1  0.4903890000000  0.5310580000000  0.4768140000000 1.0
C      1  0.4752650000000  0.5313060000000  0.5016490000000 1.0
C      1  0.4942130000000  0.5316090000000  0.5237060000000 1.0
C      1  0.5210470000000  0.5315490000000  0.5125020000000 1.0
C      1  0.5186830000000  0.5312080000000  0.4835210000000 1.0
C      1  0.5614570000000  0.4979910000000  0.4229240000000 1.0
C      1  0.4456730000000  0.4976330000000  0.4177520000000 1.0
C      1  0.4049710000000  0.4987800000000  0.5262650000000 1.0
C      1  0.4956010000000  0.4998480000000  0.5985010000000 1.0
C      1  0.5923150000000  0.4993600000000  0.5346330000000 1.0
C      1  0.4904090000000  0.4486700000000  0.4486020000000 1.0
C      1  0.4476840000000  0.4490810000000  0.4937680000000 1.0
C      1  0.4774390000000  0.4497870000000  0.5483550000000 1.0
C      1  0.5385530000000  0.4498130000000  0.5369260000000 1.0
C      1  0.5465690000000  0.4491220000000  0.4752750000000 1.0
C      1  0.4895050000000  0.5130010000000  0.5442920000000 1.0
C      1  0.5389990000000  0.5128890000000  0.5235360000000 1.0
C      1  0.5345530000000  0.5122600000000  0.4700540000000 1.0
C      1  0.4823120000000  0.5119830000000  0.4577570000000 1.0
C      1  0.4544710000000  0.5124410000000  0.5036390000000 1.0
C      1  0.4273990000000  0.5403940000000  0.4725340000000 1.0
C      1  0.4518150000000  0.5414680000000  0.5601300000000 1.0
C      1  0.5426760000000  0.5417470000000  0.5639770000000 1.0
C      1  0.5744140000000  0.5408450000000  0.4787570000000 1.0
C      1  0.5031690000000  0.5400090000000  0.4222420000000 1.0
C      1  0.5586740000000  0.5647990000000  0.4750220000000 1.0
C      1  0.4949730000000  0.5641820000000  0.4358060000000 1.0
C      1  0.4379880000000  0.5645950000000  0.4842690000000 1.0
C      1  0.4664700000000  0.5654660000000  0.5534360000000 1.0
C      1  0.5410580000000  0.5655930000000  0.5477210000000 1.0
C      1  0.4837520000000  0.4310260000000  0.5685510000000 1.0
C      1  0.5595380000000  0.4308610000000  0.5373610000000 1.0
C      1  0.5532930000000  0.4299020000000  0.4556510000000 1.0
C      1  0.4736480000000  0.4294740000000  0.4363420000000 1.0
C      1  0.4306690000000  0.4301680000000  0.5061180000000 1.0
C      1  0.5226970000000  0.4560690000000  0.5794650000000 1.0
C      1  0.5821810000000  0.4553450000000  0.5034370000000 1.0
C      1  0.5282540000000  0.4542820000000  0.4233760000000 1.0
C      1  0.4354410000000  0.4543490000000  0.4499230000000 1.0
C      1  0.4320060000000  0.4554540000000  0.5463910000000 1.0
C      1  0.5831820000000  0.5516490000000  0.5247570000000 1.0
C      1  0.5497240000000  0.5504470000000  0.4280110000000 1.0
C      1  0.4473670000000  0.5502050000000  0.4299350000000 1.0
C      1  0.4175650000000  0.5512580000000  0.5278710000000 1.0
C      1  0.5015030000000  0.5521510000000  0.5864740000000 1.0
C      1  0.5773510000000  0.4526940000000  0.5312770000000 1.0
C      1  0.5532130000000  0.4515390000000  0.4366020000000 1.0
C      1  0.4557070000000  0.4512150000000  0.4303050000000 1.0
C      1  0.4195830000000  0.4521700000000  0.5210870000000 1.0
C      1  0.4947640000000  0.4530840000000  0.5834910000000 1.0
C      1  0.4591880000000  0.5775900000000  0.4692900000000 1.0
C      1  0.4588960000000  0.5782730000000  0.5285100000000 1.0
C      1  0.5151310000000  0.5786330000000  0.5470850000000 1.0
C      1  0.5501770000000  0.5781720000000  0.4993460000000 1.0
C      1  0.5156020000000  0.5775280000000  0.4512660000000 1.0
C      1  0.4679510000000  0.5176720000000  0.5678890000000 1.0
C      1  0.5548220000000  0.5177040000000  0.5512790000000 1.0
C      1  0.5658710000000  0.5167200000000  0.4635320000000 1.0
C      1  0.4858280000000  0.5160790000000  0.4259120000000 1.0
C      1  0.4253100000000  0.5166670000000  0.4904080000000 1.0
C      1  0.5180880000000  0.4804580000000  0.4141110000000 1.0
C      1  0.4237290000000  0.4807040000000  0.4564540000000 1.0
C      1  0.4348400000000  0.4819190000000  0.5592720000000 1.0
C      1  0.5360670000000  0.4824250000000  0.5804750000000 1.0
C      1  0.5875160000000  0.4815220000000  0.4907610000000 1.0
C      1  0.5213640000000  0.4897580000000  0.4834230000000 1.0
C      1  0.4907430000000  0.4895780000000  0.4746660000000 1.0
C      1  0.4729510000000  0.4898370000000  0.5010810000000 1.0
C      1  0.4925760000000  0.4901770000000  0.5261630000000 1.0
C      1  0.5224970000000  0.4901290000000  0.5152500000000 1.0
END
