TITL C-25856-4244-2 89.9393950108961 125000 -1042.3819261793 0 0 150 (C5) n - 1
REM
REM in /rds/project/t2_vol4/rds-t2-cs072/BORA/CARBON/from-Arr/AIRSS/Generating-Clusters/GAP-ML-2020/Higher-Symm/SD-CG/HFTN-CG
REM
REM
REM
REM
REM
REM ./C.cell (b20cbc046b6831c77cfcea5457e17084)
REM AIRSS Version 0.9.1 bugfix July 2018 build 013d7b7c2542+ Fri, 06 Jul 2018 19:26:36 +0100
REM compiler GCC version 9.3.0
REM options -cpp -mtune=generic -march=x86-64 -g -O0
REM seed 2133685339 1602316378 -1181169730 987179440 -239983498 1379959628 -1714344790 -521683458 999538698 1655913290 313717925 922687680 931720812 812150746 162303697 -1467316648 -1849317523 -689780865 162829404 -879684683 -1146656735 2106470916 1412371141 1767799784 1769585554 666913204 1419397907 825850909 -1928380467 2060262234 1785153948 246660694 -404255282
REM
CELL 1.54180   50.00000   50.00000   50.00000   90.00000   90.00000   90.00000
LATT -1
SFAC C  
C      1  0.4607620000000  0.5884890000000  0.5342610000000 1.0
C      1  0.5204680000000  0.5884880000000  0.5479030000000 1.0
C      1  0.5518920000000  0.5884830000000  0.4953350000000 1.0
C      1  0.5116070000000  0.5884800000000  0.4492050000000 1.0
C      1  0.4552860000000  0.5884840000000  0.4732620000000 1.0
C      1  0.5218140000000  0.4001410000000  0.5113310000000 1.0
C      1  0.5175070000000  0.4001390000000  0.4827570000000 1.0
C      1  0.4890010000000  0.4001390000000  0.4780230000000 1.0
C      1  0.4756900000000  0.4001420000000  0.5036720000000 1.0
C      1  0.4959700000000  0.4001430000000  0.5242570000000 1.0
C      1  0.4942000000000  0.4805560000000  0.5914300000000 1.0
C      1  0.5851610000000  0.4805480000000  0.5337690000000 1.0
C      1  0.5584310000000  0.4805410000000  0.4294430000000 1.0
C      1  0.4509510000000  0.4805440000000  0.4226260000000 1.0
C      1  0.4112540000000  0.4805530000000  0.5227390000000 1.0
C      1  0.5247530000000  0.5969170000000  0.4983160000000 1.0
C      1  0.5060570000000  0.5969160000000  0.4759360000000 1.0
C      1  0.4789950000000  0.5969180000000  0.4868010000000 1.0
C      1  0.4809660000000  0.5969200000000  0.5158960000000 1.0
C      1  0.5092460000000  0.5969200000000  0.5230130000000 1.0
C      1  0.5423930000000  0.5110430000000  0.3929720000000 1.0
C      1  0.4113110000000  0.5110500000000  0.4266080000000 1.0
C      1  0.4027950000000  0.5110610000000  0.5616680000000 1.0
C      1  0.5286130000000  0.5110610000000  0.6115040000000 1.0
C      1  0.6148890000000  0.5110500000000  0.5072430000000 1.0
C      1  0.4490460000000  0.5723830000000  0.4488660000000 1.0
C      1  0.4356310000000  0.5723900000000  0.5326570000000 1.0
C      1  0.5111750000000  0.5723910000000  0.5713090000000 1.0
C      1  0.5712790000000  0.5723840000000  0.5114060000000 1.0
C      1  0.5328820000000  0.5723790000000  0.4357320000000 1.0
C      1  0.4567120000000  0.4628780000000  0.4654590000000 1.0
C      1  0.4537690000000  0.4628830000000  0.5304960000000 1.0
C      1  0.5147140000000  0.4628820000000  0.5533930000000 1.0
C      1  0.5553230000000  0.4628770000000  0.5025070000000 1.0
C      1  0.5194760000000  0.4628740000000  0.4481600000000 1.0
C      1  0.4547420000000  0.4209160000000  0.5070770000000 1.0
C      1  0.4927370000000  0.4209180000000  0.5452320000000 1.0
C      1  0.5407660000000  0.4209140000000  0.5208860000000 1.0
C      1  0.5324540000000  0.4209100000000  0.4676850000000 1.0
C      1  0.4792880000000  0.4209120000000  0.4591510000000 1.0
C      1  0.5574680000000  0.5640630000000  0.4471020000000 1.0
C      1  0.4674560000000  0.5640650000000  0.4289970000000 1.0
C      1  0.4224220000000  0.5640720000000  0.5090090000000 1.0
C      1  0.4846010000000  0.5640760000000  0.5765640000000 1.0
C      1  0.5680640000000  0.5640700000000  0.5383040000000 1.0
C      1  0.5576510000000  0.4898210000000  0.5456270000000 1.0
C      1  0.5612090000000  0.4898140000000  0.4592700000000 1.0
C      1  0.4801770000000  0.4898140000000  0.4292010000000 1.0
C      1  0.4265400000000  0.4898210000000  0.4969750000000 1.0
C      1  0.4744210000000  0.4898250000000  0.5689300000000 1.0
C      1  0.4440660000000  0.4877380000000  0.5701110000000 1.0
C      1  0.5493940000000  0.4877350000000  0.5748630000000 1.0
C      1  0.5864610000000  0.4877260000000  0.4761580000000 1.0
C      1  0.5040410000000  0.4877230000000  0.4104030000000 1.0
C      1  0.4160360000000  0.4877310000000  0.4684700000000 1.0
C      1  0.5940830000000  0.4636670000000  0.4596490000000 1.0
C      1  0.4906940000000  0.4636660000000  0.3980530000000 1.0
C      1  0.4001640000000  0.4636760000000  0.4773480000000 1.0
C      1  0.4476020000000  0.4636830000000  0.5879510000000 1.0
C      1  0.5674510000000  0.4636780000000  0.5770120000000 1.0
C      1  0.4405540000000  0.5618400000000  0.5598700000000 1.0
C      1  0.5385760000000  0.5618370000000  0.5750360000000 1.0
C      1  0.5832900000000  0.5618290000000  0.4864980000000 1.0
C      1  0.5129030000000  0.5618260000000  0.4166130000000 1.0
C      1  0.4246870000000  0.5618320000000  0.4619590000000 1.0
C      1  0.5626260000000  0.4417690000000  0.5610550000000 1.0
C      1  0.5774130000000  0.4417610000000  0.4593070000000 1.0
C      1  0.4852150000000  0.4417610000000  0.4138020000000 1.0
C      1  0.4134460000000  0.4417690000000  0.4874260000000 1.0
C      1  0.4612890000000  0.4417740000000  0.5784330000000 1.0
C      1  0.5235720000000  0.5400530000000  0.4937660000000 1.0
C      1  0.5013600000000  0.5400520000000  0.4756550000000 1.0
C      1  0.4772710000000  0.5400550000000  0.4911830000000 1.0
C      1  0.4845950000000  0.5400560000000  0.5188920000000 1.0
C      1  0.5132100000000  0.5400560000000  0.5204880000000 1.0
C      1  0.4726230000000  0.5375300000000  0.5794440000000 1.0
C      1  0.5671000000000  0.5375240000000  0.5505860000000 1.0
C      1  0.5688490000000  0.5375160000000  0.4518150000000 1.0
C      1  0.4754530000000  0.5375170000000  0.4196300000000 1.0
C      1  0.4159820000000  0.5375250000000  0.4985090000000 1.0
C      1  0.5066170000000  0.4983140000000  0.6103400000000 1.0
C      1  0.6069840000000  0.4983040000000  0.5278030000000 1.0
C      1  0.5595020000000  0.4982960000000  0.4068440000000 1.0
C      1  0.4297900000000  0.4983010000000  0.4146230000000 1.0
C      1  0.3971060000000  0.4983120000000  0.5403900000000 1.0
C      1  0.4753910000000  0.4428700000000  0.5016910000000 1.0
C      1  0.4939980000000  0.4428720000000  0.5239280000000 1.0
C      1  0.5208960000000  0.4428700000000  0.5131030000000 1.0
C      1  0.5189140000000  0.4428680000000  0.4841770000000 1.0
C      1  0.4907900000000  0.4428680000000  0.4771230000000 1.0
C      1  0.4746360000000  0.4592910000000  0.5966180000000 1.0
C      1  0.5840470000000  0.4592840000000  0.5539800000000 1.0
C      1  0.5773060000000  0.4592750000000  0.4367480000000 1.0
C      1  0.4637280000000  0.4592760000000  0.4069330000000 1.0
C      1  0.4002750000000  0.4592860000000  0.5057380000000 1.0
C      1  0.5191370000000  0.4833100000000  0.5723620000000 1.0
C      1  0.5747320000000  0.4833030000000  0.5041610000000 1.0
C      1  0.5270490000000  0.4832990000000  0.4302120000000 1.0
C      1  0.4419840000000  0.4833030000000  0.4527090000000 1.0
C      1  0.4370950000000  0.4833110000000  0.5405630000000 1.0
C      1  0.5544430000000  0.5375790000000  0.5765200000000 1.0
C      1  0.5896030000000  0.5375700000000  0.4718670000000 1.0
C      1  0.5009370000000  0.5375680000000  0.4060880000000 1.0
C      1  0.4109780000000  0.5375760000000  0.4700880000000 1.0
C      1  0.4440460000000  0.5375830000000  0.5754210000000 1.0
C      1  0.6016420000000  0.5137800000000  0.4817950000000 1.0
C      1  0.5140970000000  0.5137760000000  0.3977070000000 1.0
C      1  0.4070710000000  0.5137840000000  0.4549820000000 1.0
C      1  0.4284700000000  0.5137930000000  0.5744690000000 1.0
C      1  0.5487220000000  0.5137900000000  0.5910410000000 1.0
C      1  0.4889670000000  0.4704200000000  0.4561400000000 1.0
C      1  0.4548750000000  0.4704240000000  0.4969410000000 1.0
C      1  0.4831430000000  0.4704270000000  0.5419720000000 1.0
C      1  0.5347060000000  0.4704240000000  0.5290030000000 1.0
C      1  0.5383050000000  0.4704200000000  0.4759560000000 1.0
C      1  0.5606490000000  0.4337230000000  0.5019340000000 1.0
C      1  0.5205740000000  0.4337200000000  0.4429180000000 1.0
C      1  0.4520630000000  0.4337240000000  0.4627950000000 1.0
C      1  0.4497960000000  0.4337290000000  0.5340950000000 1.0
C      1  0.5169060000000  0.4337290000000  0.5582840000000 1.0
C      1  0.5407130000000  0.5173360000000  0.4872960000000 1.0
C      1  0.5005010000000  0.5173350000000  0.4573540000000 1.0
C      1  0.4595980000000  0.5173390000000  0.4863450000000 1.0
C      1  0.4745300000000  0.5173420000000  0.5342050000000 1.0
C      1  0.5246620000000  0.5173410000000  0.5347930000000 1.0
C      1  0.4460970000000  0.5111450000000  0.5312950000000 1.0
C      1  0.5131080000000  0.5111450000000  0.5609360000000 1.0
C      1  0.5620050000000  0.5111390000000  0.5063640000000 1.0
C      1  0.5252140000000  0.5111350000000  0.4429960000000 1.0
C      1  0.4535790000000  0.5111390000000  0.4584050000000 1.0
C      1  0.4876510000000  0.4924380000000  0.5224180000000 1.0
C      1  0.5175040000000  0.4924370000000  0.5186730000000 1.0
C      1  0.5231670000000  0.4924340000000  0.4891230000000 1.0
C      1  0.4968140000000  0.4924340000000  0.4746060000000 1.0
C      1  0.4748630000000  0.4924370000000  0.4951830000000 1.0
C      1  0.5606120000000  0.4257540000000  0.4749480000000 1.0
C      1  0.4948970000000  0.4257540000000  0.4346150000000 1.0
C      1  0.4362310000000  0.4257600000000  0.4846500000000 1.0
C      1  0.4656880000000  0.4257640000000  0.5559060000000 1.0
C      1  0.5425590000000  0.4257610000000  0.5499100000000 1.0
C      1  0.4649580000000  0.5779050000000  0.5613260000000 1.0
C      1  0.5475030000000  0.5779020000000  0.5522760000000 1.0
C      1  0.5644050000000  0.5778950000000  0.4709740000000 1.0
C      1  0.4923050000000  0.5778940000000  0.4297770000000 1.0
C      1  0.4308430000000  0.5779010000000  0.4856170000000 1.0
C      1  0.4840980000000  0.5163700000000  0.5622830000000 1.0
C      1  0.5543220000000  0.5163650000000  0.5343700000000 1.0
C      1  0.5494760000000  0.5163600000000  0.4589570000000 1.0
C      1  0.4762560000000  0.5163610000000  0.4402630000000 1.0
C      1  0.4358510000000  0.5163670000000  0.5041210000000 1.0
END
