TITL C-25024-9908-4 -3.41242926733348 125000 -522.781185052425 0 0 77 (C1) n - 1
REM
REM in /rds/project/t2_vol4/rds-t2-cs072/BORA/CARBON/from-Arr/AIRSS/Generating-Clusters/GAP-ML-2020/Higher-Symm/SD-CG/HFTN-CG
REM
REM
REM
REM
REM
REM ./C.cell (b20cbc046b6831c77cfcea5457e17084)
REM AIRSS Version 0.9.1 bugfix July 2018 build 013d7b7c2542+ Fri, 06 Jul 2018 19:26:36 +0100
REM compiler GCC version 9.3.0
REM options -cpp -mtune=generic -march=x86-64 -g -O0
REM seed 1512397587 -1059596968 -1419472993 -1782581537 440544789 -1369115856 -1521456631 -1625252157 -1523999970 -1774716073 986863549 774978350 -1246447436 -2108858048 709709213 345608943 357210022 1033368288 -804268443 -933961274 -204231383 2144085614 -1138671943 -440041187 304391101 -544562610 -25154088 1376596034 206833691 -1242866686 622714201 -14343058 -1685393031
REM
CELL 1.54180   50.00000   50.00000   50.00000   90.00000   90.00000   90.00000
LATT -1
SFAC C  
C      1  0.5524720000000  0.5013730000000  0.4721580000000 1.0
C      1  0.4846040000000  0.5201270000000  0.5039570000000 1.0
C      1  0.4753680000000  0.4548990000000  0.5449890000000 1.0
C      1  0.4511300000000  0.5138100000000  0.4708130000000 1.0
C      1  0.4460260000000  0.4953160000000  0.5468170000000 1.0
C      1  0.5276000000000  0.4992430000000  0.5295040000000 1.0
C      1  0.5481600000000  0.4246270000000  0.4925260000000 1.0
C      1  0.5328540000000  0.5387840000000  0.5010170000000 1.0
C      1  0.4670550000000  0.4356860000000  0.5033470000000 1.0
C      1  0.4896610000000  0.5147310000000  0.5533520000000 1.0
C      1  0.5107120000000  0.4744970000000  0.4570020000000 1.0
C      1  0.5034880000000  0.5220190000000  0.4599260000000 1.0
C      1  0.5021680000000  0.5354690000000  0.4849910000000 1.0
C      1  0.5582870000000  0.4740700000000  0.4857250000000 1.0
C      1  0.4636060000000  0.5098100000000  0.5646700000000 1.0
C      1  0.5204600000000  0.4484960000000  0.4637400000000 1.0
C      1  0.4843820000000  0.4346900000000  0.5267740000000 1.0
C      1  0.4957770000000  0.5311500000000  0.5297640000000 1.0
C      1  0.4555730000000  0.5247740000000  0.4955700000000 1.0
C      1  0.5557940000000  0.5267620000000  0.4890420000000 1.0
C      1  0.4468430000000  0.4574200000000  0.5079570000000 1.0
C      1  0.5067230000000  0.4916690000000  0.5507670000000 1.0
C      1  0.4859240000000  0.4833440000000  0.4713090000000 1.0
C      1  0.5254480000000  0.5004810000000  0.4573280000000 1.0
C      1  0.4393830000000  0.4769840000000  0.4431640000000 1.0
C      1  0.4573810000000  0.4343430000000  0.4544650000000 1.0
C      1  0.4819900000000  0.4645040000000  0.4224890000000 1.0
C      1  0.5511110000000  0.5372230000000  0.4350230000000 1.0
C      1  0.5595590000000  0.4774380000000  0.5559420000000 1.0
C      1  0.4366580000000  0.5430480000000  0.5535200000000 1.0
C      1  0.5309020000000  0.5708000000000  0.4672790000000 1.0
C      1  0.5511920000000  0.4325480000000  0.5398580000000 1.0
C      1  0.4691080000000  0.5702090000000  0.5248090000000 1.0
C      1  0.5037510000000  0.5429630000000  0.4354700000000 1.0
C      1  0.5194550000000  0.4546840000000  0.5709850000000 1.0
C      1  0.4991100000000  0.5535580000000  0.5684850000000 1.0
C      1  0.4802030000000  0.4404040000000  0.4377170000000 1.0
C      1  0.4378660000000  0.4529340000000  0.4587220000000 1.0
C      1  0.4594880000000  0.4832170000000  0.4245490000000 1.0
C      1  0.5060360000000  0.5675190000000  0.4542620000000 1.0
C      1  0.4951440000000  0.5596910000000  0.5368060000000 1.0
C      1  0.5262310000000  0.4330370000000  0.5551620000000 1.0
C      1  0.5532370000000  0.5601950000000  0.4541540000000 1.0
C      1  0.4446670000000  0.5580160000000  0.5301090000000 1.0
C      1  0.5662100000000  0.4562130000000  0.5367370000000 1.0
C      1  0.5273570000000  0.5294360000000  0.4224720000000 1.0
C      1  0.4738350000000  0.5539900000000  0.5799290000000 1.0
C      1  0.5386620000000  0.4782960000000  0.5754610000000 1.0
C      1  0.4981540000000  0.4313710000000  0.4592780000000 1.0
C      1  0.4685340000000  0.5109470000000  0.4272510000000 1.0
C      1  0.4332170000000  0.4667970000000  0.4842080000000 1.0
C      1  0.4887690000000  0.5626810000000  0.4768140000000 1.0
C      1  0.5107420000000  0.4246380000000  0.5315190000000 1.0
C      1  0.5099420000000  0.5761900000000  0.5149730000000 1.0
C      1  0.5233150000000  0.5004700000000  0.4260010000000 1.0
C      1  0.5230410000000  0.5029480000000  0.5759880000000 1.0
C      1  0.4537420000000  0.5359390000000  0.5744520000000 1.0
C      1  0.5699680000000  0.5426310000000  0.4703520000000 1.0
C      1  0.5658500000000  0.4736770000000  0.5132430000000 1.0
C      1  0.4367420000000  0.5339100000000  0.5139760000000 1.0
C      1  0.4341840000000  0.4918500000000  0.4674210000000 1.0
C      1  0.5068450000000  0.4781910000000  0.4266030000000 1.0
C      1  0.4742250000000  0.4264860000000  0.4771550000000 1.0
C      1  0.5679280000000  0.5203930000000  0.4518010000000 1.0
C      1  0.4309890000000  0.5185860000000  0.5378750000000 1.0
C      1  0.5549950000000  0.4929420000000  0.5320200000000 1.0
C      1  0.4801910000000  0.5342100000000  0.4211520000000 1.0
C      1  0.5094540000000  0.5269160000000  0.5743030000000 1.0
C      1  0.4958060000000  0.4661970000000  0.5607850000000 1.0
C      1  0.5310900000000  0.5682660000000  0.4985690000000 1.0
C      1  0.4840250000000  0.5779260000000  0.5007820000000 1.0
C      1  0.5364570000000  0.4216800000000  0.5163650000000 1.0
C      1  0.4771940000000  0.5086400000000  0.4563290000000 1.0
C      1  0.5445780000000  0.4485980000000  0.4786970000000 1.0
C      1  0.5244030000000  0.5255310000000  0.5244780000000 1.0
C      1  0.4528190000000  0.4698610000000  0.5346350000000 1.0
C      1  0.4911590000000  0.4908580000000  0.4982920000000 1.0
END
