TITL C-25012-9741-5 -0.164626257578835 125000 -502.670573483168 0 0 75 (C1) n - 1
REM
REM in /rds/project/t2_vol4/rds-t2-cs072/BORA/CARBON/from-Arr/AIRSS/Generating-Clusters/GAP-ML-2020/Higher-Symm/SD-CG/HFTN-CG
REM
REM
REM
REM
REM
REM ./C.cell (b20cbc046b6831c77cfcea5457e17084)
REM AIRSS Version 0.9.1 bugfix July 2018 build 013d7b7c2542+ Fri, 06 Jul 2018 19:26:36 +0100
REM compiler GCC version 9.3.0
REM options -cpp -mtune=generic -march=x86-64 -g -O0
REM seed -1988658443 -1424846383 -835337562 -1656630702 194431297 -917724232 1578839295 253134604 -811279721 -1053490037 -1497872845 -1928039507 -1487908601 140559726 -54719681 -924777515 1965978975 -191234482 549142445 -1429833056 -1393538277 1830021819 223719765 138521006 -1713831554 1899930759 269933278 2132053402 627528483 1115689931 -146518880 -152307900 -1880933948
REM
CELL 1.54180   50.00000   50.00000   50.00000   90.00000   90.00000   90.00000
LATT -1
SFAC C  
C      1  0.4844210000000  0.4445890000000  0.5526570000000 1.0
C      1  0.4453000000000  0.4783110000000  0.5519670000000 1.0
C      1  0.4443720000000  0.5284330000000  0.5512630000000 1.0
C      1  0.4800540000000  0.5586410000000  0.5488170000000 1.0
C      1  0.5300560000000  0.5473740000000  0.5518320000000 1.0
C      1  0.5565310000000  0.5038900000000  0.5561570000000 1.0
C      1  0.5275460000000  0.4648780000000  0.5555600000000 1.0
C      1  0.5761700000000  0.4748670000000  0.5251760000000 1.0
C      1  0.5271330000000  0.4258080000000  0.4946130000000 1.0
C      1  0.4602990000000  0.4325880000000  0.5054590000000 1.0
C      1  0.4208830000000  0.4877430000000  0.5019120000000 1.0
C      1  0.4460970000000  0.5584370000000  0.4808780000000 1.0
C      1  0.4983070000000  0.5763710000000  0.5024550000000 1.0
C      1  0.5606510000000  0.5470120000000  0.5085160000000 1.0
C      1  0.4577370000000  0.5496780000000  0.5630220000000 1.0
C      1  0.5056950000000  0.5583810000000  0.5583890000000 1.0
C      1  0.5451020000000  0.5273230000000  0.5628540000000 1.0
C      1  0.5481520000000  0.4786840000000  0.5660510000000 1.0
C      1  0.5093370000000  0.4472000000000  0.5652570000000 1.0
C      1  0.4617600000000  0.4570080000000  0.5596120000000 1.0
C      1  0.4407440000000  0.5029580000000  0.5623050000000 1.0
C      1  0.4397850000000  0.4446430000000  0.5168660000000 1.0
C      1  0.4185400000000  0.5131810000000  0.5101460000000 1.0
C      1  0.4496830000000  0.5560740000000  0.5067170000000 1.0
C      1  0.5217990000000  0.5767330000000  0.5159210000000 1.0
C      1  0.5736630000000  0.5213140000000  0.5109440000000 1.0
C      1  0.5679790000000  0.4528520000000  0.5163600000000 1.0
C      1  0.5096270000000  0.4203600000000  0.5141800000000 1.0
C      1  0.5475080000000  0.4905660000000  0.4822810000000 1.0
C      1  0.5487560000000  0.4611860000000  0.4746780000000 1.0
C      1  0.4934190000000  0.4657530000000  0.4840120000000 1.0
C      1  0.4695530000000  0.4816330000000  0.4812010000000 1.0
C      1  0.4670730000000  0.5106290000000  0.4787040000000 1.0
C      1  0.4894240000000  0.5301820000000  0.4785740000000 1.0
C      1  0.5187620000000  0.5279210000000  0.4796100000000 1.0
C      1  0.5153670000000  0.4796230000000  0.5270060000000 1.0
C      1  0.4925040000000  0.4660780000000  0.5133850000000 1.0
C      1  0.4663870000000  0.4833700000000  0.5125010000000 1.0
C      1  0.4655080000000  0.5127420000000  0.5109280000000 1.0
C      1  0.4884150000000  0.5315560000000  0.5099260000000 1.0
C      1  0.5188490000000  0.5255570000000  0.5091170000000 1.0
C      1  0.5315030000000  0.4979920000000  0.5104690000000 1.0
C      1  0.4864930000000  0.4346810000000  0.5220090000000 1.0
C      1  0.4393760000000  0.4723820000000  0.5217790000000 1.0
C      1  0.4411150000000  0.5288270000000  0.5203560000000 1.0
C      1  0.4780820000000  0.5589600000000  0.5176880000000 1.0
C      1  0.5354950000000  0.5524580000000  0.5222420000000 1.0
C      1  0.5742730000000  0.5017720000000  0.5321490000000 1.0
C      1  0.5521980000000  0.4421410000000  0.4958110000000 1.0
C      1  0.5568290000000  0.5541240000000  0.4808200000000 1.0
C      1  0.5716910000000  0.5102180000000  0.4843010000000 1.0
C      1  0.5147830000000  0.4297610000000  0.4686000000000 1.0
C      1  0.4616050000000  0.4371240000000  0.4775710000000 1.0
C      1  0.4251210000000  0.4755550000000  0.4777500000000 1.0
C      1  0.4551920000000  0.5494870000000  0.4567230000000 1.0
C      1  0.5032770000000  0.5713340000000  0.4750350000000 1.0
C      1  0.4849390000000  0.5532990000000  0.4579910000000 1.0
C      1  0.5288310000000  0.5579570000000  0.4691010000000 1.0
C      1  0.5679240000000  0.5326510000000  0.4659170000000 1.0
C      1  0.5296900000000  0.4506650000000  0.4560660000000 1.0
C      1  0.4872100000000  0.4389120000000  0.4651450000000 1.0
C      1  0.4484210000000  0.4641800000000  0.4673160000000 1.0
C      1  0.4525390000000  0.5196170000000  0.4548590000000 1.0
C      1  0.5015350000000  0.5397470000000  0.4371690000000 1.0
C      1  0.5288670000000  0.5469460000000  0.4412280000000 1.0
C      1  0.5489250000000  0.5270800000000  0.4455560000000 1.0
C      1  0.5121450000000  0.4660430000000  0.4393540000000 1.0
C      1  0.4857760000000  0.4561210000000  0.4408140000000 1.0
C      1  0.4637130000000  0.4735770000000  0.4425680000000 1.0
C      1  0.4666100000000  0.5021420000000  0.4372320000000 1.0
C      1  0.5142690000000  0.4938200000000  0.4410950000000 1.0
C      1  0.4936960000000  0.5119380000000  0.4331960000000 1.0
C      1  0.5015960000000  0.4990470000000  0.5431540000000 1.0
C      1  0.5326590000000  0.5059940000000  0.4608990000000 1.0
C      1  0.4919880000000  0.5073180000000  0.5629570000000 1.0
END
