TITL C-25910-8353-3 0.0613051797892324 125000 -207.648262297926 0 0 31 (C2) n - 1
REM
REM in /rds/project/t2_vol4/rds-t2-cs072/BORA/CARBON/from-Arr/AIRSS/Generating-Clusters/GAP-ML-2020/Higher-Symm/SD-CG/HFTN-CG
REM
REM
REM
REM
REM
REM ./C.cell (b20cbc046b6831c77cfcea5457e17084)
REM AIRSS Version 0.9.1 bugfix July 2018 build 013d7b7c2542+ Fri, 06 Jul 2018 19:26:36 +0100
REM compiler GCC version 9.3.0
REM options -cpp -mtune=generic -march=x86-64 -g -O0
REM seed 887457717 -1199447114 1013097213 405646571 1560282908 -842808489 -1854765103 1175187083 410084203 1925457485 -1277000012 -172315463 474783319 -2058465888 58529628 565789509 -1621003359 -1895316916 1185350393 1391110295 -1821813492 793334392 -1109223277 -1730985824 -241498911 -845303879 -514891726 1374171482 405586784 61876960 -478204820 -1230906092 -1807696165
REM
CELL 1.54180   50.00000   50.00000   50.00000   90.00000   90.00000   90.00000
LATT -1
SFAC C  
C      1  0.4635280000000  0.5436800000000  0.4682220000000 1.0
C      1  0.5359010000000  0.5420860000000  0.5349000000000 1.0
C      1  0.4748470000000  0.4765410000000  0.4903980000000 1.0
C      1  0.5252650000000  0.4762570000000  0.5088060000000 1.0
C      1  0.4460360000000  0.5108250000000  0.5039000000000 1.0
C      1  0.5537190000000  0.5115700000000  0.4973540000000 1.0
C      1  0.5131390000000  0.4558620000000  0.4509770000000 1.0
C      1  0.4871980000000  0.4529020000000  0.5469280000000 1.0
C      1  0.4918490000000  0.4443810000000  0.5236960000000 1.0
C      1  0.5085830000000  0.4459410000000  0.4736660000000 1.0
C      1  0.5436200000000  0.4908960000000  0.4624800000000 1.0
C      1  0.4563570000000  0.4882370000000  0.5375000000000 1.0
C      1  0.5014580000000  0.5005230000000  0.5476760000000 1.0
C      1  0.4983920000000  0.5032960000000  0.4530310000000 1.0
C      1  0.4578550000000  0.5183900000000  0.4789860000000 1.0
C      1  0.5418310000000  0.5175330000000  0.5226680000000 1.0
C      1  0.5062360000000  0.5314120000000  0.4515270000000 1.0
C      1  0.4933270000000  0.5284200000000  0.5508310000000 1.0
C      1  0.5331410000000  0.5389040000000  0.4575990000000 1.0
C      1  0.4663450000000  0.5359800000000  0.5452020000000 1.0
C      1  0.5484510000000  0.5198510000000  0.4699560000000 1.0
C      1  0.4512270000000  0.5175310000000  0.5317400000000 1.0
C      1  0.4807210000000  0.4809380000000  0.5497430000000 1.0
C      1  0.5193280000000  0.4840800000000  0.4498210000000 1.0
C      1  0.5239320000000  0.4955360000000  0.5299200000000 1.0
C      1  0.4759760000000  0.4970430000000  0.4704560000000 1.0
C      1  0.4541370000000  0.4831440000000  0.5088420000000 1.0
C      1  0.5459000000000  0.4841460000000  0.4907890000000 1.0
C      1  0.5154100000000  0.5458770000000  0.5492510000000 1.0
C      1  0.4839750000000  0.5485190000000  0.4541260000000 1.0
C      1  0.5001410000000  0.4598340000000  0.4991140000000 1.0
END
