TITL C-25927-8099-11 -77.9465865147982 125000 -289.672415362982 0 0 43 (C1) n - 1
REM
REM in /rds/project/t2_vol4/rds-t2-cs072/BORA/CARBON/from-Arr/AIRSS/Generating-Clusters/GAP-ML-2020/Higher-Symm/SD-CG/HFTN-CG
REM
REM
REM
REM
REM
REM ./C.cell (b20cbc046b6831c77cfcea5457e17084)
REM AIRSS Version 0.9.1 bugfix July 2018 build 013d7b7c2542+ Fri, 06 Jul 2018 19:26:36 +0100
REM compiler GCC version 9.3.0
REM options -cpp -mtune=generic -march=x86-64 -g -O0
REM seed 1289392276 -661077841 -1563181395 -535833694 -2117177094 -80633448 1602515649 1358086606 -1107187966 2044618529 1135451671 -1778207303 1070903346 1191823928 1510259253 -285114020 239758916 -17511708 -1511389067 -310844890 1376549055 745460187 1966002567 -1279611279 982778188 -1811287283 1489425826 -853917531 -2030348253 1913864412 -206193568 712763052 1654887995
REM
CELL 1.54180   50.00000   50.00000   50.00000   90.00000   90.00000   90.00000
LATT -1
SFAC C  
C      1  0.4630350000000  0.5303700000000  0.4834420000000 1.0
C      1  0.5475440000000  0.5110860000000  0.5327390000000 1.0
C      1  0.4355210000000  0.4524640000000  0.4659730000000 1.0
C      1  0.4963630000000  0.5645550000000  0.5024890000000 1.0
C      1  0.5531130000000  0.4801930000000  0.4923310000000 1.0
C      1  0.5115270000000  0.5121360000000  0.5621510000000 1.0
C      1  0.5289490000000  0.5405960000000  0.4759940000000 1.0
C      1  0.4780940000000  0.5083750000000  0.4410920000000 1.0
C      1  0.5056060000000  0.5146190000000  0.5111330000000 1.0
C      1  0.4782550000000  0.5323500000000  0.4587410000000 1.0
C      1  0.4748290000000  0.4497670000000  0.5267680000000 1.0
C      1  0.4815900000000  0.5585550000000  0.5257130000000 1.0
C      1  0.5396140000000  0.4559100000000  0.4963320000000 1.0
C      1  0.5285500000000  0.4451560000000  0.4725120000000 1.0
C      1  0.4714930000000  0.5524430000000  0.4995510000000 1.0
C      1  0.5554510000000  0.5050800000000  0.5066780000000 1.0
C      1  0.5080580000000  0.5343520000000  0.4576000000000 1.0
C      1  0.5291420000000  0.4942860000000  0.5490140000000 1.0
C      1  0.5222950000000  0.4516440000000  0.5198400000000 1.0
C      1  0.4531220000000  0.4907280000000  0.5194050000000 1.0
C      1  0.4575460000000  0.4643850000000  0.4518200000000 1.0
C      1  0.4866290000000  0.4687890000000  0.5451940000000 1.0
C      1  0.5078650000000  0.5091270000000  0.4431510000000 1.0
C      1  0.4816610000000  0.4861380000000  0.4853500000000 1.0
C      1  0.4829690000000  0.4642970000000  0.4674020000000 1.0
C      1  0.5112920000000  0.4617700000000  0.4598830000000 1.0
C      1  0.4605400000000  0.4883320000000  0.4373320000000 1.0
C      1  0.5236850000000  0.5583870000000  0.4979720000000 1.0
C      1  0.4702100000000  0.4930160000000  0.5443450000000 1.0
C      1  0.5463310000000  0.4947540000000  0.4673960000000 1.0
C      1  0.5165400000000  0.4698790000000  0.5418900000000 1.0
C      1  0.4383330000000  0.4536960000000  0.4916620000000 1.0
C      1  0.5056280000000  0.4936660000000  0.4969740000000 1.0
C      1  0.4897280000000  0.5436840000000  0.5475720000000 1.0
C      1  0.5393100000000  0.5390880000000  0.5375170000000 1.0
C      1  0.5407370000000  0.5590880000000  0.5195080000000 1.0
C      1  0.5239390000000  0.4874250000000  0.4518200000000 1.0
C      1  0.4833470000000  0.5150220000000  0.5556840000000 1.0
C      1  0.4582770000000  0.5031560000000  0.4932930000000 1.0
C      1  0.5479330000000  0.5200350000000  0.4813940000000 1.0
C      1  0.5170870000000  0.5396090000000  0.5546980000000 1.0
C      1  0.4976070000000  0.4403920000000  0.5140380000000 1.0
C      1  0.4506550000000  0.4615960000000  0.5146090000000 1.0
END
