TITL C-25918-129-7 0.0356207932510201 125000 -785.94318107368 0 0 110 (C3h) n - 1
REM
REM in /rds/project/t2_vol4/rds-t2-cs072/BORA/CARBON/from-Arr/AIRSS/Generating-Clusters/GAP-ML-2020/Higher-Symm/SD-CG/HFTN-CG
REM
REM
REM
REM
REM
REM ./C.cell (b20cbc046b6831c77cfcea5457e17084)
REM AIRSS Version 0.9.1 bugfix July 2018 build 013d7b7c2542+ Fri, 06 Jul 2018 19:26:36 +0100
REM compiler GCC version 9.3.0
REM options -cpp -mtune=generic -march=x86-64 -g -O0
REM seed 1932786465 2061127985 1903976541 -2134359805 -345263599 1263688871 -1181552439 872143377 -1178417826 -1323201468 -836732721 -742909157 -2140407279 -1502530161 664361995 -1648733134 -2063276044 208731053 -2004432730 -1476323867 803197836 -517213765 694487928 -950909100 209479125 -2139474287 2032251408 1902388820 747125123 1058805035 476605638 -1152690682 223122064
REM
CELL 1.54180   50.00000   50.00000   50.00000   90.00000   90.00000   90.00000
LATT -1
SFAC C  
C      1  0.4547330000000  0.4214660000000  0.4689360000000 1.0
C      1  0.4955760000000  0.4214670000000  0.5550460000000 1.0
C      1  0.5497280000000  0.4214700000000  0.4766200000000 1.0
C      1  0.4547260000000  0.5769230000000  0.4689370000000 1.0
C      1  0.4955690000000  0.5769250000000  0.5550470000000 1.0
C      1  0.5497210000000  0.5769280000000  0.4766210000000 1.0
C      1  0.4952440000000  0.5251280000000  0.4728910000000 1.0
C      1  0.4787380000000  0.5251270000000  0.5179820000000 1.0
C      1  0.5260410000000  0.5251290000000  0.5097320000000 1.0
C      1  0.4952470000000  0.4732650000000  0.4728910000000 1.0
C      1  0.4787400000000  0.4732640000000  0.5179820000000 1.0
C      1  0.5260440000000  0.4732660000000  0.5097310000000 1.0
C      1  0.5210950000000  0.4744020000000  0.4825560000000 1.0
C      1  0.4741870000000  0.4743990000000  0.4907630000000 1.0
C      1  0.5047480000000  0.4744010000000  0.5272840000000 1.0
C      1  0.5210930000000  0.5239940000000  0.4825570000000 1.0
C      1  0.4741840000000  0.5239910000000  0.4907640000000 1.0
C      1  0.5047460000000  0.5239930000000  0.5272840000000 1.0
C      1  0.4194050000000  0.4829670000000  0.5253080000000 1.0
C      1  0.5620550000000  0.4829740000000  0.5574530000000 1.0
C      1  0.5185680000000  0.4829730000000  0.4178420000000 1.0
C      1  0.4194040000000  0.5154180000000  0.5253080000000 1.0
C      1  0.5620540000000  0.5154240000000  0.5574530000000 1.0
C      1  0.5185670000000  0.5154230000000  0.4178430000000 1.0
C      1  0.4221580000000  0.5391460000000  0.5066540000000 1.0
C      1  0.5445190000000  0.5391520000000  0.5643950000000 1.0
C      1  0.5333440000000  0.5391520000000  0.4295560000000 1.0
C      1  0.4221620000000  0.4592390000000  0.5066530000000 1.0
C      1  0.5445230000000  0.4592450000000  0.5643940000000 1.0
C      1  0.5333480000000  0.4592450000000  0.4295560000000 1.0
C      1  0.5802820000000  0.4569790000000  0.4895890000000 1.0
C      1  0.4506850000000  0.4569730000000  0.4359910000000 1.0
C      1  0.4690660000000  0.4569730000000  0.5750240000000 1.0
C      1  0.5802770000000  0.5414220000000  0.4895890000000 1.0
C      1  0.4506810000000  0.5414160000000  0.4359910000000 1.0
C      1  0.4690620000000  0.5414160000000  0.5750240000000 1.0
C      1  0.4443970000000  0.4496490000000  0.5601220000000 1.0
C      1  0.5797120000000  0.4496560000000  0.5184040000000 1.0
C      1  0.4759250000000  0.4496520000000  0.4220770000000 1.0
C      1  0.4443920000000  0.5487380000000  0.5601230000000 1.0
C      1  0.5797070000000  0.5487440000000  0.5184040000000 1.0
C      1  0.4759200000000  0.5487400000000  0.4220780000000 1.0
C      1  0.5446580000000  0.4342760000000  0.5485140000000 1.0
C      1  0.5195290000000  0.4342750000000  0.4373800000000 1.0
C      1  0.4358490000000  0.4342710000000  0.5147090000000 1.0
C      1  0.5446520000000  0.5641210000000  0.5485140000000 1.0
C      1  0.5195230000000  0.5641200000000  0.4373810000000 1.0
C      1  0.4358430000000  0.5641160000000  0.5147100000000 1.0
C      1  0.4946690000000  0.4431450000000  0.5733650000000 1.0
C      1  0.5660450000000  0.4431490000000  0.4682460000000 1.0
C      1  0.4393210000000  0.4431430000000  0.4589920000000 1.0
C      1  0.4946630000000  0.5552470000000  0.5733650000000 1.0
C      1  0.5660390000000  0.5552510000000  0.4682470000000 1.0
C      1  0.4393160000000  0.5552440000000  0.4589930000000 1.0
C      1  0.5617640000000  0.4297950000000  0.5251970000000 1.0
C      1  0.4907830000000  0.4297920000000  0.4342240000000 1.0
C      1  0.4474890000000  0.4297900000000  0.5411820000000 1.0
C      1  0.5617570000000  0.5686030000000  0.5251970000000 1.0
C      1  0.4907760000000  0.5686000000000  0.4342250000000 1.0
C      1  0.4474830000000  0.5685980000000  0.5411830000000 1.0
C      1  0.4859340000000  0.4848430000000  0.4460540000000 1.0
C      1  0.4601550000000  0.4848420000000  0.5394650000000 1.0
C      1  0.5539400000000  0.4848460000000  0.5150850000000 1.0
C      1  0.4859330000000  0.5135490000000  0.4460550000000 1.0
C      1  0.4601530000000  0.5135470000000  0.5394650000000 1.0
C      1  0.5539380000000  0.5135520000000  0.5150850000000 1.0
C      1  0.4918250000000  0.5246720000000  0.4193720000000 1.0
C      1  0.4340980000000  0.5246680000000  0.5477020000000 1.0
C      1  0.5740990000000  0.5246750000000  0.5335300000000 1.0
C      1  0.4918280000000  0.4737210000000  0.4193710000000 1.0
C      1  0.4341010000000  0.4737180000000  0.5477020000000 1.0
C      1  0.5741020000000  0.4737250000000  0.5335300000000 1.0
C      1  0.5211130000000  0.4179130000000  0.5429720000000 1.0
C      1  0.5265030000000  0.4179140000000  0.4605430000000 1.0
C      1  0.4524230000000  0.4179100000000  0.4970890000000 1.0
C      1  0.5211050000000  0.5804820000000  0.5429720000000 1.0
C      1  0.5264950000000  0.5804820000000  0.4605430000000 1.0
C      1  0.4524150000000  0.5804780000000  0.4970890000000 1.0
C      1  0.4723600000000  0.5823380000000  0.5388710000000 1.0
C      1  0.5473160000000  0.5823420000000  0.5048080000000 1.0
C      1  0.4803380000000  0.5823390000000  0.4569260000000 1.0
C      1  0.4723680000000  0.4160510000000  0.5388710000000 1.0
C      1  0.5473240000000  0.4160550000000  0.5048070000000 1.0
C      1  0.4803470000000  0.4160520000000  0.4569250000000 1.0
C      1  0.4540050000000  0.4837380000000  0.4451930000000 1.0
C      1  0.4753730000000  0.4837390000000  0.5675470000000 1.0
C      1  0.5706510000000  0.4837440000000  0.4878640000000 1.0
C      1  0.4540030000000  0.5146510000000  0.4451930000000 1.0
C      1  0.4753720000000  0.5146510000000  0.5675470000000 1.0
C      1  0.5706490000000  0.5146560000000  0.4878640000000 1.0
C      1  0.4280040000000  0.5359130000000  0.4788680000000 1.0
C      1  0.5175330000000  0.5359170000000  0.5732250000000 1.0
C      1  0.5544840000000  0.5359190000000  0.4485120000000 1.0
C      1  0.4280080000000  0.4624730000000  0.4788680000000 1.0
C      1  0.5175370000000  0.4624770000000  0.5732240000000 1.0
C      1  0.5544880000000  0.4624800000000  0.4485120000000 1.0
C      1  0.5228570000000  0.5903290000000  0.5163120000000 1.0
C      1  0.5025300000000  0.5903290000000  0.4723550000000 1.0
C      1  0.4746260000000  0.5903270000000  0.5119380000000 1.0
C      1  0.5228660000000  0.4080660000000  0.5163110000000 1.0
C      1  0.5025390000000  0.4080650000000  0.4723550000000 1.0
C      1  0.4746350000000  0.4080630000000  0.5119370000000 1.0
C      1  0.5478510000000  0.5141140000000  0.4666350000000 1.0
C      1  0.4470170000000  0.5141090000000  0.4755520000000 1.0
C      1  0.5051560000000  0.5141120000000  0.5584180000000 1.0
C      1  0.5478520000000  0.4842840000000  0.4666350000000 1.0
C      1  0.4470190000000  0.4842790000000  0.4755520000000 1.0
C      1  0.5051580000000  0.4842810000000  0.5584170000000 1.0
C      1  0.5000140000000  0.4034240000000  0.5002010000000 1.0
C      1  0.5000040000000  0.5949690000000  0.5002020000000 1.0
END
