TITL C-25010-9692-10 77.2674412055693 125000 -164.37305390684 0 0 25 (C5v) n - 1
REM
REM in /rds/project/t2_vol4/rds-t2-cs072/BORA/CARBON/from-Arr/AIRSS/Generating-Clusters/GAP-ML-2020/Higher-Symm/SD-CG/HFTN-CG
REM
REM
REM
REM
REM
REM ./C.cell (b20cbc046b6831c77cfcea5457e17084)
REM AIRSS Version 0.9.1 bugfix July 2018 build 013d7b7c2542+ Fri, 06 Jul 2018 19:26:36 +0100
REM compiler GCC version 9.3.0
REM options -cpp -mtune=generic -march=x86-64 -g -O0
REM seed -1712295885 -1242464575 -1108820057 -279756721 1997460242 -1195960751 560889958 -1569132146 135326254 -734334956 -518708881 -1232187339 109903670 -1003723348 727208908 754707567 -1017375996 -749894241 334836351 37649192 -1953734271 384012714 1488105731 -1620142770 -82728316 861435792 -794439081 1767626798 1504560332 185914002 -1368328001 1007966134 -395609337
REM
CELL 1.54180   50.00000   50.00000   50.00000   90.00000   90.00000   90.00000
LATT -1
SFAC C  
C      1  0.4403750000000  0.5044590000000  0.5241750000000 1.0
C      1  0.4858160000000  0.5580850000000  0.5241740000000 1.0
C      1  0.5508590000000  0.5314400000000  0.5241750000000 1.0
C      1  0.5456170000000  0.4613460000000  0.5241750000000 1.0
C      1  0.4773340000000  0.4446710000000  0.5241760000000 1.0
C      1  0.4993830000000  0.4430580000000  0.5075230000000 1.0
C      1  0.4456540000000  0.4829910000000  0.5075230000000 1.0
C      1  0.4670290000000  0.5464300000000  0.5075220000000 1.0
C      1  0.5339690000000  0.5457050000000  0.5075220000000 1.0
C      1  0.5539650000000  0.4818170000000  0.5075230000000 1.0
C      1  0.4581110000000  0.5168500000000  0.4803900000000 1.0
C      1  0.5030810000000  0.5450450000000  0.4803890000000 1.0
C      1  0.5437930000000  0.5109900000000  0.4803890000000 1.0
C      1  0.5239850000000  0.4617460000000  0.4803900000000 1.0
C      1  0.4710300000000  0.4653680000000  0.4803900000000 1.0
C      1  0.4487890000000  0.5249040000000  0.5075230000000 1.0
C      1  0.5078600000000  0.5564010000000  0.5075220000000 1.0
C      1  0.5560690000000  0.5099540000000  0.5075230000000 1.0
C      1  0.5267930000000  0.4497510000000  0.5075230000000 1.0
C      1  0.4604900000000  0.4589910000000  0.5075230000000 1.0
C      1  0.4963460000000  0.4549970000000  0.4803900000000 1.0
C      1  0.4560710000000  0.4895680000000  0.4803900000000 1.0
C      1  0.4765040000000  0.5385550000000  0.4803890000000 1.0
C      1  0.5294080000000  0.5342600000000  0.4803890000000 1.0
C      1  0.5416710000000  0.4826180000000  0.4803900000000 1.0
END
