TITL C-25911-8296-9 578.775905405656 125000 -913.059782511564 0 0 132 (C1) n - 1
REM
REM in /rds/project/t2_vol4/rds-t2-cs072/BORA/CARBON/from-Arr/AIRSS/Generating-Clusters/GAP-ML-2020/Higher-Symm/SD-CG/HFTN-CG
REM
REM
REM
REM
REM
REM ./C.cell (b20cbc046b6831c77cfcea5457e17084)
REM AIRSS Version 0.9.1 bugfix July 2018 build 013d7b7c2542+ Fri, 06 Jul 2018 19:26:36 +0100
REM compiler GCC version 9.3.0
REM options -cpp -mtune=generic -march=x86-64 -g -O0
REM seed -567417593 624337943 1174593450 1080744502 -1493202910 -487930526 -1679878046 -1905707578 1622494403 751318202 1762039833 -2090259309 -456009407 191015259 -598488117 1049171670 -1806325642 652106510 -64671124 1689991104 1985508505 1636024420 1648344886 526811825 -2011357067 -1108828768 -933397220 -2054356281 1467914977 975512175 -1729037436 -1499966784 -18765400
REM
CELL 1.54180   50.00000   50.00000   50.00000   90.00000   90.00000   90.00000
LATT -1
SFAC C  
C      1  0.4076830000000  0.5112700000000  0.4897340000000 1.0
C      1  0.4607980000000  0.4180670000000  0.4902220000000 1.0
C      1  0.5661590000000  0.4367050000000  0.4904030000000 1.0
C      1  0.5800850000000  0.5429170000000  0.4897600000000 1.0
C      1  0.4830040000000  0.5911890000000  0.4887500000000 1.0
C      1  0.5285730000000  0.4309920000000  0.5548720000000 1.0
C      1  0.5753440000000  0.5058350000000  0.5545550000000 1.0
C      1  0.5188750000000  0.5709430000000  0.5515160000000 1.0
C      1  0.4356040000000  0.5390400000000  0.5537960000000 1.0
C      1  0.4426730000000  0.4528260000000  0.5543120000000 1.0
C      1  0.4944940000000  0.4748150000000  0.4156560000000 1.0
C      1  0.5193620000000  0.4809200000000  0.4317820000000 1.0
C      1  0.5206680000000  0.5103960000000  0.4341000000000 1.0
C      1  0.4928680000000  0.5197440000000  0.4354950000000 1.0
C      1  0.4772880000000  0.4934900000000  0.4332610000000 1.0
C      1  0.5217550000000  0.5088510000000  0.5417150000000 1.0
C      1  0.4965280000000  0.5213770000000  0.5432940000000 1.0
C      1  0.4749940000000  0.5026710000000  0.5463980000000 1.0
C      1  0.4884760000000  0.4777310000000  0.5408850000000 1.0
C      1  0.5167240000000  0.4814040000000  0.5405880000000 1.0
C      1  0.5101980000000  0.4330460000000  0.4329040000000 1.0
C      1  0.5672260000000  0.4875620000000  0.4334780000000 1.0
C      1  0.5312300000000  0.5561610000000  0.4342400000000 1.0
C      1  0.4543950000000  0.5509940000000  0.4337780000000 1.0
C      1  0.4397460000000  0.4662420000000  0.4332830000000 1.0
C      1  0.5336990000000  0.4486350000000  0.5771830000000 1.0
C      1  0.5605980000000  0.5165380000000  0.5770620000000 1.0
C      1  0.5034540000000  0.5625360000000  0.5746390000000 1.0
C      1  0.4414380000000  0.5229790000000  0.5767740000000 1.0
C      1  0.4603840000000  0.4525560000000  0.5772620000000 1.0
C      1  0.5688720000000  0.4563340000000  0.5309540000000 1.0
C      1  0.5629250000000  0.5513590000000  0.5301980000000 1.0
C      1  0.4715240000000  0.5718650000000  0.5274020000000 1.0
C      1  0.4172960000000  0.4946590000000  0.5305500000000 1.0
C      1  0.4801280000000  0.4247570000000  0.5299330000000 1.0
C      1  0.5933220000000  0.4909110000000  0.4851600000000 1.0
C      1  0.5354300000000  0.5849910000000  0.4845380000000 1.0
C      1  0.4290240000000  0.5609420000000  0.4843370000000 1.0
C      1  0.4190470000000  0.4516280000000  0.4851670000000 1.0
C      1  0.5205550000000  0.4093710000000  0.4848040000000 1.0
C      1  0.4817650000000  0.5182230000000  0.6032410000000 1.0
C      1  0.4779430000000  0.4898430000000  0.6031600000000 1.0
C      1  0.5037930000000  0.4775960000000  0.6026350000000 1.0
C      1  0.5235690000000  0.4981260000000  0.6024560000000 1.0
C      1  0.5100720000000  0.5233710000000  0.6027700000000 1.0
C      1  0.5373700000000  0.5163870000000  0.5197450000000 1.0
C      1  0.4931440000000  0.5309030000000  0.5158690000000 1.0
C      1  0.4582220000000  0.5070590000000  0.5192480000000 1.0
C      1  0.4824970000000  0.4708390000000  0.5135190000000 1.0
C      1  0.5286170000000  0.4700520000000  0.5183790000000 1.0
C      1  0.5503160000000  0.5087910000000  0.4755710000000 1.0
C      1  0.5064120000000  0.5506410000000  0.4767890000000 1.0
C      1  0.4516900000000  0.5213440000000  0.4757540000000 1.0
C      1  0.4631460000000  0.4623900000000  0.4732320000000 1.0
C      1  0.5247810000000  0.4547760000000  0.4745470000000 1.0
C      1  0.5434980000000  0.4712220000000  0.4172510000000 1.0
C      1  0.5412380000000  0.5275830000000  0.4210380000000 1.0
C      1  0.4835340000000  0.5453680000000  0.4210950000000 1.0
C      1  0.4500780000000  0.4918820000000  0.4240870000000 1.0
C      1  0.4853120000000  0.4470730000000  0.4215650000000 1.0
C      1  0.4702210000000  0.5498840000000  0.5073530000000 1.0
C      1  0.4389130000000  0.4881290000000  0.5081660000000 1.0
C      1  0.4923420000000  0.4435690000000  0.5064490000000 1.0
C      1  0.5550020000000  0.4738050000000  0.5084950000000 1.0
C      1  0.5410270000000  0.5425480000000  0.5090920000000 1.0
C      1  0.5424690000000  0.4260800000000  0.5045850000000 1.0
C      1  0.5836870000000  0.5171110000000  0.5043700000000 1.0
C      1  0.5090830000000  0.5917250000000  0.5005340000000 1.0
C      1  0.4190310000000  0.5344120000000  0.5043070000000 1.0
C      1  0.4428670000000  0.4372480000000  0.5041370000000 1.0
C      1  0.5121040000000  0.4779130000000  0.4613070000000 1.0
C      1  0.5232740000000  0.5054820000000  0.4648270000000 1.0
C      1  0.5000180000000  0.5241680000000  0.4653480000000 1.0
C      1  0.4781930000000  0.5078100000000  0.4764990000000 1.0
C      1  0.4818940000000  0.4824570000000  0.4610340000000 1.0
C      1  0.4985730000000  0.4268320000000  0.5538820000000 1.0
C      1  0.5706470000000  0.4759040000000  0.5542060000000 1.0
C      1  0.5459120000000  0.5591380000000  0.5535240000000 1.0
C      1  0.4579090000000  0.5598680000000  0.5520120000000 1.0
C      1  0.4275560000000  0.4787300000000  0.5544200000000 1.0
C      1  0.5540420000000  0.4695220000000  0.5769630000000 1.0
C      1  0.5467230000000  0.5421630000000  0.5765900000000 1.0
C      1  0.4746780000000  0.5573020000000  0.5751670000000 1.0
C      1  0.4370290000000  0.4940390000000  0.5771280000000 1.0
C      1  0.4867970000000  0.4400500000000  0.5768760000000 1.0
C      1  0.4559050000000  0.4773660000000  0.5912470000000 1.0
C      1  0.5085640000000  0.4526800000000  0.5907760000000 1.0
C      1  0.5487670000000  0.4942990000000  0.5908230000000 1.0
C      1  0.5212340000000  0.5456250000000  0.5899650000000 1.0
C      1  0.4636560000000  0.5352790000000  0.5905180000000 1.0
C      1  0.5051200000000  0.4849660000000  0.3890750000000 1.0
C      1  0.5340370000000  0.4878370000000  0.3925180000000 1.0
C      1  0.5289540000000  0.5165640000000  0.3951090000000 1.0
C      1  0.4774450000000  0.5260790000000  0.3977160000000 1.0
C      1  0.4502640000000  0.5152300000000  0.4072060000000 1.0
C      1  0.3964460000000  0.4898920000000  0.5077120000000 1.0
C      1  0.4775410000000  0.4022710000000  0.5081670000000 1.0
C      1  0.5879520000000  0.4471310000000  0.5080950000000 1.0
C      1  0.5765610000000  0.5670550000000  0.5067750000000 1.0
C      1  0.4599630000000  0.5926560000000  0.5071330000000 1.0
C      1  0.5041530000000  0.5750910000000  0.5251970000000 1.0
C      1  0.4191120000000  0.5262760000000  0.5332590000000 1.0
C      1  0.4509230000000  0.4356910000000  0.5326530000000 1.0
C      1  0.5483460000000  0.4316910000000  0.5341110000000 1.0
C      1  0.5806030000000  0.5245900000000  0.5333090000000 1.0
C      1  0.4519400000000  0.5508190000000  0.4638530000000 1.0
C      1  0.4347190000000  0.4684530000000  0.4639310000000 1.0
C      1  0.5091400000000  0.4302490000000  0.4637450000000 1.0
C      1  0.5690790000000  0.4860940000000  0.4639800000000 1.0
C      1  0.5332120000000  0.5599890000000  0.4648670000000 1.0
C      1  0.4783670000000  0.5625690000000  0.4798500000000 1.0
C      1  0.4311870000000  0.4982980000000  0.4787060000000 1.0
C      1  0.4800160000000  0.4365340000000  0.4780150000000 1.0
C      1  0.5550480000000  0.4610280000000  0.4787050000000 1.0
C      1  0.5528300000000  0.5394530000000  0.4797710000000 1.0
C      1  0.5661060000000  0.5120040000000  0.4222720000000 1.0
C      1  0.5077580000000  0.5607390000000  0.4219100000000 1.0
C      1  0.4373470000000  0.5382810000000  0.4158320000000 1.0
C      1  0.4583030000000  0.4469190000000  0.4248000000000 1.0
C      1  0.5321620000000  0.4437840000000  0.4192080000000 1.0
C      1  0.4555680000000  0.4647980000000  0.5029340000000 1.0
C      1  0.5202440000000  0.4477780000000  0.5030910000000 1.0
C      1  0.5563620000000  0.5020930000000  0.5040620000000 1.0
C      1  0.5134270000000  0.5501970000000  0.5065130000000 1.0
C      1  0.4482330000000  0.5313030000000  0.5043250000000 1.0
C      1  0.5602170000000  0.5864780000000  0.4949250000000 1.0
C      1  0.4365080000000  0.5840380000000  0.4952690000000 1.0
C      1  0.3979220000000  0.4643720000000  0.4955140000000 1.0
C      1  0.5011790000000  0.3947320000000  0.4958340000000 1.0
C      1  0.6022380000000  0.4680900000000  0.4957460000000 1.0
C      1  0.4999970000000  0.5132710000000  0.3871730000000 1.0
C      1  0.4835390000000  0.5027570000000  0.5038540000000 1.0
END
