TITL C-25934-8309-5 0.00638335136286644 125000 -283.360164986097 0 0 43 (C1) n - 1
REM
REM in /rds/project/t2_vol4/rds-t2-cs072/BORA/CARBON/from-Arr/AIRSS/Generating-Clusters/GAP-ML-2020/Higher-Symm/SD-CG/HFTN-CG
REM
REM
REM
REM
REM
REM ./C.cell (b20cbc046b6831c77cfcea5457e17084)
REM AIRSS Version 0.9.1 bugfix July 2018 build 013d7b7c2542+ Fri, 06 Jul 2018 19:26:36 +0100
REM compiler GCC version 9.3.0
REM options -cpp -mtune=generic -march=x86-64 -g -O0
REM seed -51780689 973720762 1154125661 -1666030929 1867399336 -1084733763 106727903 1479315746 823212801 1520411097 810080504 -878831897 -772260142 -136311779 1430384574 -13976217 -188341635 -1317110757 1581845478 12457187 -272483645 2066544563 -84902815 -1451587234 -1139563495 1370653482 231210581 -1562699703 -1360346472 804185572 2093630034 -722671141 27470934
REM
CELL 1.54180   50.00000   50.00000   50.00000   90.00000   90.00000   90.00000
LATT -1
SFAC C  
C      1  0.5585680000000  0.5344450000000  0.4629560000000 1.0
C      1  0.4388150000000  0.5404070000000  0.4695420000000 1.0
C      1  0.5043150000000  0.5352160000000  0.5700270000000 1.0
C      1  0.5463320000000  0.5137360000000  0.4486590000000 1.0
C      1  0.4316520000000  0.5187990000000  0.4858450000000 1.0
C      1  0.5208200000000  0.5128180000000  0.5669670000000 1.0
C      1  0.4358780000000  0.4920790000000  0.4957950000000 1.0
C      1  0.5258150000000  0.4863130000000  0.5560760000000 1.0
C      1  0.5330780000000  0.4879890000000  0.4478300000000 1.0
C      1  0.5266100000000  0.4959140000000  0.5070240000000 1.0
C      1  0.4909530000000  0.4971910000000  0.4723980000000 1.0
C      1  0.4786420000000  0.4973890000000  0.5207930000000 1.0
C      1  0.4392380000000  0.5170140000000  0.5126610000000 1.0
C      1  0.5400090000000  0.5114870000000  0.5467350000000 1.0
C      1  0.5192130000000  0.5142830000000  0.4418630000000 1.0
C      1  0.5349860000000  0.5190670000000  0.5203940000000 1.0
C      1  0.4992060000000  0.5212220000000  0.4600830000000 1.0
C      1  0.4651770000000  0.5222070000000  0.5213500000000 1.0
C      1  0.5468570000000  0.5451380000000  0.4826960000000 1.0
C      1  0.4625020000000  0.5493430000000  0.4704420000000 1.0
C      1  0.4941700000000  0.5465450000000  0.5497580000000 1.0
C      1  0.5244590000000  0.4270790000000  0.4881910000000 1.0
C      1  0.4720560000000  0.4289920000000  0.4837250000000 1.0
C      1  0.4884020000000  0.4274410000000  0.5275200000000 1.0
C      1  0.4668630000000  0.4719690000000  0.5259110000000 1.0
C      1  0.5349920000000  0.4692960000000  0.5130720000000 1.0
C      1  0.4902200000000  0.4715880000000  0.4601520000000 1.0
C      1  0.5184560000000  0.4690830000000  0.4623410000000 1.0
C      1  0.4548200000000  0.4719830000000  0.5000350000000 1.0
C      1  0.5191320000000  0.4676190000000  0.5367190000000 1.0
C      1  0.5310710000000  0.5430510000000  0.5051390000000 1.0
C      1  0.4895580000000  0.5451060000000  0.4727650000000 1.0
C      1  0.4824300000000  0.5448460000000  0.5249220000000 1.0
C      1  0.5249710000000  0.4541770000000  0.4884400000000 1.0
C      1  0.4732410000000  0.4559140000000  0.4807290000000 1.0
C      1  0.4916300000000  0.4543070000000  0.5293810000000 1.0
C      1  0.4891700000000  0.4168820000000  0.5017970000000 1.0
C      1  0.5038630000000  0.6069130000000  0.5017910000000 1.0
C      1  0.5026130000000  0.5820960000000  0.5013380000000 1.0
C      1  0.4970750000000  0.4610200000000  0.4996340000000 1.0
C      1  0.4983990000000  0.4923210000000  0.5001150000000 1.0
C      1  0.5014570000000  0.5543450000000  0.5010520000000 1.0
C      1  0.5133010000000  0.4042680000000  0.4927740000000 1.0
END
