TITL C-25837-4538-2 -11.3908619893222 125000 -198.40785173732 0 0 29 (C1) n - 1
REM
REM in /rds/project/t2_vol4/rds-t2-cs072/BORA/CARBON/from-Arr/AIRSS/Generating-Clusters/GAP-ML-2020/Higher-Symm/SD-CG/HFTN-CG
REM
REM
REM
REM
REM
REM ./C.cell (b20cbc046b6831c77cfcea5457e17084)
REM AIRSS Version 0.9.1 bugfix July 2018 build 013d7b7c2542+ Fri, 06 Jul 2018 19:26:36 +0100
REM compiler GCC version 9.3.0
REM options -cpp -mtune=generic -march=x86-64 -g -O0
REM seed 1351629472 2031763513 -115680660 2073613610 1498238005 984978707 1698241064 -1658490500 1735817884 -1840393055 1920990790 -529182757 1359721809 1440418230 -25038019 1342024709 -1939876571 1811871376 -49560834 -701575264 -1267775034 -2050625494 1151920 -1289751722 723872996 1021786698 -193737712 -105109920 -66040271 -1795455116 1340219607 208433439 1398876107
REM
CELL 1.54180   50.00000   50.00000   50.00000   90.00000   90.00000   90.00000
LATT -1
SFAC C  
C      1  0.5348180000000  0.5254320000000  0.5065900000000 1.0
C      1  0.5419980000000  0.4995050000000  0.5184790000000 1.0
C      1  0.5221580000000  0.4539610000000  0.5057150000000 1.0
C      1  0.4956950000000  0.4547720000000  0.5177790000000 1.0
C      1  0.4538460000000  0.4985990000000  0.5076080000000 1.0
C      1  0.4565590000000  0.5277280000000  0.5164270000000 1.0
C      1  0.5125390000000  0.5413120000000  0.5195170000000 1.0
C      1  0.4987960000000  0.5292370000000  0.5424850000000 1.0
C      1  0.5139660000000  0.5103200000000  0.5576240000000 1.0
C      1  0.5337160000000  0.4949580000000  0.5458420000000 1.0
C      1  0.5102420000000  0.4823920000000  0.5548640000000 1.0
C      1  0.4880480000000  0.4722450000000  0.5391770000000 1.0
C      1  0.4672820000000  0.4911120000000  0.5330370000000 1.0
C      1  0.4716760000000  0.5200700000000  0.5390780000000 1.0
C      1  0.4889500000000  0.4590490000000  0.4735400000000 1.0
C      1  0.4788470000000  0.4834190000000  0.4629130000000 1.0
C      1  0.4640530000000  0.5277130000000  0.4717110000000 1.0
C      1  0.4889210000000  0.5288600000000  0.4576470000000 1.0
C      1  0.5080150000000  0.5436150000000  0.4727910000000 1.0
C      1  0.5265770000000  0.5015380000000  0.4620350000000 1.0
C      1  0.5345910000000  0.4775040000000  0.4738530000000 1.0
C      1  0.4590450000000  0.4997150000000  0.4788580000000 1.0
C      1  0.4671890000000  0.5436100000000  0.4962200000000 1.0
C      1  0.4957490000000  0.5518240000000  0.4979250000000 1.0
C      1  0.5308170000000  0.5264110000000  0.4777780000000 1.0
C      1  0.5405060000000  0.4764370000000  0.5026700000000 1.0
C      1  0.5169930000000  0.4550260000000  0.4764250000000 1.0
C      1  0.4768910000000  0.4490740000000  0.4973640000000 1.0
C      1  0.4987280000000  0.5021940000000  0.4515900000000 1.0
END
