TITL C-25618-19-10 -0.055920071687635 125000 -573.88321111872 0 0 85 (C1) n - 1
REM
REM in /rds/project/t2_vol4/rds-t2-cs072/BORA/CARBON/from-Arr/AIRSS/Generating-Clusters/GAP-ML-2020/Higher-Symm/SD-CG/HFTN-CG
REM
REM
REM
REM
REM
REM ./C.cell (b20cbc046b6831c77cfcea5457e17084)
REM AIRSS Version 0.9.1 bugfix July 2018 build 013d7b7c2542+ Fri, 06 Jul 2018 19:26:36 +0100
REM compiler GCC version 9.3.0
REM options -cpp -mtune=generic -march=x86-64 -g -O0
REM seed 1444661048 -2100197198 -1479249342 -10278957 73604992 1681899128 -1866600344 582033191 1878332621 -744166782 -143681923 500166483 -152453040 274756410 -856417604 1089700488 1572345138 141156543 -767372256 1017630805 -735572773 -1770937389 436068990 -1634664813 270903356 1558021718 121095557 1163180072 -420238944 -534248573 1858738208 -492016794 828822537
REM
CELL 1.54180   50.00000   50.00000   50.00000   90.00000   90.00000   90.00000
LATT -1
SFAC C  
C      1  0.5420370000000  0.5409770000000  0.4332170000000 1.0
C      1  0.4586550000000  0.5375220000000  0.5652110000000 1.0
C      1  0.5409620000000  0.4626970000000  0.5653760000000 1.0
C      1  0.4581780000000  0.4645620000000  0.4389830000000 1.0
C      1  0.4394540000000  0.5346910000000  0.5424210000000 1.0
C      1  0.5603020000000  0.5377160000000  0.4566160000000 1.0
C      1  0.5607470000000  0.4642890000000  0.5427460000000 1.0
C      1  0.4348800000000  0.4603890000000  0.4577760000000 1.0
C      1  0.5262860000000  0.4731250000000  0.4930470000000 1.0
C      1  0.4663040000000  0.4654140000000  0.5074420000000 1.0
C      1  0.5312860000000  0.5358490000000  0.5071560000000 1.0
C      1  0.4792350000000  0.5192300000000  0.4900420000000 1.0
C      1  0.4838690000000  0.4811570000000  0.5238040000000 1.0
C      1  0.5083910000000  0.4791260000000  0.4742300000000 1.0
C      1  0.5119830000000  0.5231850000000  0.5244340000000 1.0
C      1  0.4965750000000  0.5270770000000  0.4702990000000 1.0
C      1  0.4773560000000  0.5597530000000  0.4403550000000 1.0
C      1  0.5280250000000  0.5552440000000  0.5578290000000 1.0
C      1  0.4735980000000  0.4458940000000  0.5580010000000 1.0
C      1  0.5260610000000  0.4474310000000  0.4414210000000 1.0
C      1  0.4446480000000  0.5527680000000  0.4757790000000 1.0
C      1  0.5638190000000  0.5598400000000  0.5224650000000 1.0
C      1  0.5596030000000  0.4426910000000  0.4778770000000 1.0
C      1  0.4368800000000  0.4387670000000  0.5237960000000 1.0
C      1  0.5633980000000  0.4925910000000  0.5363180000000 1.0
C      1  0.4281250000000  0.4865370000000  0.4671880000000 1.0
C      1  0.5610120000000  0.5094480000000  0.4636620000000 1.0
C      1  0.4338900000000  0.5066190000000  0.5387880000000 1.0
C      1  0.5350780000000  0.4889130000000  0.5733870000000 1.0
C      1  0.4640190000000  0.4926800000000  0.4374640000000 1.0
C      1  0.4643240000000  0.5114240000000  0.5739860000000 1.0
C      1  0.5336820000000  0.5146110000000  0.4258210000000 1.0
C      1  0.4700840000000  0.4395770000000  0.4461980000000 1.0
C      1  0.5293080000000  0.4394690000000  0.5539890000000 1.0
C      1  0.4716130000000  0.5595990000000  0.5531660000000 1.0
C      1  0.5321030000000  0.5658450000000  0.4449680000000 1.0
C      1  0.4469640000000  0.4363500000000  0.4671410000000 1.0
C      1  0.5520050000000  0.4389220000000  0.5322710000000 1.0
C      1  0.5530850000000  0.5636030000000  0.4671100000000 1.0
C      1  0.4497660000000  0.5580070000000  0.5296770000000 1.0
C      1  0.5205280000000  0.4764700000000  0.4441450000000 1.0
C      1  0.4764630000000  0.4749040000000  0.5541890000000 1.0
C      1  0.5228400000000  0.5260030000000  0.5538260000000 1.0
C      1  0.4870340000000  0.5334330000000  0.4432980000000 1.0
C      1  0.4375480000000  0.4653420000000  0.5145050000000 1.0
C      1  0.5558250000000  0.4687250000000  0.4872750000000 1.0
C      1  0.5602940000000  0.5335480000000  0.5128630000000 1.0
C      1  0.4482050000000  0.5235690000000  0.4807030000000 1.0
C      1  0.4887560000000  0.5732490000000  0.5346800000000 1.0
C      1  0.5143090000000  0.5784900000000  0.4647120000000 1.0
C      1  0.4878700000000  0.4262310000000  0.4649230000000 1.0
C      1  0.5124110000000  0.4269150000000  0.5342140000000 1.0
C      1  0.5350240000000  0.5774680000000  0.4853820000000 1.0
C      1  0.4684450000000  0.5724470000000  0.5132170000000 1.0
C      1  0.4664650000000  0.4248120000000  0.4850210000000 1.0
C      1  0.5334720000000  0.4264060000000  0.5137650000000 1.0
C      1  0.5760260000000  0.5689530000000  0.5465330000000 1.0
C      1  0.4397060000000  0.5603600000000  0.4489370000000 1.0
C      1  0.5739750000000  0.4357320000000  0.4536870000000 1.0
C      1  0.4264780000000  0.4280110000000  0.5479490000000 1.0
C      1  0.5546780000000  0.5629080000000  0.5605700000000 1.0
C      1  0.4523190000000  0.5658950000000  0.4270150000000 1.0
C      1  0.4474290000000  0.4365630000000  0.5611960000000 1.0
C      1  0.5534050000000  0.4404160000000  0.4386780000000 1.0
C      1  0.5348330000000  0.4276720000000  0.4858470000000 1.0
C      1  0.4666340000000  0.4339310000000  0.5124460000000 1.0
C      1  0.5344780000000  0.5683000000000  0.5127060000000 1.0
C      1  0.4670090000000  0.5703640000000  0.4855680000000 1.0
C      1  0.4852620000000  0.4301710000000  0.5349100000000 1.0
C      1  0.5152360000000  0.4301660000000  0.4644660000000 1.0
C      1  0.5161930000000  0.5719710000000  0.5358640000000 1.0
C      1  0.4863930000000  0.5748850000000  0.4647810000000 1.0
C      1  0.5703710000000  0.5068340000000  0.5127370000000 1.0
C      1  0.4269380000000  0.5029350000000  0.4905370000000 1.0
C      1  0.5680290000000  0.4945700000000  0.4868600000000 1.0
C      1  0.4258050000000  0.4918240000000  0.5161880000000 1.0
C      1  0.5124300000000  0.5058280000000  0.5754690000000 1.0
C      1  0.4854520000000  0.5087070000000  0.4282880000000 1.0
C      1  0.4872640000000  0.4949780000000  0.5752910000000 1.0
C      1  0.5107890000000  0.4973350000000  0.4234270000000 1.0
C      1  0.4489450000000  0.4923260000000  0.5586750000000 1.0
C      1  0.4452220000000  0.5054740000000  0.4541470000000 1.0
C      1  0.5462720000000  0.4959900000000  0.4432820000000 1.0
C      1  0.5488460000000  0.5071760000000  0.5560810000000 1.0
C      1  0.4895550000000  0.5082750000000  0.5150010000000 1.0
END
