TITL C-25023-9683-9 -258.040122080316 125000 -832.882950443724 0 0 115 (C1) n - 1
REM
REM in /rds/project/t2_vol4/rds-t2-cs072/BORA/CARBON/from-Arr/AIRSS/Generating-Clusters/GAP-ML-2020/Higher-Symm/SD-CG/HFTN-CG
REM
REM
REM
REM
REM
REM ./C.cell (b20cbc046b6831c77cfcea5457e17084)
REM AIRSS Version 0.9.1 bugfix July 2018 build 013d7b7c2542+ Fri, 06 Jul 2018 19:26:36 +0100
REM compiler GCC version 9.3.0
REM options -cpp -mtune=generic -march=x86-64 -g -O0
REM seed -123022759 1315389161 966288183 -1008301705 -204184332 -2111341326 -1187767031 887775434 1831495455 747948930 1467634618 863717167 -1006971526 -2013859628 976954708 -1866059359 1844247235 -1308833735 1085913348 1496032082 -25398088 -1488330617 -1827681445 1940027225 185616420 90318852 2014002549 633146868 -1892694503 -1040884476 -1141701998 1867756380 -1077450607
REM
CELL 1.54180   50.00000   50.00000   50.00000   90.00000   90.00000   90.00000
LATT -1
SFAC C  
C      1  0.5280920000000  0.5192920000000  0.5165750000000 1.0
C      1  0.5040390000000  0.5337060000000  0.5273390000000 1.0
C      1  0.4758870000000  0.5188860000000  0.5296210000000 1.0
C      1  0.4686530000000  0.5347850000000  0.5009850000000 1.0
C      1  0.4807090000000  0.5199740000000  0.4800180000000 1.0
C      1  0.5080340000000  0.5175670000000  0.4686550000000 1.0
C      1  0.5309190000000  0.5141450000000  0.4863980000000 1.0
C      1  0.4980510000000  0.5498500000000  0.4313100000000 1.0
C      1  0.5374290000000  0.5555030000000  0.4672320000000 1.0
C      1  0.5681360000000  0.5509610000000  0.5106780000000 1.0
C      1  0.5355520000000  0.5589180000000  0.5535520000000 1.0
C      1  0.4713180000000  0.5562780000000  0.5627800000000 1.0
C      1  0.4297500000000  0.5571220000000  0.5235320000000 1.0
C      1  0.4414680000000  0.5493120000000  0.4485450000000 1.0
C      1  0.4846530000000  0.5940370000000  0.5279970000000 1.0
C      1  0.4632850000000  0.5924900000000  0.5067400000000 1.0
C      1  0.4662520000000  0.5884660000000  0.4784550000000 1.0
C      1  0.4931280000000  0.5889820000000  0.4675490000000 1.0
C      1  0.5168770000000  0.5963580000000  0.4814250000000 1.0
C      1  0.5152260000000  0.6122400000000  0.5038570000000 1.0
C      1  0.5131800000000  0.5974100000000  0.5273760000000 1.0
C      1  0.5204410000000  0.5392210000000  0.4477830000000 1.0
C      1  0.5537780000000  0.5318640000000  0.4723400000000 1.0
C      1  0.5534870000000  0.5340800000000  0.5276290000000 1.0
C      1  0.5102860000000  0.5457650000000  0.5551150000000 1.0
C      1  0.4578840000000  0.5351480000000  0.5510440000000 1.0
C      1  0.4355330000000  0.5445200000000  0.4981320000000 1.0
C      1  0.4517790000000  0.5278270000000  0.4323860000000 1.0
C      1  0.5753620000000  0.4925720000000  0.5490040000000 1.0
C      1  0.5088620000000  0.4936930000000  0.5881530000000 1.0
C      1  0.4355070000000  0.4925420000000  0.5631410000000 1.0
C      1  0.4093350000000  0.4988620000000  0.4933300000000 1.0
C      1  0.4617380000000  0.4892720000000  0.4129720000000 1.0
C      1  0.5367060000000  0.4844280000000  0.4153360000000 1.0
C      1  0.5878360000000  0.4875630000000  0.4724310000000 1.0
C      1  0.4437550000000  0.4327650000000  0.5265160000000 1.0
C      1  0.4410690000000  0.4384590000000  0.4722450000000 1.0
C      1  0.4824390000000  0.4290940000000  0.4380400000000 1.0
C      1  0.5442010000000  0.4226770000000  0.4510080000000 1.0
C      1  0.5684250000000  0.4266540000000  0.5012530000000 1.0
C      1  0.5415370000000  0.4307140000000  0.5484280000000 1.0
C      1  0.4887000000000  0.4314550000000  0.5595100000000 1.0
C      1  0.4940050000000  0.4228890000000  0.5318000000000 1.0
C      1  0.4684760000000  0.4239820000000  0.5140380000000 1.0
C      1  0.4642850000000  0.4256470000000  0.4845910000000 1.0
C      1  0.4855350000000  0.4265680000000  0.4660460000000 1.0
C      1  0.5303920000000  0.4191990000000  0.4759520000000 1.0
C      1  0.5410570000000  0.4180490000000  0.5022800000000 1.0
C      1  0.5243100000000  0.4212200000000  0.5268650000000 1.0
C      1  0.4293050000000  0.4788290000000  0.4484630000000 1.0
C      1  0.4968420000000  0.4601390000000  0.4064910000000 1.0
C      1  0.5695830000000  0.4589760000000  0.4371400000000 1.0
C      1  0.5931050000000  0.4649710000000  0.5127270000000 1.0
C      1  0.5482800000000  0.4673690000000  0.5778560000000 1.0
C      1  0.4699540000000  0.4677350000000  0.5843140000000 1.0
C      1  0.4128840000000  0.4676340000000  0.5305730000000 1.0
C      1  0.5316820000000  0.4346490000000  0.4276250000000 1.0
C      1  0.5806640000000  0.4380740000000  0.4779520000000 1.0
C      1  0.5673280000000  0.4426020000000  0.5453910000000 1.0
C      1  0.5070650000000  0.4433340000000  0.5781840000000 1.0
C      1  0.4428060000000  0.4433770000000  0.5530440000000 1.0
C      1  0.4209150000000  0.4519210000000  0.4863590000000 1.0
C      1  0.4599090000000  0.4439090000000  0.4286330000000 1.0
C      1  0.4098790000000  0.4940560000000  0.5221250000000 1.0
C      1  0.4423850000000  0.4997310000000  0.4310860000000 1.0
C      1  0.5089610000000  0.4861570000000  0.4069770000000 1.0
C      1  0.5744680000000  0.4851230000000  0.4464840000000 1.0
C      1  0.5877830000000  0.4914210000000  0.5217770000000 1.0
C      1  0.5377960000000  0.4935790000000  0.5812890000000 1.0
C      1  0.4605620000000  0.4941110000000  0.5794010000000 1.0
C      1  0.5274740000000  0.4866810000000  0.5194420000000 1.0
C      1  0.5046840000000  0.4781250000000  0.5306630000000 1.0
C      1  0.4795540000000  0.4884220000000  0.5265500000000 1.0
C      1  0.4674720000000  0.4811280000000  0.5034680000000 1.0
C      1  0.4745710000000  0.4916100000000  0.4793430000000 1.0
C      1  0.4973680000000  0.4848500000000  0.4642930000000 1.0
C      1  0.5332080000000  0.4819390000000  0.4918760000000 1.0
C      1  0.5049050000000  0.4368930000000  0.4213670000000 1.0
C      1  0.5692820000000  0.4355780000000  0.4532050000000 1.0
C      1  0.5808540000000  0.4411870000000  0.5221110000000 1.0
C      1  0.5333890000000  0.4434250000000  0.5725020000000 1.0
C      1  0.4649250000000  0.4438740000000  0.5687180000000 1.0
C      1  0.4216390000000  0.4467000000000  0.5136340000000 1.0
C      1  0.4412940000000  0.4523730000000  0.4472810000000 1.0
C      1  0.5771500000000  0.5330900000000  0.4902420000000 1.0
C      1  0.5533450000000  0.5373030000000  0.5554480000000 1.0
C      1  0.4913270000000  0.5397260000000  0.5753110000000 1.0
C      1  0.4307340000000  0.5369830000000  0.5434910000000 1.0
C      1  0.4248060000000  0.5441770000000  0.4705490000000 1.0
C      1  0.4791790000000  0.5300370000000  0.4216740000000 1.0
C      1  0.5470130000000  0.5252720000000  0.4433690000000 1.0
C      1  0.5467250000000  0.4580930000000  0.4202650000000 1.0
C      1  0.5933370000000  0.4626440000000  0.4845280000000 1.0
C      1  0.5697940000000  0.4669560000000  0.5598880000000 1.0
C      1  0.4972380000000  0.4675750000000  0.5900750000000 1.0
C      1  0.4270440000000  0.4668100000000  0.5548700000000 1.0
C      1  0.4151890000000  0.4777740000000  0.4745050000000 1.0
C      1  0.4687900000000  0.4627480000000  0.4100280000000 1.0
C      1  0.4221410000000  0.5102290000000  0.5436050000000 1.0
C      1  0.4155710000000  0.5252140000000  0.4869940000000 1.0
C      1  0.4857010000000  0.5049450000000  0.4099070000000 1.0
C      1  0.5545150000000  0.5014700000000  0.4316080000000 1.0
C      1  0.5869670000000  0.5067300000000  0.4953720000000 1.0
C      1  0.5565050000000  0.5106880000000  0.5646510000000 1.0
C      1  0.4862980000000  0.5118510000000  0.5830510000000 1.0
C      1  0.4585710000000  0.5714220000000  0.4546050000000 1.0
C      1  0.4857820000000  0.5715070000000  0.4453750000000 1.0
C      1  0.5388630000000  0.5782710000000  0.4827160000000 1.0
C      1  0.5518590000000  0.5738020000000  0.5084580000000 1.0
C      1  0.5362130000000  0.5791670000000  0.5325060000000 1.0
C      1  0.4674950000000  0.5798330000000  0.5471620000000 1.0
C      1  0.4464150000000  0.5793690000000  0.5268760000000 1.0
C      1  0.5161030000000  0.4670520000000  0.4749090000000 1.0
C      1  0.5095040000000  0.4383610000000  0.4754750000000 1.0
C      1  0.4921300000000  0.5500330000000  0.5059430000000 1.0
END
