TITL C-25914-9980-1 59.3503147958207 125000 -401.657083680604 0 0 60 (C3) n - 1
REM
REM in /rds/project/t2_vol4/rds-t2-cs072/BORA/CARBON/from-Arr/AIRSS/Generating-Clusters/GAP-ML-2020/Higher-Symm/SD-CG/HFTN-CG
REM
REM
REM
REM
REM
REM ./C.cell (b20cbc046b6831c77cfcea5457e17084)
REM AIRSS Version 0.9.1 bugfix July 2018 build 013d7b7c2542+ Fri, 06 Jul 2018 19:26:36 +0100
REM compiler GCC version 9.3.0
REM options -cpp -mtune=generic -march=x86-64 -g -O0
REM seed 608011716 -229791182 -167977102 -1974861251 -1575794488 -918980344 763279516 -1529434753 -868480138 -657115145 -2041204183 1504214695 291438305 1143782960 -726631297 562170530 1727267083 787324500 -868964348 1575429719 560376294 1429615146 639165178 1408904770 -1868248101 1381596933 -1089843954 -834371794 -1406261988 283834518 245979530 -1410828114 -194372566
REM
CELL 1.54180   50.00000   50.00000   50.00000   90.00000   90.00000   90.00000
LATT -1
SFAC C  
C      1  0.4667710000000  0.5015550000000  0.5467850000000 1.0
C      1  0.5144090000000  0.5262050000000  0.5490020000000 1.0
C      1  0.5119080000000  0.4725800000000  0.5490080000000 1.0
C      1  0.5286330000000  0.5012740000000  0.5497390000000 1.0
C      1  0.4812260000000  0.5263560000000  0.5474170000000 1.0
C      1  0.4832280000000  0.4727100000000  0.5476390000000 1.0
C      1  0.5143600000000  0.5256980000000  0.5162730000000 1.0
C      1  0.5138990000000  0.4741120000000  0.5163720000000 1.0
C      1  0.4695050000000  0.5002990000000  0.5141910000000 1.0
C      1  0.4843890000000  0.5258350000000  0.5148420000000 1.0
C      1  0.4843700000000  0.4742470000000  0.5149620000000 1.0
C      1  0.5290050000000  0.5000290000000  0.5170320000000 1.0
C      1  0.4475550000000  0.5004930000000  0.4551260000000 1.0
C      1  0.5297670000000  0.5468240000000  0.4589420000000 1.0
C      1  0.5287320000000  0.4523850000000  0.4591140000000 1.0
C      1  0.5564840000000  0.4999970000000  0.4603270000000 1.0
C      1  0.4747070000000  0.5470750000000  0.4563130000000 1.0
C      1  0.4748630000000  0.4526300000000  0.4565420000000 1.0
C      1  0.5603270000000  0.4958570000000  0.5090310000000 1.0
C      1  0.4657950000000  0.4495350000000  0.5046270000000 1.0
C      1  0.4730000000000  0.5546510000000  0.5047240000000 1.0
C      1  0.4390520000000  0.4964080000000  0.5032400000000 1.0
C      1  0.5331490000000  0.4492290000000  0.5078430000000 1.0
C      1  0.5269220000000  0.5544060000000  0.5072990000000 1.0
C      1  0.5125690000000  0.5545710000000  0.5551510000000 1.0
C      1  0.5369040000000  0.4597560000000  0.5565350000000 1.0
C      1  0.4427150000000  0.4860560000000  0.5519770000000 1.0
C      1  0.4827300000000  0.5547070000000  0.5537260000000 1.0
C      1  0.4575140000000  0.4601180000000  0.5527440000000 1.0
C      1  0.5519430000000  0.4855590000000  0.5571920000000 1.0
C      1  0.5164190000000  0.5240560000000  0.4476390000000 1.0
C      1  0.5164990000000  0.4757450000000  0.4477560000000 1.0
C      1  0.4746680000000  0.4998270000000  0.4457020000000 1.0
C      1  0.4888630000000  0.5241810000000  0.4463230000000 1.0
C      1  0.4883340000000  0.4758730000000  0.4464110000000 1.0
C      1  0.5303880000000  0.4995730000000  0.4483630000000 1.0
C      1  0.5116380000000  0.4286930000000  0.5099300000000 1.0
C      1  0.4318200000000  0.5252080000000  0.5058930000000 1.0
C      1  0.5552270000000  0.5461640000000  0.5117350000000 1.0
C      1  0.4868220000000  0.4288060000000  0.5087450000000 1.0
C      1  0.5675350000000  0.5245910000000  0.5123730000000 1.0
C      1  0.4443280000000  0.5466680000000  0.5064400000000 1.0
C      1  0.4455450000000  0.4533360000000  0.5264750000000 1.0
C      1  0.4847380000000  0.5694460000000  0.5280740000000 1.0
C      1  0.5655780000000  0.4774220000000  0.5321490000000 1.0
C      1  0.5512590000000  0.4528550000000  0.5315230000000 1.0
C      1  0.5131480000000  0.5693170000000  0.5294300000000 1.0
C      1  0.4314550000000  0.4780320000000  0.5257450000000 1.0
C      1  0.4872020000000  0.5598110000000  0.4781490000000 1.0
C      1  0.5596890000000  0.4819930000000  0.4817920000000 1.0
C      1  0.4561230000000  0.4580480000000  0.4769040000000 1.0
C      1  0.5153640000000  0.5596820000000  0.4794930000000 1.0
C      1  0.4421560000000  0.4825280000000  0.4761800000000 1.0
C      1  0.5454950000000  0.4576410000000  0.4811710000000 1.0
C      1  0.5579480000000  0.5464320000000  0.4562000000000 1.0
C      1  0.5145990000000  0.4283030000000  0.4544080000000 1.0
C      1  0.4340910000000  0.5249390000000  0.4503380000000 1.0
C      1  0.4469130000000  0.5469370000000  0.4508980000000 1.0
C      1  0.4891600000000  0.4284180000000  0.4531930000000 1.0
C      1  0.5705640000000  0.5243180000000  0.4568540000000 1.0
END
