TITL C-25934-8309-2 -0.101048987456461 125000 -319.805921331273 0 0 49 (C1) n - 1
REM
REM in /rds/project/t2_vol4/rds-t2-cs072/BORA/CARBON/from-Arr/AIRSS/Generating-Clusters/GAP-ML-2020/Higher-Symm/SD-CG/HFTN-CG
REM
REM
REM
REM
REM
REM ./C.cell (b20cbc046b6831c77cfcea5457e17084)
REM AIRSS Version 0.9.1 bugfix July 2018 build 013d7b7c2542+ Fri, 06 Jul 2018 19:26:36 +0100
REM compiler GCC version 9.3.0
REM options -cpp -mtune=generic -march=x86-64 -g -O0
REM seed 206566781 1490374721 1594337240 -136078141 -1154745958 -1620328873 -1569112953 662763888 330382451 -2145508993 -1649867809 1982771708 1866701526 1487517394 490018595 1404168396 -1402782335 1603961103 -395455159 1416283980 -223951535 1686932790 872392855 -704189342 -1207793660 -668549804 1599119160 -791524118 2023146695 -96281028 991663605 -1655265932 -1183446923
REM
CELL 1.54180   50.00000   50.00000   50.00000   90.00000   90.00000   90.00000
LATT -1
SFAC C  
C      1  0.5118500000000  0.4520240000000  0.5061420000000 1.0
C      1  0.5106500000000  0.4708980000000  0.4634460000000 1.0
C      1  0.5159940000000  0.5178580000000  0.4514990000000 1.0
C      1  0.5202980000000  0.5505390000000  0.4835500000000 1.0
C      1  0.5256900000000  0.5507850000000  0.5304550000000 1.0
C      1  0.5111950000000  0.5107280000000  0.5464820000000 1.0
C      1  0.4954990000000  0.4658210000000  0.5477330000000 1.0
C      1  0.4324770000000  0.5215560000000  0.4589710000000 1.0
C      1  0.4378340000000  0.5432720000000  0.5045430000000 1.0
C      1  0.4215260000000  0.5259920000000  0.5194550000000 1.0
C      1  0.4376710000000  0.5076740000000  0.5333280000000 1.0
C      1  0.4374070000000  0.4633750000000  0.5066080000000 1.0
C      1  0.4204960000000  0.4659550000000  0.4844890000000 1.0
C      1  0.4359700000000  0.4698530000000  0.4616930000000 1.0
C      1  0.4606780000000  0.4534230000000  0.4679820000000 1.0
C      1  0.4445390000000  0.4970360000000  0.4535940000000 1.0
C      1  0.4464980000000  0.5378560000000  0.4768000000000 1.0
C      1  0.4609740000000  0.5448280000000  0.5217720000000 1.0
C      1  0.4613420000000  0.5237290000000  0.5406180000000 1.0
C      1  0.4466850000000  0.4815350000000  0.5265900000000 1.0
C      1  0.4608560000000  0.4476940000000  0.4963370000000 1.0
C      1  0.4818920000000  0.4735960000000  0.4741040000000 1.0
C      1  0.4738110000000  0.5000930000000  0.4616840000000 1.0
C      1  0.4764400000000  0.5285940000000  0.4773310000000 1.0
C      1  0.4844030000000  0.5332190000000  0.5076220000000 1.0
C      1  0.4857800000000  0.5101120000000  0.5296180000000 1.0
C      1  0.4765000000000  0.4818040000000  0.5260970000000 1.0
C      1  0.4848170000000  0.4650530000000  0.5031860000000 1.0
C      1  0.5689450000000  0.5048040000000  0.4668590000000 1.0
C      1  0.5741020000000  0.5265970000000  0.4845520000000 1.0
C      1  0.5764690000000  0.5250690000000  0.5126210000000 1.0
C      1  0.5878900000000  0.5026810000000  0.5219010000000 1.0
C      1  0.5742870000000  0.4802390000000  0.5188710000000 1.0
C      1  0.5655220000000  0.4645960000000  0.4967690000000 1.0
C      1  0.5628200000000  0.4777600000000  0.4724910000000 1.0
C      1  0.5331120000000  0.4835650000000  0.4782160000000 1.0
C      1  0.5390830000000  0.5115700000000  0.4686330000000 1.0
C      1  0.5441350000000  0.5342440000000  0.4870020000000 1.0
C      1  0.5477000000000  0.5309780000000  0.5191490000000 1.0
C      1  0.5374410000000  0.5087520000000  0.5333330000000 1.0
C      1  0.5471910000000  0.4842440000000  0.5263980000000 1.0
C      1  0.5348240000000  0.4704620000000  0.5045810000000 1.0
C      1  0.5135820000000  0.4442830000000  0.4767520000000 1.0
C      1  0.4993490000000  0.4949430000000  0.4472780000000 1.0
C      1  0.5016280000000  0.5388490000000  0.4644250000000 1.0
C      1  0.5075600000000  0.5521140000000  0.5084970000000 1.0
C      1  0.5139730000000  0.5402760000000  0.5531480000000 1.0
C      1  0.5058640000000  0.4856240000000  0.5628440000000 1.0
C      1  0.5047520000000  0.4434480000000  0.5339530000000 1.0
END
