TITL C-25631-60-5 -0.0120759380095507 125000 -153.742331367433 0 0 24 (C1) n - 1
REM
REM in /rds/project/t2_vol4/rds-t2-cs072/BORA/CARBON/from-Arr/AIRSS/Generating-Clusters/GAP-ML-2020/Higher-Symm/SD-CG/HFTN-CG
REM
REM
REM
REM
REM
REM ./C.cell (b20cbc046b6831c77cfcea5457e17084)
REM AIRSS Version 0.9.1 bugfix July 2018 build 013d7b7c2542+ Fri, 06 Jul 2018 19:26:36 +0100
REM compiler GCC version 9.3.0
REM options -cpp -mtune=generic -march=x86-64 -g -O0
REM seed 510142527 1294790559 -529226983 120191803 310200200 837941105 1798708865 792159990 2003417323 -1386049985 -1532927985 -2127726364 -472613129 -361554383 264234721 658907891 670461662 1027173505 1897613395 -312791079 -1900548610 -2105087766 -578450819 -1893081921 1780396038 -1917477934 -440743753 -1641008630 1584614363 -1966009872 -1060005409 1358202149 -707490341
REM
CELL 1.54180   50.00000   50.00000   50.00000   90.00000   90.00000   90.00000
LATT -1
SFAC C  
C      1  0.5224490000000  0.5575930000000  0.4923300000000 1.0
C      1  0.5373480000000  0.4699600000000  0.4851200000000 1.0
C      1  0.5334920000000  0.4725270000000  0.5283050000000 1.0
C      1  0.5545120000000  0.5149620000000  0.5524170000000 1.0
C      1  0.4621150000000  0.4864430000000  0.5303920000000 1.0
C      1  0.4953650000000  0.4903410000000  0.4691390000000 1.0
C      1  0.4989720000000  0.5376250000000  0.4532730000000 1.0
C      1  0.4845970000000  0.5141850000000  0.4564160000000 1.0
C      1  0.5453310000000  0.4561760000000  0.5045790000000 1.0
C      1  0.4771170000000  0.4535920000000  0.5026080000000 1.0
C      1  0.5370950000000  0.5162160000000  0.4711370000000 1.0
C      1  0.5226460000000  0.5388900000000  0.4710150000000 1.0
C      1  0.4739570000000  0.5378360000000  0.4668630000000 1.0
C      1  0.4812570000000  0.4647140000000  0.5313730000000 1.0
C      1  0.5074830000000  0.4675750000000  0.5339880000000 1.0
C      1  0.5246510000000  0.4913630000000  0.4725700000000 1.0
C      1  0.4660920000000  0.4300870000000  0.4986690000000 1.0
C      1  0.4615240000000  0.5224180000000  0.5115440000000 1.0
C      1  0.4776410000000  0.4789130000000  0.4873580000000 1.0
C      1  0.4600530000000  0.4952360000000  0.5025780000000 1.0
C      1  0.4990180000000  0.5535880000000  0.5019270000000 1.0
C      1  0.4578420000000  0.5118710000000  0.5396620000000 1.0
C      1  0.5454400000000  0.4950600000000  0.5395160000000 1.0
C      1  0.4740010000000  0.5428270000000  0.4972180000000 1.0
END
