TITL C-25918-129-2 0.0704816675366388 125000 -480.523909196552 0 0 70 (C3) n - 1
REM
REM in /rds/project/t2_vol4/rds-t2-cs072/BORA/CARBON/from-Arr/AIRSS/Generating-Clusters/GAP-ML-2020/Higher-Symm/SD-CG/HFTN-CG
REM
REM
REM
REM
REM
REM ./C.cell (b20cbc046b6831c77cfcea5457e17084)
REM AIRSS Version 0.9.1 bugfix July 2018 build 013d7b7c2542+ Fri, 06 Jul 2018 19:26:36 +0100
REM compiler GCC version 9.3.0
REM options -cpp -mtune=generic -march=x86-64 -g -O0
REM seed -601133303 -1739383402 1947521264 -1817684947 256275651 742327410 -1423550644 -258923771 -56019382 1172014458 245357548 350344042 688099505 1083153253 203546565 -504478920 938111276 -1755577458 -1523408424 1284871552 12898794 -368634484 -1356773033 1595895603 305933426 1128660689 -119102549 1510820457 -63460264 -1971310377 -646670695 -762711906 -1203049233
REM
CELL 1.54180   50.00000   50.00000   50.00000   90.00000   90.00000   90.00000
LATT -1
SFAC C  
C      1  0.5089970000000  0.5595610000000  0.4664010000000 1.0
C      1  0.5094830000000  0.4414580000000  0.4660190000000 1.0
C      1  0.5094880000000  0.5001800000000  0.5684910000000 1.0
C      1  0.4668630000000  0.5435930000000  0.5538770000000 1.0
C      1  0.4666560000000  0.5248470000000  0.4361140000000 1.0
C      1  0.4672180000000  0.4322350000000  0.5112280000000 1.0
C      1  0.4034180000000  0.5041500000000  0.4845960000000 1.0
C      1  0.4035500000000  0.4840460000000  0.5049160000000 1.0
C      1  0.4034540000000  0.5116960000000  0.5121660000000 1.0
C      1  0.5531140000000  0.5328110000000  0.4603690000000 1.0
C      1  0.5535320000000  0.4499720000000  0.4921990000000 1.0
C      1  0.5533830000000  0.5189580000000  0.5480250000000 1.0
C      1  0.4611670000000  0.5152280000000  0.5549950000000 1.0
C      1  0.4608360000000  0.5399500000000  0.4601190000000 1.0
C      1  0.4612880000000  0.4454240000000  0.4861460000000 1.0
C      1  0.4291140000000  0.5097230000000  0.4724480000000 1.0
C      1  0.4293550000000  0.4709520000000  0.5061620000000 1.0
C      1  0.4291950000000  0.5195340000000  0.5228810000000 1.0
C      1  0.5410570000000  0.5439120000000  0.5396840000000 1.0
C      1  0.5409510000000  0.5130090000000  0.4429290000000 1.0
C      1  0.5414130000000  0.4446700000000  0.5180680000000 1.0
C      1  0.5388820000000  0.4464580000000  0.4689590000000 1.0
C      1  0.5388860000000  0.5004680000000  0.5626900000000 1.0
C      1  0.5384370000000  0.5546350000000  0.4690500000000 1.0
C      1  0.4964260000000  0.5191540000000  0.5199800000000 1.0
C      1  0.4963620000000  0.5079550000000  0.4742240000000 1.0
C      1  0.4965810000000  0.4739300000000  0.5068000000000 1.0
C      1  0.4455290000000  0.4881450000000  0.4621680000000 1.0
C      1  0.4457550000000  0.4729740000000  0.5299870000000 1.0
C      1  0.4454320000000  0.5392920000000  0.5092170000000 1.0
C      1  0.5714660000000  0.5284570000000  0.5063830000000 1.0
C      1  0.5715350000000  0.4921500000000  0.4729620000000 1.0
C      1  0.5716960000000  0.4813600000000  0.5211150000000 1.0
C      1  0.4895790000000  0.5357050000000  0.4657780000000 1.0
C      1  0.4899720000000  0.4526850000000  0.4869920000000 1.0
C      1  0.4898730000000  0.5125670000000  0.5482830000000 1.0
C      1  0.5385660000000  0.5631610000000  0.4962520000000 1.0
C      1  0.5388510000000  0.4657530000000  0.4479750000000 1.0
C      1  0.5390840000000  0.4726490000000  0.5564710000000 1.0
C      1  0.5017740000000  0.5614420000000  0.4381750000000 1.0
C      1  0.5024690000000  0.4160130000000  0.4785030000000 1.0
C      1  0.5022820000000  0.5236540000000  0.5842850000000 1.0
C      1  0.5146270000000  0.4374270000000  0.5235790000000 1.0
C      1  0.5142020000000  0.5520840000000  0.5432020000000 1.0
C      1  0.5141050000000  0.5117490000000  0.4340950000000 1.0
C      1  0.5102360000000  0.4641300000000  0.4448910000000 1.0
C      1  0.5104860000000  0.4705530000000  0.5594200000000 1.0
C      1  0.5099400000000  0.5665260000000  0.4965940000000 1.0
C      1  0.5539470000000  0.5500600000000  0.5151430000000 1.0
C      1  0.5540420000000  0.4887900000000  0.4498740000000 1.0
C      1  0.5543550000000  0.4629020000000  0.5355700000000 1.0
C      1  0.5715500000000  0.5090190000000  0.5274500000000 1.0
C      1  0.5713880000000  0.5201120000000  0.4792630000000 1.0
C      1  0.5716180000000  0.4728340000000  0.4937490000000 1.0
C      1  0.4962410000000  0.4903190000000  0.4463510000000 1.0
C      1  0.4965880000000  0.4586080000000  0.5360100000000 1.0
C      1  0.4961610000000  0.5521110000000  0.5186440000000 1.0
C      1  0.4673010000000  0.4526340000000  0.5316300000000 1.0
C      1  0.4668820000000  0.5510620000000  0.5260090000000 1.0
C      1  0.4669060000000  0.4969800000000  0.4435780000000 1.0
C      1  0.5237080000000  0.5062920000000  0.4848630000000 1.0
C      1  0.5238420000000  0.4842010000000  0.5029200000000 1.0
C      1  0.5237570000000  0.5108840000000  0.5130230000000 1.0
C      1  0.4958670000000  0.5415760000000  0.5629500000000 1.0
C      1  0.4955850000000  0.5339530000000  0.4333220000000 1.0
C      1  0.4962040000000  0.4255040000000  0.5047370000000 1.0
C      1  0.4426780000000  0.5003620000000  0.5399430000000 1.0
C      1  0.4423960000000  0.5341950000000  0.4805210000000 1.0
C      1  0.4426780000000  0.4658170000000  0.4809310000000 1.0
C      1  0.4830920000000  0.5002910000000  0.5003670000000 1.0
END
