TITL C-25842-2781-6 29.361991352951 125000 -542.522224860353 0 0 77 (C3) n - 1
REM
REM in /rds/project/t2_vol4/rds-t2-cs072/BORA/CARBON/from-Arr/AIRSS/Generating-Clusters/GAP-ML-2020/Higher-Symm/SD-CG/HFTN-CG
REM
REM
REM
REM
REM
REM ./C.cell (b20cbc046b6831c77cfcea5457e17084)
REM AIRSS Version 0.9.1 bugfix July 2018 build 013d7b7c2542+ Fri, 06 Jul 2018 19:26:36 +0100
REM compiler GCC version 9.3.0
REM options -cpp -mtune=generic -march=x86-64 -g -O0
REM seed -1227115218 -1129154320 -1625474301 1699864081 -1513745485 301208214 -888995834 -1267977008 -1100862431 1130739478 1607699271 -1989619762 -602059803 -1651406891 -1265975418 1328537247 525201568 454641318 1128335773 -1270318800 2092704742 -1241139484 456174531 -390891207 -808831262 -1669617263 31455902 987162837 -600938381 1849632161 -1003933371 -312308351 -2095354424
REM
CELL 1.54180   50.00000   50.00000   50.00000   90.00000   90.00000   90.00000
LATT -1
SFAC C  
C      1  0.5337510000000  0.5196750000000  0.4355310000000 1.0
C      1  0.4968740000000  0.4609920000000  0.4353170000000 1.0
C      1  0.4645070000000  0.5222550000000  0.4369990000000 1.0
C      1  0.4523330000000  0.4704610000000  0.4594160000000 1.0
C      1  0.4960310000000  0.5559380000000  0.4599340000000 1.0
C      1  0.5481880000000  0.4753780000000  0.4575250000000 1.0
C      1  0.4313810000000  0.4947930000000  0.4939660000000 1.0
C      1  0.5291080000000  0.5616890000000  0.4930640000000 1.0
C      1  0.5381440000000  0.4436200000000  0.4909200000000 1.0
C      1  0.5025280000000  0.4484780000000  0.5527280000000 1.0
C      1  0.4561630000000  0.5227830000000  0.5549140000000 1.0
C      1  0.5437040000000  0.5258090000000  0.5531620000000 1.0
C      1  0.4701500000000  0.4725030000000  0.4373740000000 1.0
C      1  0.4879040000000  0.5396390000000  0.4381210000000 1.0
C      1  0.5371590000000  0.4907150000000  0.4362970000000 1.0
C      1  0.5415090000000  0.4727370000000  0.5525190000000 1.0
C      1  0.4576770000000  0.4768990000000  0.5543130000000 1.0
C      1  0.5032210000000  0.5474250000000  0.5545450000000 1.0
C      1  0.5689860000000  0.5268800000000  0.5128930000000 1.0
C      1  0.4890100000000  0.4263270000000  0.5128720000000 1.0
C      1  0.4419460000000  0.5458400000000  0.5158220000000 1.0
C      1  0.4282370000000  0.5253430000000  0.5005550000000 1.0
C      1  0.5574070000000  0.5491030000000  0.4982900000000 1.0
C      1  0.5133590000000  0.4253570000000  0.4971460000000 1.0
C      1  0.5023910000000  0.6030160000000  0.5146530000000 1.0
C      1  0.5882190000000  0.4459650000000  0.5102830000000 1.0
C      1  0.4092790000000  0.4501090000000  0.5140340000000 1.0
C      1  0.4894000000000  0.5415260000000  0.5085610000000 1.0
C      1  0.5412280000000  0.4879800000000  0.5066060000000 1.0
C      1  0.4689300000000  0.4698490000000  0.5077940000000 1.0
C      1  0.4434410000000  0.5200280000000  0.4555410000000 1.0
C      1  0.5431820000000  0.5389050000000  0.4538010000000 1.0
C      1  0.5096290000000  0.4430870000000  0.4529030000000 1.0
C      1  0.5352150000000  0.4509460000000  0.4630270000000 1.0
C      1  0.4379210000000  0.4938670000000  0.4657410000000 1.0
C      1  0.5237640000000  0.5566840000000  0.4650160000000 1.0
C      1  0.4964860000000  0.4288180000000  0.4733280000000 1.0
C      1  0.4385810000000  0.5383980000000  0.4763370000000 1.0
C      1  0.5624430000000  0.5337910000000  0.4737110000000 1.0
C      1  0.5256970000000  0.4845120000000  0.5723810000000 1.0
C      1  0.4766590000000  0.4845730000000  0.5733920000000 1.0
C      1  0.5012450000000  0.5270150000000  0.5735890000000 1.0
C      1  0.4263630000000  0.4645330000000  0.4976390000000 1.0
C      1  0.5055980000000  0.5811260000000  0.4979410000000 1.0
C      1  0.5669220000000  0.4542400000000  0.4945750000000 1.0
C      1  0.4536460000000  0.5579060000000  0.4906140000000 1.0
C      1  0.5724440000000  0.5108940000000  0.4873900000000 1.0
C      1  0.4722990000000  0.4314970000000  0.4881350000000 1.0
C      1  0.5195640000000  0.5386290000000  0.5106200000000 1.0
C      1  0.5237520000000  0.4632840000000  0.5092850000000 1.0
C      1  0.4564110000000  0.4973070000000  0.5112350000000 1.0
C      1  0.4971340000000  0.4735440000000  0.5004140000000 1.0
C      1  0.4781800000000  0.5153010000000  0.5014960000000 1.0
C      1  0.5238220000000  0.5108510000000  0.5004830000000 1.0
C      1  0.4919320000000  0.5840000000000  0.5292640000000 1.0
C      1  0.5776490000000  0.4644220000000  0.5255170000000 1.0
C      1  0.4312150000000  0.4499370000000  0.5282910000000 1.0
C      1  0.4585980000000  0.4545300000000  0.5351450000000 1.0
C      1  0.4825420000000  0.5579370000000  0.5363660000000 1.0
C      1  0.5601090000000  0.4855270000000  0.5335690000000 1.0
C      1  0.4538560000000  0.4551390000000  0.4846130000000 1.0
C      1  0.4831520000000  0.5620970000000  0.4857830000000 1.0
C      1  0.5611170000000  0.4832760000000  0.4828710000000 1.0
C      1  0.4765010000000  0.5138580000000  0.5733720000000 1.0
C      1  0.5266610000000  0.5125210000000  0.5723170000000 1.0
C      1  0.5004080000000  0.4697460000000  0.5721490000000 1.0
C      1  0.5267760000000  0.5440080000000  0.5398990000000 1.0
C      1  0.5261280000000  0.4541440000000  0.5384220000000 1.0
C      1  0.4486330000000  0.4996100000000  0.5407710000000 1.0
C      1  0.5141990000000  0.4797470000000  0.4222290000000 1.0
C      1  0.4714910000000  0.4979690000000  0.4234100000000 1.0
C      1  0.5086370000000  0.5258530000000  0.4231080000000 1.0
C      1  0.4550340000000  0.5471250000000  0.5404210000000 1.0
C      1  0.5646740000000  0.5147280000000  0.5376270000000 1.0
C      1  0.4817680000000  0.4359590000000  0.5380270000000 1.0
C      1  0.4979140000000  0.5013470000000  0.4134170000000 1.0
C      1  0.4995440000000  0.5000340000000  0.4926330000000 1.0
END
