TITL C-25622-24-8 -38.5388056396747 125000 -678.240294573105 0 0 102 (C1) n - 1
REM
REM in /rds/project/t2_vol4/rds-t2-cs072/BORA/CARBON/from-Arr/AIRSS/Generating-Clusters/GAP-ML-2020/Higher-Symm/SD-CG/HFTN-CG
REM
REM
REM
REM
REM
REM ./C.cell (b20cbc046b6831c77cfcea5457e17084)
REM AIRSS Version 0.9.1 bugfix July 2018 build 013d7b7c2542+ Fri, 06 Jul 2018 19:26:36 +0100
REM compiler GCC version 9.3.0
REM options -cpp -mtune=generic -march=x86-64 -g -O0
REM seed 1401923610 -813438287 -1957655188 -267949553 -701156017 1168770873 -717693272 -1410557390 1221580303 1118561273 702121972 -29593936 1069886430 1485835037 1407699183 139138259 733967849 986548799 -1157474421 -553386425 -235739591 -638266038 479232605 -1560280594 1016140167 1707189086 529810951 -854865891 -1061347011 1371397950 467062203 3693668 -2119225922
REM
CELL 1.54180   50.00000   50.00000   50.00000   90.00000   90.00000   90.00000
LATT -1
SFAC C  
C      1  0.5154950000000  0.5366060000000  0.5373790000000 1.0
C      1  0.5328640000000  0.5142700000000  0.5328340000000 1.0
C      1  0.5426660000000  0.5278370000000  0.5092840000000 1.0
C      1  0.4816350000000  0.4668680000000  0.5313220000000 1.0
C      1  0.4821760000000  0.5380570000000  0.4649020000000 1.0
C      1  0.5153120000000  0.4630830000000  0.4690180000000 1.0
C      1  0.4683280000000  0.4879920000000  0.5476800000000 1.0
C      1  0.4661980000000  0.5134800000000  0.4654010000000 1.0
C      1  0.5373090000000  0.4834550000000  0.4718790000000 1.0
C      1  0.4628070000000  0.4631070000000  0.5075480000000 1.0
C      1  0.4589460000000  0.5279140000000  0.4900090000000 1.0
C      1  0.5501440000000  0.4708800000000  0.4956310000000 1.0
C      1  0.5067460000000  0.5475300000000  0.4720190000000 1.0
C      1  0.5345950000000  0.5107460000000  0.4660520000000 1.0
C      1  0.5303750000000  0.5334980000000  0.4843370000000 1.0
C      1  0.4936490000000  0.4701220000000  0.4548920000000 1.0
C      1  0.4925830000000  0.5461660000000  0.5267240000000 1.0
C      1  0.5094960000000  0.4642960000000  0.5344620000000 1.0
C      1  0.4703930000000  0.4860440000000  0.4615090000000 1.0
C      1  0.4627080000000  0.5125970000000  0.5388270000000 1.0
C      1  0.5287280000000  0.4873130000000  0.5390600000000 1.0
C      1  0.4562380000000  0.4696550000000  0.4825890000000 1.0
C      1  0.4693190000000  0.5307790000000  0.5162950000000 1.0
C      1  0.5376140000000  0.4651830000000  0.5193530000000 1.0
C      1  0.4405530000000  0.4481120000000  0.5209160000000 1.0
C      1  0.5300600000000  0.4407870000000  0.4544350000000 1.0
C      1  0.4432810000000  0.5237080000000  0.4459280000000 1.0
C      1  0.5632840000000  0.5475300000000  0.5192180000000 1.0
C      1  0.5660020000000  0.4493100000000  0.4829390000000 1.0
C      1  0.4357360000000  0.5458000000000  0.4818920000000 1.0
C      1  0.4642610000000  0.5560830000000  0.4490600000000 1.0
C      1  0.4696560000000  0.4419440000000  0.5481340000000 1.0
C      1  0.5331460000000  0.5559260000000  0.5521640000000 1.0
C      1  0.5562720000000  0.4721450000000  0.4471350000000 1.0
C      1  0.5562780000000  0.5243010000000  0.5544110000000 1.0
C      1  0.4446300000000  0.4733610000000  0.5596100000000 1.0
C      1  0.4447390000000  0.4474830000000  0.4663890000000 1.0
C      1  0.5182070000000  0.4450010000000  0.5569530000000 1.0
C      1  0.4491060000000  0.5299090000000  0.5585450000000 1.0
C      1  0.5523860000000  0.5542290000000  0.4721180000000 1.0
C      1  0.5536350000000  0.4475860000000  0.5375200000000 1.0
C      1  0.4463380000000  0.5556990000000  0.5261600000000 1.0
C      1  0.4797490000000  0.5622650000000  0.5497430000000 1.0
C      1  0.4821290000000  0.4449130000000  0.4410800000000 1.0
C      1  0.5200360000000  0.5615760000000  0.4488310000000 1.0
C      1  0.5437280000000  0.4794090000000  0.5646970000000 1.0
C      1  0.5480860000000  0.5248780000000  0.4429520000000 1.0
C      1  0.4544820000000  0.4770480000000  0.4350360000000 1.0
C      1  0.5249190000000  0.4628690000000  0.5779990000000 1.0
C      1  0.5695780000000  0.5374700000000  0.4587480000000 1.0
C      1  0.4626310000000  0.5770170000000  0.5326330000000 1.0
C      1  0.4712630000000  0.5437320000000  0.5696020000000 1.0
C      1  0.4730430000000  0.4614770000000  0.4200230000000 1.0
C      1  0.5277820000000  0.5408200000000  0.4305920000000 1.0
C      1  0.4309020000000  0.4660100000000  0.4464940000000 1.0
C      1  0.4284870000000  0.5405160000000  0.5407660000000 1.0
C      1  0.5678470000000  0.4674320000000  0.5536670000000 1.0
C      1  0.5358170000000  0.4268510000000  0.5446510000000 1.0
C      1  0.5384790000000  0.5768810000000  0.4641730000000 1.0
C      1  0.4668410000000  0.4305970000000  0.4601890000000 1.0
C      1  0.5391690000000  0.4557320000000  0.4307960000000 1.0
C      1  0.5774140000000  0.5303480000000  0.5374960000000 1.0
C      1  0.4485470000000  0.5687530000000  0.4697310000000 1.0
C      1  0.4559210000000  0.5397410000000  0.4271430000000 1.0
C      1  0.4605260000000  0.4523550000000  0.5728030000000 1.0
C      1  0.5429010000000  0.5394130000000  0.5734540000000 1.0
C      1  0.4273120000000  0.4674110000000  0.5379050000000 1.0
C      1  0.4221480000000  0.5288350000000  0.4634890000000 1.0
C      1  0.5790380000000  0.4663060000000  0.4625180000000 1.0
C      1  0.5470850000000  0.4296120000000  0.4746820000000 1.0
C      1  0.5474070000000  0.5679170000000  0.5310590000000 1.0
C      1  0.4565020000000  0.4259270000000  0.5296210000000 1.0
C      1  0.4766940000000  0.5881200000000  0.5083530000000 1.0
C      1  0.5029640000000  0.4760430000000  0.5909370000000 1.0
C      1  0.5857700000000  0.5192610000000  0.4732030000000 1.0
C      1  0.5260840000000  0.4140910000000  0.5200540000000 1.0
C      1  0.5273360000000  0.5894920000000  0.4880580000000 1.0
C      1  0.4779050000000  0.4169530000000  0.4824990000000 1.0
C      1  0.4915700000000  0.5295310000000  0.5842700000000 1.0
C      1  0.4965200000000  0.4757840000000  0.4090270000000 1.0
C      1  0.5066310000000  0.5280980000000  0.4164460000000 1.0
C      1  0.4146190000000  0.4839580000000  0.4582790000000 1.0
C      1  0.4149870000000  0.5188560000000  0.5267590000000 1.0
C      1  0.5845630000000  0.4839250000000  0.5403210000000 1.0
C      1  0.4616040000000  0.5855850000000  0.4863270000000 1.0
C      1  0.5206490000000  0.4635750000000  0.4131330000000 1.0
C      1  0.5889960000000  0.5062520000000  0.5258060000000 1.0
C      1  0.5316850000000  0.4161370000000  0.4940710000000 1.0
C      1  0.5318610000000  0.5855150000000  0.5150740000000 1.0
C      1  0.4733790000000  0.4146320000000  0.5089320000000 1.0
C      1  0.4784580000000  0.5269150000000  0.4143970000000 1.0
C      1  0.4802020000000  0.4620900000000  0.5886670000000 1.0
C      1  0.5199500000000  0.5272620000000  0.5861510000000 1.0
C      1  0.4147920000000  0.4903320000000  0.5263250000000 1.0
C      1  0.4102820000000  0.5050980000000  0.4742360000000 1.0
C      1  0.5894100000000  0.4913680000000  0.4738510000000 1.0
C      1  0.5941220000000  0.5065320000000  0.4966990000000 1.0
C      1  0.5060870000000  0.5932740000000  0.5062620000000 1.0
C      1  0.4081380000000  0.5050450000000  0.5036480000000 1.0
C      1  0.5023240000000  0.4124990000000  0.5011240000000 1.0
C      1  0.5040930000000  0.5057440000000  0.5925010000000 1.0
C      1  0.4935170000000  0.5048200000000  0.4078270000000 1.0
END
