TITL C-25905-8066-9 -101.511861338439 125000 -569.644025422895 0 0 81 (C1) n - 1
REM
REM in /rds/project/t2_vol4/rds-t2-cs072/BORA/CARBON/from-Arr/AIRSS/Generating-Clusters/GAP-ML-2020/Higher-Symm/SD-CG/HFTN-CG
REM
REM
REM
REM
REM
REM ./C.cell (b20cbc046b6831c77cfcea5457e17084)
REM AIRSS Version 0.9.1 bugfix July 2018 build 013d7b7c2542+ Fri, 06 Jul 2018 19:26:36 +0100
REM compiler GCC version 9.3.0
REM options -cpp -mtune=generic -march=x86-64 -g -O0
REM seed 1883449734 1948518549 128160520 -1256542116 -553402647 -330722581 -1576486641 1894741077 1992120816 612212597 211663923 469734032 793114349 -492192469 1362471191 1245316473 -1514541665 -295149731 -937358207 1794385962 2095390520 2114451194 -410648926 -1060938770 1156153436 1512720830 430394056 -290366041 -1731663251 1783238126 2087191661 1534875495 -1330088543
REM
CELL 1.54180   50.00000   50.00000   50.00000   90.00000   90.00000   90.00000
LATT -1
SFAC C  
C      1  0.4435740000000  0.5407570000000  0.5339140000000 1.0
C      1  0.4940640000000  0.4769940000000  0.5644840000000 1.0
C      1  0.4994700000000  0.4233960000000  0.4813030000000 1.0
C      1  0.5807970000000  0.5208980000000  0.4946720000000 1.0
C      1  0.5673950000000  0.4542720000000  0.4871450000000 1.0
C      1  0.5406020000000  0.4620820000000  0.5524480000000 1.0
C      1  0.4916710000000  0.4371130000000  0.4564960000000 1.0
C      1  0.5431440000000  0.5691330000000  0.5257440000000 1.0
C      1  0.5240730000000  0.4978600000000  0.5086560000000 1.0
C      1  0.5163890000000  0.5501970000000  0.5626500000000 1.0
C      1  0.4623030000000  0.5573460000000  0.4922900000000 1.0
C      1  0.5697780000000  0.4586650000000  0.5153270000000 1.0
C      1  0.4850810000000  0.5361060000000  0.4527040000000 1.0
C      1  0.4907030000000  0.5609050000000  0.5523370000000 1.0
C      1  0.4542690000000  0.4863520000000  0.4972540000000 1.0
C      1  0.5104810000000  0.4548080000000  0.4442110000000 1.0
C      1  0.4939220000000  0.5026680000000  0.4174520000000 1.0
C      1  0.4611290000000  0.4527560000000  0.5360940000000 1.0
C      1  0.4518460000000  0.4863030000000  0.4407820000000 1.0
C      1  0.5281050000000  0.4306060000000  0.5201770000000 1.0
C      1  0.4763480000000  0.5086860000000  0.5000140000000 1.0
C      1  0.5027810000000  0.5824560000000  0.5376380000000 1.0
C      1  0.5495440000000  0.5595130000000  0.4811820000000 1.0
C      1  0.4966250000000  0.4903740000000  0.5107850000000 1.0
C      1  0.5723460000000  0.5049370000000  0.4719170000000 1.0
C      1  0.5097370000000  0.5405370000000  0.4971890000000 1.0
C      1  0.5228990000000  0.5025330000000  0.4594540000000 1.0
C      1  0.5018410000000  0.5857100000000  0.5083700000000 1.0
C      1  0.4261250000000  0.4937140000000  0.4870540000000 1.0
C      1  0.4182110000000  0.5089620000000  0.5129910000000 1.0
C      1  0.4546100000000  0.4992590000000  0.5523300000000 1.0
C      1  0.4772370000000  0.4240950000000  0.4997740000000 1.0
C      1  0.5110670000000  0.5324110000000  0.4665360000000 1.0
C      1  0.4234270000000  0.4656740000000  0.4758070000000 1.0
C      1  0.5240290000000  0.4830990000000  0.4830250000000 1.0
C      1  0.5403560000000  0.5426070000000  0.4612840000000 1.0
C      1  0.5283900000000  0.5724520000000  0.5486110000000 1.0
C      1  0.4364670000000  0.5514030000000  0.5083220000000 1.0
C      1  0.5501290000000  0.5161230000000  0.4572850000000 1.0
C      1  0.5705100000000  0.5479420000000  0.4972370000000 1.0
C      1  0.4730300000000  0.4695800000000  0.4777060000000 1.0
C      1  0.5810950000000  0.5100360000000  0.5218440000000 1.0
C      1  0.4985230000000  0.4691620000000  0.4919280000000 1.0
C      1  0.4608600000000  0.5459070000000  0.4645830000000 1.0
C      1  0.5683690000000  0.5285130000000  0.5402610000000 1.0
C      1  0.4798740000000  0.4330700000000  0.5268990000000 1.0
C      1  0.5505500000000  0.5137650000000  0.5584990000000 1.0
C      1  0.5747670000000  0.4834710000000  0.5299530000000 1.0
C      1  0.5565520000000  0.4859140000000  0.5527810000000 1.0
C      1  0.5258080000000  0.4254970000000  0.4919470000000 1.0
C      1  0.4668000000000  0.4730460000000  0.5550660000000 1.0
C      1  0.5655950000000  0.5528850000000  0.5250960000000 1.0
C      1  0.4342660000000  0.5140400000000  0.5368090000000 1.0
C      1  0.5567390000000  0.4689180000000  0.4464120000000 1.0
C      1  0.5460930000000  0.4378470000000  0.4762470000000 1.0
C      1  0.5237810000000  0.5226020000000  0.5666190000000 1.0
C      1  0.4440820000000  0.4623930000000  0.5161940000000 1.0
C      1  0.4998250000000  0.5054650000000  0.5667960000000 1.0
C      1  0.4329080000000  0.4467250000000  0.4956110000000 1.0
C      1  0.4756290000000  0.5170980000000  0.5570080000000 1.0
C      1  0.5039110000000  0.4857460000000  0.4400340000000 1.0
C      1  0.5057900000000  0.4363050000000  0.5372100000000 1.0
C      1  0.4212910000000  0.5200800000000  0.4726030000000 1.0
C      1  0.5379370000000  0.4494140000000  0.4504050000000 1.0
C      1  0.4531980000000  0.4295120000000  0.4853230000000 1.0
C      1  0.4388080000000  0.5314350000000  0.4532440000000 1.0
C      1  0.4775420000000  0.5822610000000  0.4961870000000 1.0
C      1  0.5127600000000  0.4568280000000  0.5563570000000 1.0
C      1  0.5270300000000  0.5688070000000  0.5005200000000 1.0
C      1  0.5494820000000  0.4458250000000  0.5305240000000 1.0
C      1  0.4174620000000  0.5338860000000  0.4976390000000 1.0
C      1  0.5720760000000  0.4762730000000  0.4680240000000 1.0
C      1  0.4772590000000  0.5129430000000  0.4710910000000 1.0
C      1  0.4735230000000  0.5415270000000  0.5395750000000 1.0
C      1  0.4810950000000  0.5371490000000  0.5088040000000 1.0
C      1  0.4495760000000  0.5133580000000  0.4330310000000 1.0
C      1  0.4774190000000  0.4881660000000  0.4562130000000 1.0
C      1  0.5278330000000  0.5240410000000  0.5114680000000 1.0
C      1  0.4393140000000  0.4626480000000  0.4521000000000 1.0
C      1  0.4625250000000  0.4441250000000  0.4618340000000 1.0
C      1  0.4775450000000  0.5220360000000  0.4266170000000 1.0
END
