TITL C-25927-8099-3 1156.22747755567 125000 -823.53128778939 0 0 113 (C3) n - 1
REM
REM in /rds/project/t2_vol4/rds-t2-cs072/BORA/CARBON/from-Arr/AIRSS/Generating-Clusters/GAP-ML-2020/Higher-Symm/SD-CG/HFTN-CG
REM
REM
REM
REM
REM
REM ./C.cell (b20cbc046b6831c77cfcea5457e17084)
REM AIRSS Version 0.9.1 bugfix July 2018 build 013d7b7c2542+ Fri, 06 Jul 2018 19:26:36 +0100
REM compiler GCC version 9.3.0
REM options -cpp -mtune=generic -march=x86-64 -g -O0
REM seed -1116890971 -1008910149 -54990229 -835662030 -1825115493 1696106729 -1748295104 1373731605 222893930 -382842397 -1294025568 -1380496379 -545896255 -1784514883 2092927581 1717858767 -1823436681 -360162503 1474480430 -1583787706 1910616912 -346171450 -1415527008 -2078290608 -1822592796 1892559936 -1415426905 -435192972 -841475126 1438848067 -741624975 248122911 1778154502
REM
CELL 1.54180   50.00000   50.00000   50.00000   90.00000   90.00000   90.00000
LATT -1
SFAC C  
C      1  0.4482000000000  0.5351770000000  0.4506730000000 1.0
C      1  0.4468170000000  0.5220430000000  0.5545080000000 1.0
C      1  0.4502480000000  0.4387160000000  0.4912560000000 1.0
C      1  0.4091630000000  0.4903190000000  0.5515370000000 1.0
C      1  0.4116240000000  0.4549590000000  0.4652290000000 1.0
C      1  0.4087930000000  0.5473800000000  0.4777160000000 1.0
C      1  0.4562200000000  0.5685010000000  0.5339380000000 1.0
C      1  0.4599040000000  0.4338690000000  0.5417850000000 1.0
C      1  0.4602250000000  0.4944470000000  0.4212400000000 1.0
C      1  0.4657040000000  0.5203250000000  0.4730320000000 1.0
C      1  0.4649940000000  0.5111150000000  0.5304860000000 1.0
C      1  0.4668940000000  0.4659790000000  0.4938040000000 1.0
C      1  0.4841760000000  0.4334850000000  0.5573820000000 1.0
C      1  0.4852240000000  0.4825360000000  0.4131350000000 1.0
C      1  0.4804440000000  0.5828790000000  0.5276890000000 1.0
C      1  0.5570480000000  0.4420020000000  0.4559870000000 1.0
C      1  0.5531590000000  0.5701390000000  0.4712250000000 1.0
C      1  0.5536030000000  0.4928240000000  0.5746100000000 1.0
C      1  0.4208390000000  0.5288240000000  0.4610790000000 1.0
C      1  0.4198430000000  0.5146500000000  0.5437830000000 1.0
C      1  0.4225780000000  0.4501380000000  0.4901880000000 1.0
C      1  0.4877310000000  0.5630580000000  0.4327960000000 1.0
C      1  0.4861680000000  0.5258550000000  0.5876220000000 1.0
C      1  0.4912920000000  0.4104230000000  0.4780470000000 1.0
C      1  0.4708860000000  0.4039750000000  0.4595420000000 1.0
C      1  0.4662560000000  0.5811120000000  0.4364390000000 1.0
C      1  0.4654120000000  0.5124730000000  0.6014250000000 1.0
C      1  0.5053920000000  0.5795450000000  0.5407570000000 1.0
C      1  0.5096430000000  0.4252710000000  0.5479840000000 1.0
C      1  0.5099520000000  0.4962150000000  0.4107340000000 1.0
C      1  0.5262460000000  0.5433960000000  0.5742470000000 1.0
C      1  0.5311260000000  0.4155290000000  0.4999550000000 1.0
C      1  0.5287350000000  0.5438380000000  0.4263060000000 1.0
C      1  0.5847890000000  0.4623580000000  0.4890740000000 1.0
C      1  0.5830710000000  0.5329540000000  0.4723510000000 1.0
C      1  0.5824860000000  0.5121060000000  0.5418590000000 1.0
C      1  0.5276170000000  0.4844070000000  0.5207750000000 1.0
C      1  0.5281860000000  0.4912760000000  0.4755700000000 1.0
C      1  0.5266920000000  0.5269770000000  0.5041030000000 1.0
C      1  0.4837690000000  0.5003950000000  0.4653790000000 1.0
C      1  0.4820930000000  0.5287060000000  0.5170590000000 1.0
C      1  0.4837850000000  0.4697940000000  0.5157650000000 1.0
C      1  0.5101930000000  0.5336820000000  0.4818010000000 1.0
C      1  0.5102190000000  0.4994090000000  0.5377110000000 1.0
C      1  0.5120790000000  0.4681520000000  0.4800900000000 1.0
C      1  0.4805280000000  0.5381430000000  0.4897820000000 1.0
C      1  0.4811250000000  0.4885870000000  0.5375660000000 1.0
C      1  0.4827240000000  0.4720150000000  0.4707650000000 1.0
C      1  0.4810090000000  0.5502170000000  0.5718750000000 1.0
C      1  0.4860350000000  0.4115950000000  0.5070140000000 1.0
C      1  0.4839590000000  0.5371210000000  0.4193360000000 1.0
C      1  0.4638010000000  0.5670180000000  0.4868980000000 1.0
C      1  0.4650850000000  0.4757230000000  0.5640060000000 1.0
C      1  0.4676710000000  0.4546490000000  0.4464000000000 1.0
C      1  0.5172870000000  0.4524150000000  0.4303790000000 1.0
C      1  0.5124760000000  0.5848210000000  0.4930070000000 1.0
C      1  0.5144810000000  0.4643400000000  0.5764160000000 1.0
C      1  0.5557740000000  0.4475640000000  0.5530670000000 1.0
C      1  0.5568820000000  0.4833340000000  0.4275440000000 1.0
C      1  0.5527250000000  0.5741120000000  0.5212380000000 1.0
C      1  0.5841410000000  0.4636510000000  0.5179510000000 1.0
C      1  0.5838990000000  0.5072990000000  0.4590450000000 1.0
C      1  0.5819360000000  0.5364580000000  0.5262830000000 1.0
C      1  0.5263400000000  0.4913720000000  0.5827220000000 1.0
C      1  0.5301950000000  0.4341550000000  0.4506550000000 1.0
C      1  0.5258650000000  0.5771310000000  0.4670690000000 1.0
C      1  0.5190860000000  0.4181260000000  0.4735860000000 1.0
C      1  0.5154710000000  0.5646600000000  0.4417190000000 1.0
C      1  0.5143530000000  0.5189230000000  0.5845740000000 1.0
C      1  0.5550320000000  0.5358710000000  0.4339680000000 1.0
C      1  0.5526610000000  0.5422460000000  0.5635390000000 1.0
C      1  0.5569330000000  0.4268720000000  0.5043290000000 1.0
C      1  0.4161080000000  0.5015950000000  0.4699390000000 1.0
C      1  0.4148030000000  0.5203000000000  0.5157660000000 1.0
C      1  0.4163060000000  0.4712630000000  0.5090750000000 1.0
C      1  0.4229000000000  0.4782870000000  0.4540150000000 1.0
C      1  0.4201410000000  0.5460850000000  0.5035350000000 1.0
C      1  0.4217430000000  0.4692830000000  0.5375260000000 1.0
C      1  0.5671930000000  0.4725860000000  0.5602520000000 1.0
C      1  0.5693370000000  0.4652910000000  0.4456390000000 1.0
C      1  0.5655600000000  0.5681740000000  0.4965780000000 1.0
C      1  0.5287240000000  0.4433990000000  0.5616120000000 1.0
C      1  0.5301860000000  0.4764770000000  0.4196450000000 1.0
C      1  0.5254880000000  0.5828390000000  0.5192230000000 1.0
C      1  0.4430690000000  0.5631930000000  0.5086560000000 1.0
C      1  0.4453650000000  0.4576300000000  0.5498070000000 1.0
C      1  0.4467710000000  0.4748280000000  0.4378050000000 1.0
C      1  0.5106980000000  0.4134110000000  0.5210290000000 1.0
C      1  0.5093310000000  0.5255020000000  0.4139270000000 1.0
C      1  0.5057470000000  0.5621400000000  0.5645330000000 1.0
C      1  0.5839460000000  0.4835970000000  0.5389210000000 1.0
C      1  0.5853060000000  0.4792030000000  0.4658470000000 1.0
C      1  0.5828970000000  0.5446700000000  0.4985470000000 1.0
C      1  0.5098790000000  0.5102020000000  0.4662010000000 1.0
C      1  0.5084740000000  0.5245940000000  0.5251640000000 1.0
C      1  0.5104130000000  0.4663410000000  0.5081750000000 1.0
C      1  0.4844260000000  0.5849000000000  0.4992670000000 1.0
C      1  0.4867910000000  0.4572850000000  0.5733340000000 1.0
C      1  0.4892930000000  0.4570180000000  0.4257850000000 1.0
C      1  0.5685540000000  0.4394770000000  0.4817780000000 1.0
C      1  0.5658610000000  0.5497500000000  0.4561620000000 1.0
C      1  0.5649660000000  0.5167470000000  0.5644840000000 1.0
C      1  0.4568880000000  0.5509390000000  0.5569930000000 1.0
C      1  0.4612310000000  0.4227280000000  0.5150540000000 1.0
C      1  0.4599070000000  0.5231980000000  0.4249440000000 1.0
C      1  0.4609080000000  0.4293540000000  0.4635120000000 1.0
C      1  0.4571990000000  0.5644500000000  0.4564330000000 1.0
C      1  0.4569030000000  0.5029750000000  0.5769960000000 1.0
C      1  0.5673610000000  0.4416160000000  0.5270220000000 1.0
C      1  0.5669850000000  0.5094860000000  0.4354110000000 1.0
C      1  0.5639320000000  0.5548400000000  0.5399720000000 1.0
C      1  0.5388940000000  0.5012100000000  0.5003420000000 1.0
C      1  0.4129780000000  0.4976410000000  0.4982130000000 1.0
END
