TITL C-25857-4225-5 128.736327683313 125000 -894.819482579072 0 0 127 (C1) n - 1
REM
REM in /rds/project/t2_vol4/rds-t2-cs072/BORA/CARBON/from-Arr/AIRSS/Generating-Clusters/GAP-ML-2020/Higher-Symm/SD-CG/HFTN-CG
REM
REM
REM
REM
REM
REM ./C.cell (b20cbc046b6831c77cfcea5457e17084)
REM AIRSS Version 0.9.1 bugfix July 2018 build 013d7b7c2542+ Fri, 06 Jul 2018 19:26:36 +0100
REM compiler GCC version 9.3.0
REM options -cpp -mtune=generic -march=x86-64 -g -O0
REM seed 353257422 948262156 610126411 171462281 956788467 1842933533 942057686 1356337398 -83839631 1607700185 2005965899 -974737656 -1041466259 -390461863 -1916830530 159868555 558360116 -460793580 -2029201242 -1990231948 -1986917635 1527240356 -259536867 -531319194 650436479 -165936216 -967380174 2019295473 -1866200644 -425061406 -847271874 -2106226977 628859621
REM
CELL 1.54180   50.00000   50.00000   50.00000   90.00000   90.00000   90.00000
LATT -1
SFAC C  
C      1  0.5009480000000  0.5186360000000  0.5815810000000 1.0
C      1  0.5926030000000  0.4759890000000  0.4731700000000 1.0
C      1  0.5223580000000  0.4637050000000  0.5873420000000 1.0
C      1  0.5305840000000  0.5638610000000  0.4474960000000 1.0
C      1  0.5102810000000  0.4036340000000  0.4786870000000 1.0
C      1  0.5763890000000  0.5332360000000  0.5361470000000 1.0
C      1  0.5415470000000  0.5876000000000  0.4904090000000 1.0
C      1  0.4428930000000  0.4230230000000  0.4984670000000 1.0
C      1  0.4988070000000  0.4716650000000  0.5973560000000 1.0
C      1  0.4756170000000  0.5176410000000  0.4636330000000 1.0
C      1  0.5261200000000  0.5362590000000  0.5464400000000 1.0
C      1  0.5803100000000  0.5453520000000  0.4913790000000 1.0
C      1  0.4690090000000  0.5939540000000  0.4712090000000 1.0
C      1  0.4639150000000  0.4799430000000  0.5258480000000 1.0
C      1  0.4839530000000  0.4435010000000  0.4216500000000 1.0
C      1  0.4183760000000  0.5276070000000  0.4622350000000 1.0
C      1  0.5640940000000  0.4404060000000  0.5415110000000 1.0
C      1  0.5856110000000  0.4782990000000  0.5214910000000 1.0
C      1  0.5201360000000  0.4757080000000  0.4856990000000 1.0
C      1  0.5244400000000  0.5645830000000  0.5538360000000 1.0
C      1  0.5411330000000  0.4835630000000  0.5746800000000 1.0
C      1  0.5696700000000  0.5170130000000  0.5590780000000 1.0
C      1  0.4934130000000  0.6000020000000  0.5103510000000 1.0
C      1  0.5160780000000  0.4946940000000  0.4612650000000 1.0
C      1  0.4711250000000  0.5847880000000  0.4995340000000 1.0
C      1  0.5548400000000  0.5057600000000  0.4771530000000 1.0
C      1  0.4776010000000  0.4713990000000  0.4760940000000 1.0
C      1  0.5421610000000  0.5808730000000  0.5409500000000 1.0
C      1  0.4734170000000  0.4793970000000  0.5898530000000 1.0
C      1  0.5553840000000  0.4846720000000  0.5205220000000 1.0
C      1  0.4137170000000  0.4807340000000  0.4875970000000 1.0
C      1  0.5305950000000  0.5092980000000  0.5833340000000 1.0
C      1  0.4363610000000  0.5039790000000  0.5565780000000 1.0
C      1  0.4934490000000  0.4281440000000  0.5683100000000 1.0
C      1  0.5691020000000  0.5529840000000  0.4663690000000 1.0
C      1  0.4238610000000  0.5363990000000  0.5156320000000 1.0
C      1  0.4963310000000  0.4472000000000  0.5147620000000 1.0
C      1  0.5081060000000  0.4888240000000  0.5367350000000 1.0
C      1  0.4479060000000  0.5612490000000  0.4409780000000 1.0
C      1  0.4775650000000  0.5285120000000  0.5352370000000 1.0
C      1  0.4366750000000  0.4649350000000  0.5304860000000 1.0
C      1  0.4195730000000  0.5439830000000  0.4867080000000 1.0
C      1  0.4339620000000  0.5362850000000  0.4387310000000 1.0
C      1  0.4523720000000  0.5224990000000  0.5717050000000 1.0
C      1  0.4653540000000  0.4366280000000  0.5688120000000 1.0
C      1  0.5247540000000  0.5190530000000  0.4196720000000 1.0
C      1  0.4747600000000  0.4886560000000  0.4998170000000 1.0
C      1  0.4849910000000  0.4907790000000  0.4076770000000 1.0
C      1  0.5367580000000  0.4454250000000  0.4302620000000 1.0
C      1  0.5528470000000  0.4174830000000  0.4985140000000 1.0
C      1  0.4747380000000  0.5989540000000  0.5542390000000 1.0
C      1  0.5746370000000  0.5569500000000  0.5168420000000 1.0
C      1  0.4564020000000  0.5063010000000  0.5347060000000 1.0
C      1  0.4247180000000  0.4767900000000  0.4476780000000 1.0
C      1  0.4429340000000  0.4716330000000  0.4262290000000 1.0
C      1  0.5137530000000  0.5981060000000  0.4886570000000 1.0
C      1  0.5019900000000  0.5667360000000  0.5728480000000 1.0
C      1  0.4881640000000  0.4673860000000  0.5359530000000 1.0
C      1  0.5144310000000  0.5212470000000  0.5018920000000 1.0
C      1  0.4595910000000  0.5481980000000  0.5516660000000 1.0
C      1  0.5351610000000  0.5300900000000  0.5193690000000 1.0
C      1  0.4879270000000  0.5454670000000  0.4602810000000 1.0
C      1  0.5262050000000  0.5197360000000  0.4749330000000 1.0
C      1  0.5132320000000  0.4264780000000  0.5254760000000 1.0
C      1  0.5548420000000  0.5789840000000  0.5169560000000 1.0
C      1  0.5333560000000  0.4433650000000  0.5456850000000 1.0
C      1  0.4561810000000  0.4467700000000  0.4287300000000 1.0
C      1  0.4360400000000  0.4744910000000  0.5593300000000 1.0
C      1  0.4897240000000  0.4167290000000  0.5423340000000 1.0
C      1  0.4939190000000  0.4209510000000  0.4375440000000 1.0
C      1  0.4977960000000  0.5167610000000  0.4101950000000 1.0
C      1  0.4755770000000  0.5345160000000  0.4156860000000 1.0
C      1  0.5157480000000  0.5441790000000  0.4612220000000 1.0
C      1  0.5634160000000  0.5041310000000  0.4472750000000 1.0
C      1  0.4208320000000  0.4585220000000  0.4697340000000 1.0
C      1  0.4813670000000  0.4010960000000  0.4772800000000 1.0
C      1  0.4962000000000  0.5968530000000  0.4658940000000 1.0
C      1  0.5491900000000  0.4780670000000  0.4914590000000 1.0
C      1  0.5346290000000  0.4757640000000  0.5424580000000 1.0
C      1  0.4889520000000  0.6103680000000  0.5358930000000 1.0
C      1  0.5267780000000  0.4685060000000  0.4208010000000 1.0
C      1  0.4988540000000  0.4552360000000  0.4868610000000 1.0
C      1  0.5603350000000  0.5146790000000  0.5198800000000 1.0
C      1  0.4720270000000  0.4111440000000  0.4524520000000 1.0
C      1  0.5678840000000  0.4225570000000  0.5218760000000 1.0
C      1  0.5944160000000  0.4912850000000  0.4974870000000 1.0
C      1  0.4544240000000  0.4618670000000  0.5765310000000 1.0
C      1  0.4866360000000  0.5345850000000  0.5058870000000 1.0
C      1  0.4506870000000  0.5207480000000  0.4195710000000 1.0
C      1  0.5018610000000  0.5179120000000  0.5497120000000 1.0
C      1  0.4459560000000  0.5796420000000  0.4616780000000 1.0
C      1  0.4159730000000  0.4992950000000  0.4644300000000 1.0
C      1  0.4202790000000  0.4842010000000  0.5149550000000 1.0
C      1  0.4753630000000  0.5555320000000  0.4344150000000 1.0
C      1  0.4397970000000  0.5561160000000  0.5290070000000 1.0
C      1  0.5767410000000  0.5159420000000  0.4948200000000 1.0
C      1  0.5448980000000  0.5273910000000  0.5681160000000 1.0
C      1  0.5693210000000  0.4879470000000  0.5652830000000 1.0
C      1  0.5182610000000  0.4405510000000  0.5711510000000 1.0
C      1  0.4871110000000  0.4924430000000  0.4575710000000 1.0
C      1  0.5402480000000  0.5422170000000  0.4304780000000 1.0
C      1  0.5633760000000  0.5342910000000  0.4441510000000 1.0
C      1  0.5017500000000  0.5458860000000  0.5892450000000 1.0
C      1  0.5342790000000  0.4948720000000  0.4343490000000 1.0
C      1  0.5803270000000  0.4668050000000  0.5456840000000 1.0
C      1  0.4562940000000  0.4934210000000  0.4136820000000 1.0
C      1  0.5691000000000  0.4583590000000  0.4801350000000 1.0
C      1  0.4314680000000  0.5694970000000  0.4844550000000 1.0
C      1  0.4493610000000  0.4277660000000  0.4492600000000 1.0
C      1  0.5497580000000  0.5734950000000  0.4668030000000 1.0
C      1  0.4626550000000  0.4041430000000  0.4962870000000 1.0
C      1  0.5425510000000  0.4281320000000  0.4504840000000 1.0
C      1  0.4751370000000  0.5720860000000  0.5623960000000 1.0
C      1  0.5885740000000  0.4893310000000  0.4496970000000 1.0
C      1  0.5177720000000  0.4140500000000  0.4528160000000 1.0
C      1  0.4990640000000  0.4664470000000  0.4122190000000 1.0
C      1  0.4853360000000  0.5571500000000  0.4879560000000 1.0
C      1  0.4337650000000  0.4339210000000  0.4725670000000 1.0
C      1  0.4270530000000  0.5097150000000  0.5267640000000 1.0
C      1  0.4448400000000  0.5762590000000  0.5091290000000 1.0
C      1  0.5253430000000  0.4106900000000  0.5017530000000 1.0
C      1  0.5591450000000  0.4322500000000  0.4741190000000 1.0
C      1  0.5064020000000  0.4934080000000  0.5073630000000 1.0
C      1  0.4732200000000  0.5076910000000  0.5855080000000 1.0
C      1  0.4418090000000  0.4352810000000  0.5249090000000 1.0
C      1  0.4697000000000  0.5154170000000  0.4907780000000 1.0
C      1  0.4605680000000  0.4244070000000  0.5431090000000 1.0
END
