TITL C-25642-14-10 -0.201517369384828 125000 -240.697847631918 0 0 37 (D2) n - 1
REM
REM in /rds/project/t2_vol4/rds-t2-cs072/BORA/CARBON/from-Arr/AIRSS/Generating-Clusters/GAP-ML-2020/Higher-Symm/SD-CG/HFTN-CG
REM
REM
REM
REM
REM
REM ./C.cell (b20cbc046b6831c77cfcea5457e17084)
REM AIRSS Version 0.9.1 bugfix July 2018 build 013d7b7c2542+ Fri, 06 Jul 2018 19:26:36 +0100
REM compiler GCC version 9.3.0
REM options -cpp -mtune=generic -march=x86-64 -g -O0
REM seed -2135778153 1832140786 663154743 2030378622 1011371735 -1641592155 -341998532 1674035711 -914898570 1520007014 -1269753640 -870803146 810479375 -1893737839 -1437051912 1824742178 -1907360980 700101486 306384447 -788376004 1529853485 -1235102289 20128738 -1117903321 -2016916345 1036536035 72137917 153933079 -38131130 310805728 -2044168871 -1564975105 -1612680350
REM
CELL 1.54180   50.00000   50.00000   50.00000   90.00000   90.00000   90.00000
LATT -1
SFAC C  
C      1  0.4572530000000  0.4391710000000  0.4882370000000 1.0
C      1  0.5456030000000  0.4392580000000  0.5116360000000 1.0
C      1  0.4571260000000  0.5596760000000  0.5116510000000 1.0
C      1  0.5454800000000  0.5597720000000  0.4882630000000 1.0
C      1  0.5278790000000  0.4449300000000  0.5613050000000 1.0
C      1  0.4749650000000  0.4448950000000  0.4385700000000 1.0
C      1  0.5277740000000  0.5540640000000  0.4385920000000 1.0
C      1  0.4748440000000  0.5539880000000  0.5613200000000 1.0
C      1  0.4651610000000  0.5488710000000  0.5351350000000 1.0
C      1  0.5374670000000  0.5489580000000  0.4647740000000 1.0
C      1  0.4652680000000  0.4499930000000  0.4647530000000 1.0
C      1  0.5375660000000  0.4500560000000  0.5351240000000 1.0
C      1  0.4853850000000  0.4620360000000  0.5253480000000 1.0
C      1  0.5174240000000  0.4620770000000  0.4745330000000 1.0
C      1  0.4853100000000  0.5368700000000  0.4745430000000 1.0
C      1  0.5173430000000  0.5368950000000  0.5253630000000 1.0
C      1  0.4709290000000  0.5486200000000  0.4913950000000 1.0
C      1  0.5317010000000  0.5486800000000  0.5085150000000 1.0
C      1  0.4710300000000  0.4502560000000  0.5084950000000 1.0
C      1  0.5318040000000  0.4503220000000  0.4913820000000 1.0
C      1  0.5207260000000  0.4723310000000  0.5671860000000 1.0
C      1  0.4820610000000  0.4723130000000  0.4326980000000 1.0
C      1  0.5206780000000  0.5266480000000  0.4327090000000 1.0
C      1  0.4819960000000  0.5265850000000  0.5671930000000 1.0
C      1  0.5281560000000  0.5208440000000  0.4605860000000 1.0
C      1  0.4745310000000  0.5207750000000  0.5393150000000 1.0
C      1  0.5281950000000  0.4781510000000  0.5393110000000 1.0
C      1  0.4745810000000  0.4781080000000  0.4605750000000 1.0
C      1  0.4943350000000  0.4888930000000  0.4153360000000 1.0
C      1  0.5084180000000  0.4888800000000  0.5845540000000 1.0
C      1  0.4943020000000  0.5100310000000  0.5845570000000 1.0
C      1  0.5084070000000  0.5100740000000  0.4153400000000 1.0
C      1  0.4976890000000  0.4834650000000  0.4757780000000 1.0
C      1  0.5050760000000  0.4834640000000  0.5241100000000 1.0
C      1  0.4976520000000  0.5154660000000  0.5241150000000 1.0
C      1  0.5050460000000  0.5154820000000  0.4757840000000 1.0
C      1  0.5013660000000  0.4994690000000  0.4999470000000 1.0
END
