TITL C-25628-115-10 0.161342840072592 125000 -711.670291268081 0 0 103 (C1) n - 1
REM
REM in /rds/project/t2_vol4/rds-t2-cs072/BORA/CARBON/from-Arr/AIRSS/Generating-Clusters/GAP-ML-2020/Higher-Symm/SD-CG/HFTN-CG
REM
REM
REM
REM
REM
REM ./C.cell (b20cbc046b6831c77cfcea5457e17084)
REM AIRSS Version 0.9.1 bugfix July 2018 build 013d7b7c2542+ Fri, 06 Jul 2018 19:26:36 +0100
REM compiler GCC version 9.3.0
REM options -cpp -mtune=generic -march=x86-64 -g -O0
REM seed -871595724 -2086453623 -1180096077 -152644933 -271169013 -725523363 258239300 780396314 1277812938 358387956 -1386271316 2005108138 47842320 -1304109895 -575948608 1546562395 -450579962 159587453 861883222 1979365546 -535231927 1074473007 142304373 -448015134 -1023017222 -828327105 1389474198 -1634459289 1314833748 -449230769 -314678748 1300830071 -153234075
REM
CELL 1.54180   50.00000   50.00000   50.00000   90.00000   90.00000   90.00000
LATT -1
SFAC C  
C      1  0.4866690000000  0.5782810000000  0.4852630000000 1.0
C      1  0.4196780000000  0.4534650000000  0.5257850000000 1.0
C      1  0.5247820000000  0.4422430000000  0.5509410000000 1.0
C      1  0.4757500000000  0.5616760000000  0.5587630000000 1.0
C      1  0.5687240000000  0.5030900000000  0.5527630000000 1.0
C      1  0.5123160000000  0.5823730000000  0.4746860000000 1.0
C      1  0.4128150000000  0.4891940000000  0.4646810000000 1.0
C      1  0.5074310000000  0.4252440000000  0.4776370000000 1.0
C      1  0.5824650000000  0.5109900000000  0.4407400000000 1.0
C      1  0.5945290000000  0.5018910000000  0.5118030000000 1.0
C      1  0.6014820000000  0.5107360000000  0.4584410000000 1.0
C      1  0.5331160000000  0.5252130000000  0.4415330000000 1.0
C      1  0.4190130000000  0.4590390000000  0.4984710000000 1.0
C      1  0.5540920000000  0.4364890000000  0.4639050000000 1.0
C      1  0.4302620000000  0.5391490000000  0.5268660000000 1.0
C      1  0.5322960000000  0.5741820000000  0.4924290000000 1.0
C      1  0.4502190000000  0.4806040000000  0.4394920000000 1.0
C      1  0.4119350000000  0.4996970000000  0.5377220000000 1.0
C      1  0.5141760000000  0.4436100000000  0.4347280000000 1.0
C      1  0.5389800000000  0.5767610000000  0.4350010000000 1.0
C      1  0.5550060000000  0.5060390000000  0.4406100000000 1.0
C      1  0.4699690000000  0.5659990000000  0.4642480000000 1.0
C      1  0.5276950000000  0.5081310000000  0.5821150000000 1.0
C      1  0.5095760000000  0.4226320000000  0.5099130000000 1.0
C      1  0.4451730000000  0.5550070000000  0.4678600000000 1.0
C      1  0.5849530000000  0.4749030000000  0.5101840000000 1.0
C      1  0.4719340000000  0.4963680000000  0.5297500000000 1.0
C      1  0.4610560000000  0.5255160000000  0.4266200000000 1.0
C      1  0.5321490000000  0.4291560000000  0.5267370000000 1.0
C      1  0.4567400000000  0.5480950000000  0.5260180000000 1.0
C      1  0.4812910000000  0.4263610000000  0.4644570000000 1.0
C      1  0.5264940000000  0.4675570000000  0.4236510000000 1.0
C      1  0.5161540000000  0.5294590000000  0.4672950000000 1.0
C      1  0.5686270000000  0.5565040000000  0.5029250000000 1.0
C      1  0.4891600000000  0.5598090000000  0.4414650000000 1.0
C      1  0.5385390000000  0.4648430000000  0.5628670000000 1.0
C      1  0.4920180000000  0.4715880000000  0.5659550000000 1.0
C      1  0.5176330000000  0.4553300000000  0.4839980000000 1.0
C      1  0.4221990000000  0.5147350000000  0.4563660000000 1.0
C      1  0.5510150000000  0.5542120000000  0.4802200000000 1.0
C      1  0.5823430000000  0.5176210000000  0.5322300000000 1.0
C      1  0.4656840000000  0.4854070000000  0.5594970000000 1.0
C      1  0.5450960000000  0.4786080000000  0.4452360000000 1.0
C      1  0.4527840000000  0.4123080000000  0.5004040000000 1.0
C      1  0.4994120000000  0.4937290000000  0.4560590000000 1.0
C      1  0.5277820000000  0.4915190000000  0.5189210000000 1.0
C      1  0.4405400000000  0.4527640000000  0.4778450000000 1.0
C      1  0.4507050000000  0.5154000000000  0.5668820000000 1.0
C      1  0.4441390000000  0.4655860000000  0.5565660000000 1.0
C      1  0.4160760000000  0.5307520000000  0.5030050000000 1.0
C      1  0.4551020000000  0.4256970000000  0.4765050000000 1.0
C      1  0.4431120000000  0.5082380000000  0.4357630000000 1.0
C      1  0.4623950000000  0.4990090000000  0.4842670000000 1.0
C      1  0.5633870000000  0.4747520000000  0.5525570000000 1.0
C      1  0.4901370000000  0.5757330000000  0.5135030000000 1.0
C      1  0.4787100000000  0.5254210000000  0.5283630000000 1.0
C      1  0.5267170000000  0.5174260000000  0.5360550000000 1.0
C      1  0.5139340000000  0.5229540000000  0.6011010000000 1.0
C      1  0.5461650000000  0.5196880000000  0.5602360000000 1.0
C      1  0.5482030000000  0.4423840000000  0.4903180000000 1.0
C      1  0.4047840000000  0.5052010000000  0.5097280000000 1.0
C      1  0.5084170000000  0.5120030000000  0.4290710000000 1.0
C      1  0.4990520000000  0.4890950000000  0.5148100000000 1.0
C      1  0.4188320000000  0.4744700000000  0.5454560000000 1.0
C      1  0.5208220000000  0.5336260000000  0.5114360000000 1.0
C      1  0.4866190000000  0.5340610000000  0.4274210000000 1.0
C      1  0.4683570000000  0.4702920000000  0.4809460000000 1.0
C      1  0.4698700000000  0.5716620000000  0.5330420000000 1.0
C      1  0.4968810000000  0.5323130000000  0.5808120000000 1.0
C      1  0.4928840000000  0.4641460000000  0.5000220000000 1.0
C      1  0.4516170000000  0.4964190000000  0.5094970000000 1.0
C      1  0.4866270000000  0.4450530000000  0.4432600000000 1.0
C      1  0.5138890000000  0.5742030000000  0.4471430000000 1.0
C      1  0.4287830000000  0.5197550000000  0.5481820000000 1.0
C      1  0.4255260000000  0.5370980000000  0.4753820000000 1.0
C      1  0.4879970000000  0.4391440000000  0.5221130000000 1.0
C      1  0.5502110000000  0.5467640000000  0.5488120000000 1.0
C      1  0.5274350000000  0.5641500000000  0.5459810000000 1.0
C      1  0.5366050000000  0.5266050000000  0.4874550000000 1.0
C      1  0.5144920000000  0.4892970000000  0.4123760000000 1.0
C      1  0.5405700000000  0.4960950000000  0.4907890000000 1.0
C      1  0.5725160000000  0.4600060000000  0.5300840000000 1.0
C      1  0.4954080000000  0.5194840000000  0.5038970000000 1.0
C      1  0.5043460000000  0.5550180000000  0.5609510000000 1.0
C      1  0.5641580000000  0.4626250000000  0.4609020000000 1.0
C      1  0.5455340000000  0.5543450000000  0.4489770000000 1.0
C      1  0.4428970000000  0.4420580000000  0.5389160000000 1.0
C      1  0.4770700000000  0.4718170000000  0.4504640000000 1.0
C      1  0.5240940000000  0.4808970000000  0.4685400000000 1.0
C      1  0.5564150000000  0.4401800000000  0.5166160000000 1.0
C      1  0.4676200000000  0.5368640000000  0.5741470000000 1.0
C      1  0.5697000000000  0.4819900000000  0.4843850000000 1.0
C      1  0.5182530000000  0.5657290000000  0.5174110000000 1.0
C      1  0.5901360000000  0.5035910000000  0.4830250000000 1.0
C      1  0.5697500000000  0.5440850000000  0.5273850000000 1.0
C      1  0.4974520000000  0.4471830000000  0.5504910000000 1.0
C      1  0.4302600000000  0.4687590000000  0.4549600000000 1.0
C      1  0.4058840000000  0.4835510000000  0.4913770000000 1.0
C      1  0.4604450000000  0.4279260000000  0.5221720000000 1.0
C      1  0.5186060000000  0.4815100000000  0.5737010000000 1.0
C      1  0.5277890000000  0.4284170000000  0.4541310000000 1.0
C      1  0.4894330000000  0.5139080000000  0.4759110000000 1.0
C      1  0.5014290000000  0.5274370000000  0.5476020000000 1.0
END
