TITL C-25846-2949-7 150.025178766598 125000 -889.90154424765 0 0 126 (C1) n - 1
REM
REM in /rds/project/t2_vol4/rds-t2-cs072/BORA/CARBON/from-Arr/AIRSS/Generating-Clusters/GAP-ML-2020/Higher-Symm/SD-CG/HFTN-CG
REM
REM
REM
REM
REM
REM ./C.cell (b20cbc046b6831c77cfcea5457e17084)
REM AIRSS Version 0.9.1 bugfix July 2018 build 013d7b7c2542+ Fri, 06 Jul 2018 19:26:36 +0100
REM compiler GCC version 9.3.0
REM options -cpp -mtune=generic -march=x86-64 -g -O0
REM seed -1649325995 -832221180 1834871334 -1397233288 1031470567 -336979044 275599825 1672148115 126599658 67281748 -1894218466 -863672200 -1370323065 1448175555 803941692 1352957924 -1694310613 -1337057792 152368254 1168174602 -1256918061 -277488441 820799571 1982578982 717939438 741403364 -121917786 -1395439635 738750717 2117805800 1372359479 415494918 350729110
REM
CELL 1.54180   50.00000   50.00000   50.00000   90.00000   90.00000   90.00000
LATT -1
SFAC C  
C      1  0.5130700000000  0.4517790000000  0.4642600000000 1.0
C      1  0.4843910000000  0.4616810000000  0.4650270000000 1.0
C      1  0.4815570000000  0.4890670000000  0.4592660000000 1.0
C      1  0.4614550000000  0.5033120000000  0.4722890000000 1.0
C      1  0.4601890000000  0.5314440000000  0.4682630000000 1.0
C      1  0.4840060000000  0.5387800000000  0.4823290000000 1.0
C      1  0.5069990000000  0.5494520000000  0.4704420000000 1.0
C      1  0.5317070000000  0.5362870000000  0.4786780000000 1.0
C      1  0.5540020000000  0.5148600000000  0.4740640000000 1.0
C      1  0.5510130000000  0.4844530000000  0.4713110000000 1.0
C      1  0.5269460000000  0.4763480000000  0.4572280000000 1.0
C      1  0.5726340000000  0.4433510000000  0.5335640000000 1.0
C      1  0.5307450000000  0.4219200000000  0.5411400000000 1.0
C      1  0.4789470000000  0.4223920000000  0.5367990000000 1.0
C      1  0.4379360000000  0.4445370000000  0.5280350000000 1.0
C      1  0.4147460000000  0.4837350000000  0.5364360000000 1.0
C      1  0.4179700000000  0.5296900000000  0.5294610000000 1.0
C      1  0.4471430000000  0.5659050000000  0.5398440000000 1.0
C      1  0.4919970000000  0.5878530000000  0.5369620000000 1.0
C      1  0.5411130000000  0.5761510000000  0.5395200000000 1.0
C      1  0.5740080000000  0.5414490000000  0.5349540000000 1.0
C      1  0.5824650000000  0.4891940000000  0.5399250000000 1.0
C      1  0.5533590000000  0.4240350000000  0.5225730000000 1.0
C      1  0.5060040000000  0.4137980000000  0.5284420000000 1.0
C      1  0.4528250000000  0.4208470000000  0.5218310000000 1.0
C      1  0.4155880000000  0.4598680000000  0.5198630000000 1.0
C      1  0.4050340000000  0.5059630000000  0.5205440000000 1.0
C      1  0.4255870000000  0.5566030000000  0.5226280000000 1.0
C      1  0.4643560000000  0.5850430000000  0.5257580000000 1.0
C      1  0.5191210000000  0.5879760000000  0.5248390000000 1.0
C      1  0.5614060000000  0.5646240000000  0.5225430000000 1.0
C      1  0.5796050000000  0.5142840000000  0.5228030000000 1.0
C      1  0.5872240000000  0.4665020000000  0.5231900000000 1.0
C      1  0.4573340000000  0.4644930000000  0.5383350000000 1.0
C      1  0.4406250000000  0.4892090000000  0.5518870000000 1.0
C      1  0.4436230000000  0.5196920000000  0.5418540000000 1.0
C      1  0.4538760000000  0.5442580000000  0.5574600000000 1.0
C      1  0.4953100000000  0.5763610000000  0.5615970000000 1.0
C      1  0.5428240000000  0.5629810000000  0.5637840000000 1.0
C      1  0.5628690000000  0.5418780000000  0.5610530000000 1.0
C      1  0.5676420000000  0.4805210000000  0.5626410000000 1.0
C      1  0.5618780000000  0.4524260000000  0.5583140000000 1.0
C      1  0.5367880000000  0.4393590000000  0.5635690000000 1.0
C      1  0.4749850000000  0.4446230000000  0.5539200000000 1.0
C      1  0.5957010000000  0.5051890000000  0.4983820000000 1.0
C      1  0.5928450000000  0.4764840000000  0.4971890000000 1.0
C      1  0.5443580000000  0.4173920000000  0.4962440000000 1.0
C      1  0.5141870000000  0.4156840000000  0.4990540000000 1.0
C      1  0.4473890000000  0.4095800000000  0.4976990000000 1.0
C      1  0.4074750000000  0.4674560000000  0.4926890000000 1.0
C      1  0.4000560000000  0.4954610000000  0.4935040000000 1.0
C      1  0.4312250000000  0.5669670000000  0.4969260000000 1.0
C      1  0.4535600000000  0.5849930000000  0.4981600000000 1.0
C      1  0.5286930000000  0.5857170000000  0.4976680000000 1.0
C      1  0.5547380000000  0.5729510000000  0.4962080000000 1.0
C      1  0.5974240000000  0.4908100000000  0.4566360000000 1.0
C      1  0.5685220000000  0.4449010000000  0.4583950000000 1.0
C      1  0.5233020000000  0.4241980000000  0.4560130000000 1.0
C      1  0.4764530000000  0.4061200000000  0.4627800000000 1.0
C      1  0.4352010000000  0.4385880000000  0.4564490000000 1.0
C      1  0.4133060000000  0.4847740000000  0.4510380000000 1.0
C      1  0.4116120000000  0.5337530000000  0.4596220000000 1.0
C      1  0.4468480000000  0.5717980000000  0.4541380000000 1.0
C      1  0.4900080000000  0.5945970000000  0.4614220000000 1.0
C      1  0.5379800000000  0.5745290000000  0.4537940000000 1.0
C      1  0.5726200000000  0.5336570000000  0.4606440000000 1.0
C      1  0.4897240000000  0.4555740000000  0.5746730000000 1.0
C      1  0.4805550000000  0.4819830000000  0.5807060000000 1.0
C      1  0.4545310000000  0.4930910000000  0.5788600000000 1.0
C      1  0.4619150000000  0.5171800000000  0.5901940000000 1.0
C      1  0.4717320000000  0.5406420000000  0.5793330000000 1.0
C      1  0.4979160000000  0.5548500000000  0.5787020000000 1.0
C      1  0.5260170000000  0.5462350000000  0.5803030000000 1.0
C      1  0.5472160000000  0.5246870000000  0.5788740000000 1.0
C      1  0.5499870000000  0.4961010000000  0.5792700000000 1.0
C      1  0.5255710000000  0.4829020000000  0.5817220000000 1.0
C      1  0.5185900000000  0.4558360000000  0.5775200000000 1.0
C      1  0.4047460000000  0.5069430000000  0.4675090000000 1.0
C      1  0.4325850000000  0.5515550000000  0.4714330000000 1.0
C      1  0.4636150000000  0.5882050000000  0.4709750000000 1.0
C      1  0.5143890000000  0.5807280000000  0.4721210000000 1.0
C      1  0.5547980000000  0.5576290000000  0.4715870000000 1.0
C      1  0.5943990000000  0.5152980000000  0.4715310000000 1.0
C      1  0.5799450000000  0.4700220000000  0.4708530000000 1.0
C      1  0.5505090000000  0.4258710000000  0.4699120000000 1.0
C      1  0.5030510000000  0.4078860000000  0.4727990000000 1.0
C      1  0.4496800000000  0.4163600000000  0.4716320000000 1.0
C      1  0.4174580000000  0.4600200000000  0.4661800000000 1.0
C      1  0.5739850000000  0.5047320000000  0.4202060000000 1.0
C      1  0.5725130000000  0.4767800000000  0.4208150000000 1.0
C      1  0.5433200000000  0.4381410000000  0.4159340000000 1.0
C      1  0.4950000000000  0.4222030000000  0.4181040000000 1.0
C      1  0.4672530000000  0.4289140000000  0.4196250000000 1.0
C      1  0.4387200000000  0.4672110000000  0.4171400000000 1.0
C      1  0.4269240000000  0.5158920000000  0.4156790000000 1.0
C      1  0.4378560000000  0.5422970000000  0.4176020000000 1.0
C      1  0.4774960000000  0.5733430000000  0.4173160000000 1.0
C      1  0.5061010000000  0.5751540000000  0.4175190000000 1.0
C      1  0.5467310000000  0.5448480000000  0.4199120000000 1.0
C      1  0.5067120000000  0.5297410000000  0.5265440000000 1.0
C      1  0.5269530000000  0.5243070000000  0.5054660000000 1.0
C      1  0.5535810000000  0.5104940000000  0.5062470000000 1.0
C      1  0.5407660000000  0.4839140000000  0.4996270000000 1.0
C      1  0.5226590000000  0.4666920000000  0.5142600000000 1.0
C      1  0.5103410000000  0.4470240000000  0.4951410000000 1.0
C      1  0.4820360000000  0.4562770000000  0.4930090000000 1.0
C      1  0.4740430000000  0.4755330000000  0.5134640000000 1.0
C      1  0.4594540000000  0.4968080000000  0.5002200000000 1.0
C      1  0.4593580000000  0.5191830000000  0.5168520000000 1.0
C      1  0.4825540000000  0.5343110000000  0.5106260000000 1.0
C      1  0.4910640000000  0.5914730000000  0.4336960000000 1.0
C      1  0.5311030000000  0.5658270000000  0.4272460000000 1.0
C      1  0.5648320000000  0.5288600000000  0.4317280000000 1.0
C      1  0.5976940000000  0.4899160000000  0.4291200000000 1.0
C      1  0.5619490000000  0.4522770000000  0.4305270000000 1.0
C      1  0.5218330000000  0.4252890000000  0.4262090000000 1.0
C      1  0.4775710000000  0.4088090000000  0.4350700000000 1.0
C      1  0.4453050000000  0.4442320000000  0.4295930000000 1.0
C      1  0.4259400000000  0.4894610000000  0.4255420000000 1.0
C      1  0.4156100000000  0.5346560000000  0.4321740000000 1.0
C      1  0.4536720000000  0.5630690000000  0.4275960000000 1.0
C      1  0.5042670000000  0.5057500000000  0.5424710000000 1.0
C      1  0.5016230000000  0.4850380000000  0.5221230000000 1.0
C      1  0.5081960000000  0.4960350000000  0.4650610000000 1.0
C      1  0.5144620000000  0.4993200000000  0.4952580000000 1.0
C      1  0.5029590000000  0.4977160000000  0.5726720000000 1.0
END
