TITL C-25906-8066-8 145.218242682667 125000 -911.92805059228 0 0 127 (C1) n - 1
REM
REM in /rds/project/t2_vol4/rds-t2-cs072/BORA/CARBON/from-Arr/AIRSS/Generating-Clusters/GAP-ML-2020/Higher-Symm/SD-CG/HFTN-CG
REM
REM
REM
REM
REM
REM ./C.cell (b20cbc046b6831c77cfcea5457e17084)
REM AIRSS Version 0.9.1 bugfix July 2018 build 013d7b7c2542+ Fri, 06 Jul 2018 19:26:36 +0100
REM compiler GCC version 9.3.0
REM options -cpp -mtune=generic -march=x86-64 -g -O0
REM seed 1812956529 -1225436417 -1397512283 -1778439059 986057585 -1776375103 -1635501669 1468786061 1018175013 87251904 460447066 -103855048 -1497379463 -671384563 -366723344 4097973 -856917348 2144425534 1525233531 -543996936 501342132 -1788128379 -1943539445 -2081581310 -1470368479 844328179 2042734478 -157573226 -1509663563 -225771832 1387033910 999798505 -1882224239
REM
CELL 1.54180   50.00000   50.00000   50.00000   90.00000   90.00000   90.00000
LATT -1
SFAC C  
C      1  0.5222240000000  0.5130300000000  0.4788310000000 1.0
C      1  0.4965100000000  0.5271560000000  0.4795740000000 1.0
C      1  0.4736350000000  0.5104050000000  0.4762570000000 1.0
C      1  0.4950320000000  0.4721980000000  0.4753150000000 1.0
C      1  0.5212500000000  0.4835590000000  0.4789220000000 1.0
C      1  0.5401850000000  0.4351650000000  0.5503880000000 1.0
C      1  0.5749940000000  0.5179120000000  0.5510240000000 1.0
C      1  0.5071420000000  0.5766810000000  0.5508580000000 1.0
C      1  0.4306720000000  0.5303620000000  0.5498540000000 1.0
C      1  0.4514360000000  0.4435500000000  0.5492720000000 1.0
C      1  0.5642110000000  0.5099620000000  0.5762210000000 1.0
C      1  0.5111740000000  0.5638900000000  0.5760400000000 1.0
C      1  0.4436010000000  0.5302420000000  0.5752340000000 1.0
C      1  0.4548960000000  0.4556240000000  0.5747940000000 1.0
C      1  0.5292630000000  0.4428020000000  0.5755690000000 1.0
C      1  0.5586350000000  0.4834990000000  0.4223620000000 1.0
C      1  0.5337540000000  0.5508760000000  0.4223540000000 1.0
C      1  0.4617790000000  0.5481360000000  0.4212830000000 1.0
C      1  0.4413010000000  0.4781950000000  0.4194830000000 1.0
C      1  0.5022540000000  0.4386560000000  0.4213240000000 1.0
C      1  0.4435910000000  0.5263230000000  0.4225580000000 1.0
C      1  0.4570320000000  0.4542050000000  0.4215730000000 1.0
C      1  0.5294990000000  0.4463610000000  0.4237250000000 1.0
C      1  0.5599640000000  0.5116370000000  0.4244170000000 1.0
C      1  0.5074290000000  0.5610170000000  0.4240630000000 1.0
C      1  0.5098230000000  0.4106990000000  0.4854560000000 1.0
C      1  0.5885040000000  0.4818660000000  0.4861200000000 1.0
C      1  0.5446460000000  0.5784840000000  0.4861000000000 1.0
C      1  0.4394620000000  0.5667100000000  0.4853840000000 1.0
C      1  0.4196580000000  0.4637120000000  0.4844690000000 1.0
C      1  0.4849720000000  0.5189180000000  0.5373400000000 1.0
C      1  0.4785730000000  0.4911780000000  0.5357990000000 1.0
C      1  0.5025330000000  0.4760170000000  0.5369890000000 1.0
C      1  0.5245020000000  0.4945460000000  0.5376540000000 1.0
C      1  0.5136130000000  0.5212260000000  0.5378400000000 1.0
C      1  0.5455150000000  0.4952530000000  0.5181200000000 1.0
C      1  0.5199460000000  0.5414320000000  0.5184310000000 1.0
C      1  0.4684370000000  0.5317080000000  0.5177350000000 1.0
C      1  0.4630400000000  0.4796730000000  0.5148580000000 1.0
C      1  0.5100060000000  0.4566700000000  0.5171820000000 1.0
C      1  0.5719740000000  0.4709790000000  0.5517230000000 1.0
C      1  0.5509000000000  0.5592620000000  0.5519850000000 1.0
C      1  0.4605120000000  0.5665960000000  0.5513360000000 1.0
C      1  0.4267560000000  0.4830760000000  0.5496900000000 1.0
C      1  0.4946580000000  0.4239330000000  0.5505530000000 1.0
C      1  0.5404050000000  0.5264610000000  0.4102190000000 1.0
C      1  0.4872710000000  0.5470010000000  0.4097590000000 1.0
C      1  0.4506580000000  0.5024580000000  0.4086110000000 1.0
C      1  0.4823360000000  0.4542770000000  0.4089200000000 1.0
C      1  0.5375910000000  0.4696550000000  0.4099280000000 1.0
C      1  0.4156750000000  0.4935250000000  0.4844080000000 1.0
C      1  0.4798510000000  0.4160870000000  0.4847630000000 1.0
C      1  0.5745730000000  0.4546690000000  0.4856920000000 1.0
C      1  0.5655960000000  0.5565470000000  0.4859040000000 1.0
C      1  0.4669390000000  0.5794160000000  0.4855020000000 1.0
C      1  0.5180370000000  0.4256350000000  0.5320360000000 1.0
C      1  0.5774210000000  0.4937520000000  0.5329530000000 1.0
C      1  0.5310630000000  0.5715310000000  0.5331560000000 1.0
C      1  0.4429000000000  0.5515090000000  0.5323500000000 1.0
C      1  0.4361170000000  0.4617590000000  0.5309260000000 1.0
C      1  0.4938100000000  0.5234840000000  0.3956020000000 1.0
C      1  0.4755410000000  0.5016130000000  0.3954080000000 1.0
C      1  0.4907860000000  0.4775680000000  0.3954950000000 1.0
C      1  0.5183210000000  0.4846190000000  0.3957830000000 1.0
C      1  0.5201780000000  0.5129170000000  0.3958720000000 1.0
C      1  0.4395370000000  0.4800720000000  0.5749690000000 1.0
C      1  0.5012220000000  0.4357670000000  0.5755670000000 1.0
C      1  0.5624040000000  0.4811250000000  0.5765140000000 1.0
C      1  0.5380710000000  0.5533810000000  0.5766860000000 1.0
C      1  0.4619430000000  0.5525600000000  0.5760490000000 1.0
C      1  0.4276230000000  0.5285750000000  0.4466830000000 1.0
C      1  0.4509580000000  0.4399910000000  0.4462210000000 1.0
C      1  0.5415010000000  0.4353010000000  0.4477360000000 1.0
C      1  0.5741710000000  0.5194830000000  0.4483850000000 1.0
C      1  0.5045250000000  0.5768890000000  0.4480660000000 1.0
C      1  0.5650060000000  0.4489800000000  0.4585340000000 1.0
C      1  0.5682640000000  0.5459760000000  0.4588710000000 1.0
C      1  0.4774520000000  0.5789340000000  0.4584490000000 1.0
C      1  0.4179910000000  0.5032550000000  0.4571620000000 1.0
C      1  0.4713570000000  0.4221490000000  0.4573190000000 1.0
C      1  0.5212700000000  0.5136770000000  0.6080700000000 1.0
C      1  0.4941360000000  0.5243990000000  0.6079230000000 1.0
C      1  0.4757160000000  0.5018850000000  0.6073400000000 1.0
C      1  0.4912900000000  0.4773760000000  0.6073900000000 1.0
C      1  0.5194820000000  0.4845410000000  0.6078820000000 1.0
C      1  0.4226040000000  0.5073260000000  0.5358410000000 1.0
C      1  0.4705090000000  0.4280240000000  0.5360500000000 1.0
C      1  0.5611200000000  0.4488320000000  0.5375440000000 1.0
C      1  0.5682110000000  0.5417110000000  0.5377320000000 1.0
C      1  0.4824860000000  0.5780150000000  0.5374110000000 1.0
C      1  0.5943830000000  0.4916910000000  0.5106770000000 1.0
C      1  0.5378080000000  0.5871130000000  0.5108340000000 1.0
C      1  0.4297370000000  0.5628580000000  0.5103370000000 1.0
C      1  0.4219490000000  0.4527440000000  0.5089020000000 1.0
C      1  0.5209930000000  0.4084180000000  0.5100290000000 1.0
C      1  0.5485780000000  0.5602690000000  0.4442250000000 1.0
C      1  0.4575450000000  0.5651180000000  0.4433860000000 1.0
C      1  0.4248320000000  0.4798670000000  0.4421290000000 1.0
C      1  0.4959910000000  0.4220130000000  0.4430080000000 1.0
C      1  0.5722990000000  0.4723610000000  0.4441380000000 1.0
C      1  0.4930840000000  0.5457960000000  0.5037870000000 1.0
C      1  0.4567350000000  0.5076240000000  0.5013990000000 1.0
C      1  0.4832060000000  0.4598800000000  0.5010260000000 1.0
C      1  0.5347320000000  0.4701360000000  0.5035020000000 1.0
C      1  0.5400880000000  0.5223560000000  0.5034740000000 1.0
C      1  0.4930420000000  0.4772300000000  0.5671100000000 1.0
C      1  0.5204620000000  0.4859530000000  0.5674300000000 1.0
C      1  0.5205400000000  0.5146380000000  0.5678870000000 1.0
C      1  0.4933050000000  0.5236990000000  0.5671400000000 1.0
C      1  0.4763090000000  0.5005930000000  0.5670430000000 1.0
C      1  0.5196640000000  0.4187460000000  0.4591080000000 1.0
C      1  0.5832380000000  0.4937220000000  0.4598860000000 1.0
C      1  0.5317260000000  0.5773550000000  0.4598090000000 1.0
C      1  0.4362090000000  0.5543550000000  0.4589150000000 1.0
C      1  0.4295030000000  0.4565560000000  0.4581650000000 1.0
C      1  0.4533570000000  0.5038660000000  0.5855680000000 1.0
C      1  0.4828270000000  0.4564990000000  0.5857550000000 1.0
C      1  0.5368510000000  0.4699130000000  0.5863400000000 1.0
C      1  0.5407320000000  0.5256380000000  0.5866820000000 1.0
C      1  0.4890190000000  0.5462620000000  0.5861290000000 1.0
C      1  0.4711370000000  0.4316300000000  0.5067490000000 1.0
C      1  0.5581820000000  0.4506000000000  0.5082510000000 1.0
C      1  0.5653720000000  0.5392120000000  0.5082800000000 1.0
C      1  0.4840020000000  0.5745010000000  0.5078510000000 1.0
C      1  0.4264460000000  0.5078380000000  0.5064770000000 1.0
C      1  0.4815820000000  0.4901760000000  0.4572870000000 1.0
C      1  0.4990640000000  0.4999370000000  0.4387660000000 1.0
END
