TITL C-25843-2510-8 -0.042529699345532 125000 -197.525970400415 0 0 32 (C2) n - 1
REM
REM in /rds/project/t2_vol4/rds-t2-cs072/BORA/CARBON/from-Arr/AIRSS/Generating-Clusters/GAP-ML-2020/Higher-Symm/SD-CG/HFTN-CG
REM
REM
REM
REM
REM
REM ./C.cell (b20cbc046b6831c77cfcea5457e17084)
REM AIRSS Version 0.9.1 bugfix July 2018 build 013d7b7c2542+ Fri, 06 Jul 2018 19:26:36 +0100
REM compiler GCC version 9.3.0
REM options -cpp -mtune=generic -march=x86-64 -g -O0
REM seed -1242955316 -612260786 -1691821128 1827078432 24681821 582868694 -1017403134 1998854441 647618497 -1756746541 980342643 794676670 1802580134 -337447553 -1332628981 -587983655 -2137257028 -997636660 1636032836 -55982729 -1756191972 1658637546 -147689271 1511459216 -1102452369 -1963026904 -2009739219 1590919138 1382892326 -1723187262 -625318519 -135614743 43536465
REM
CELL 1.54180   50.00000   50.00000   50.00000   90.00000   90.00000   90.00000
LATT -1
SFAC C  
C      1  0.5302330000000  0.5298320000000  0.5217660000000 1.0
C      1  0.4697770000000  0.4701910000000  0.5218100000000 1.0
C      1  0.5298730000000  0.5582210000000  0.5176530000000 1.0
C      1  0.4701350000000  0.4417970000000  0.5177260000000 1.0
C      1  0.5064960000000  0.4655050000000  0.4650460000000 1.0
C      1  0.4934880000000  0.5344590000000  0.4650140000000 1.0
C      1  0.4942120000000  0.4702640000000  0.5089560000000 1.0
C      1  0.5057920000000  0.5297450000000  0.5089230000000 1.0
C      1  0.4713420000000  0.5469510000000  0.4802370000000 1.0
C      1  0.5286480000000  0.4530290000000  0.4802720000000 1.0
C      1  0.4952540000000  0.5141560000000  0.4870970000000 1.0
C      1  0.5047410000000  0.4858310000000  0.4871100000000 1.0
C      1  0.5477930000000  0.4869260000000  0.5218910000000 1.0
C      1  0.4522170000000  0.5130960000000  0.5218990000000 1.0
C      1  0.5126540000000  0.5001980000000  0.5566740000000 1.0
C      1  0.4873720000000  0.4998600000000  0.5566800000000 1.0
C      1  0.4903100000000  0.4476660000000  0.4524110000000 1.0
C      1  0.5096690000000  0.5522850000000  0.4523530000000 1.0
C      1  0.5346660000000  0.4787080000000  0.4946540000000 1.0
C      1  0.4653320000000  0.5212860000000  0.4946480000000 1.0
C      1  0.5709820000000  0.4980530000000  0.5069650000000 1.0
C      1  0.4290210000000  0.5019540000000  0.5069960000000 1.0
C      1  0.4869680000000  0.5702620000000  0.4890540000000 1.0
C      1  0.5130270000000  0.4297260000000  0.4891200000000 1.0
C      1  0.4657890000000  0.4942410000000  0.5380750000000 1.0
C      1  0.5342280000000  0.5057980000000  0.5380530000000 1.0
C      1  0.5070300000000  0.5741490000000  0.4678000000000 1.0
C      1  0.4929550000000  0.4258180000000  0.4678790000000 1.0
C      1  0.5587950000000  0.4958310000000  0.4833710000000 1.0
C      1  0.4411980000000  0.5041520000000  0.4833930000000 1.0
C      1  0.4954910000000  0.4401100000000  0.5082670000000 1.0
C      1  0.5045130000000  0.5598980000000  0.5082040000000 1.0
END
