TITL C-25628-115-2 0.0560528531848274 125000 -257.963117250949 0 0 40 (C4) n - 1
REM
REM in /rds/project/t2_vol4/rds-t2-cs072/BORA/CARBON/from-Arr/AIRSS/Generating-Clusters/GAP-ML-2020/Higher-Symm/SD-CG/HFTN-CG
REM
REM
REM
REM
REM
REM ./C.cell (b20cbc046b6831c77cfcea5457e17084)
REM AIRSS Version 0.9.1 bugfix July 2018 build 013d7b7c2542+ Fri, 06 Jul 2018 19:26:36 +0100
REM compiler GCC version 9.3.0
REM options -cpp -mtune=generic -march=x86-64 -g -O0
REM seed 358854703 968389575 764631532 1228180168 1685082036 150368389 1557962717 -452221796 1816007549 1673837569 -1030523969 1722899718 797335077 -1062091512 -688274148 1892225071 1913766858 -1901451705 -390157976 -1735975646 2138158388 -1434791753 896731879 -1108884728 -1413903482 -1288214821 -1753440990 -797979735 -1840927128 470523943 1191084020 -1564652617 1310023594
REM
CELL 1.54180   50.00000   50.00000   50.00000   90.00000   90.00000   90.00000
LATT -1
SFAC C  
C      1  0.4871740000000  0.4571640000000  0.4347880000000 1.0
C      1  0.4837110000000  0.5646370000000  0.4574710000000 1.0
C      1  0.4836180000000  0.5419400000000  0.5649970000000 1.0
C      1  0.4870810000000  0.4344670000000  0.5423140000000 1.0
C      1  0.5140840000000  0.5341640000000  0.4300970000000 1.0
C      1  0.5169980000000  0.4304760000000  0.4663920000000 1.0
C      1  0.5151240000000  0.4667320000000  0.5701180000000 1.0
C      1  0.5122100000000  0.5704200000000  0.5338220000000 1.0
C      1  0.5084670000000  0.4410880000000  0.4919180000000 1.0
C      1  0.5067790000000  0.5083430000000  0.4409070000000 1.0
C      1  0.5047220000000  0.5593160000000  0.5081790000000 1.0
C      1  0.5064100000000  0.4920620000000  0.5591900000000 1.0
C      1  0.4917540000000  0.5573850000000  0.4842970000000 1.0
C      1  0.4943080000000  0.4841640000000  0.4423420000000 1.0
C      1  0.4950570000000  0.4422110000000  0.5156060000000 1.0
C      1  0.4925030000000  0.5154320000000  0.5575610000000 1.0
C      1  0.4723040000000  0.4525040000000  0.5286510000000 1.0
C      1  0.4723130000000  0.4702740000000  0.4531640000000 1.0
C      1  0.4698680000000  0.5457230000000  0.4709250000000 1.0
C      1  0.4698590000000  0.5279530000000  0.5464110000000 1.0
C      1  0.5272170000000  0.5508020000000  0.5228530000000 1.0
C      1  0.5285860000000  0.5235280000000  0.4502700000000 1.0
C      1  0.5306110000000  0.4509720000000  0.4775720000000 1.0
C      1  0.5292420000000  0.4782450000000  0.5501550000000 1.0
C      1  0.4442160000000  0.5047750000000  0.4669910000000 1.0
C      1  0.4431280000000  0.5308710000000  0.5060730000000 1.0
C      1  0.4441350000000  0.4918000000000  0.5321890000000 1.0
C      1  0.4452230000000  0.4657050000000  0.4931070000000 1.0
C      1  0.5563810000000  0.4911110000000  0.4689130000000 1.0
C      1  0.5567120000000  0.4702270000000  0.5110230000000 1.0
C      1  0.5552680000000  0.5123140000000  0.5319070000000 1.0
C      1  0.5549370000000  0.5331980000000  0.4897970000000 1.0
C      1  0.4492570000000  0.4781230000000  0.4693990000000 1.0
C      1  0.4476350000000  0.5286310000000  0.4793110000000 1.0
C      1  0.4475680000000  0.5187120000000  0.5298430000000 1.0
C      1  0.4491900000000  0.4682040000000  0.5199320000000 1.0
C      1  0.5513280000000  0.5178460000000  0.4678000000000 1.0
C      1  0.5527060000000  0.4690220000000  0.4841150000000 1.0
C      1  0.5518470000000  0.4853190000000  0.5329580000000 1.0
C      1  0.5504690000000  0.5341430000000  0.5166420000000 1.0
END
