TITL C-25917-8053-5 37.7990552526263 125000 -586.942188468501 0 0 85 (C1) n - 1
REM
REM in /rds/project/t2_vol4/rds-t2-cs072/BORA/CARBON/from-Arr/AIRSS/Generating-Clusters/GAP-ML-2020/Higher-Symm/SD-CG/HFTN-CG
REM
REM
REM
REM
REM
REM ./C.cell (b20cbc046b6831c77cfcea5457e17084)
REM AIRSS Version 0.9.1 bugfix July 2018 build 013d7b7c2542+ Fri, 06 Jul 2018 19:26:36 +0100
REM compiler GCC version 9.3.0
REM options -cpp -mtune=generic -march=x86-64 -g -O0
REM seed -1710911505 -1518210441 93947751 1084658199 337441912 194749322 230597520 -104517246 -332026487 931756683 -86743191 -1719846630 1449190216 1876761871 -1308952312 -1902909484 1923737188 -863743078 1010757117 1526269275 -696579331 -267336797 249831377 -868819385 -1521125679 -175948445 -294638225 -607092358 1028088486 1984605227 589466026 -1146744974 -1099437148
REM
CELL 1.54180   50.00000   50.00000   50.00000   90.00000   90.00000   90.00000
LATT -1
SFAC C  
C      1  0.4640210000000  0.4348880000000  0.5177420000000 1.0
C      1  0.5266670000000  0.4998010000000  0.5739620000000 1.0
C      1  0.4640990000000  0.5673180000000  0.4820720000000 1.0
C      1  0.5352310000000  0.4852280000000  0.4362120000000 1.0
C      1  0.5159410000000  0.5007790000000  0.4236770000000 1.0
C      1  0.4828530000000  0.4250030000000  0.4994190000000 1.0
C      1  0.5045920000000  0.5051980000000  0.5886490000000 1.0
C      1  0.4836050000000  0.5745890000000  0.5003400000000 1.0
C      1  0.5309040000000  0.5169870000000  0.5474440000000 1.0
C      1  0.4729040000000  0.5400390000000  0.4822030000000 1.0
C      1  0.5237740000000  0.4822440000000  0.4627950000000 1.0
C      1  0.4740550000000  0.4609090000000  0.5232770000000 1.0
C      1  0.5765470000000  0.4891520000000  0.5045850000000 1.0
C      1  0.4233650000000  0.5088460000000  0.5101870000000 1.0
C      1  0.5778990000000  0.5129130000000  0.4865030000000 1.0
C      1  0.4241250000000  0.4895830000000  0.4875570000000 1.0
C      1  0.4708750000000  0.5157960000000  0.5304960000000 1.0
C      1  0.5307000000000  0.5240110000000  0.4924590000000 1.0
C      1  0.4727280000000  0.4851800000000  0.4768630000000 1.0
C      1  0.5267260000000  0.4708700000000  0.5185860000000 1.0
C      1  0.4417780000000  0.5446520000000  0.4820900000000 1.0
C      1  0.5605030000000  0.4841560000000  0.4492960000000 1.0
C      1  0.4404780000000  0.4526880000000  0.5170490000000 1.0
C      1  0.5588770000000  0.5168460000000  0.5390460000000 1.0
C      1  0.5725160000000  0.4628100000000  0.4931540000000 1.0
C      1  0.4252310000000  0.4972990000000  0.5364190000000 1.0
C      1  0.5747210000000  0.5393280000000  0.4985910000000 1.0
C      1  0.4271580000000  0.5008160000000  0.4612810000000 1.0
C      1  0.4855850000000  0.4746680000000  0.5000260000000 1.0
C      1  0.5140340000000  0.4958970000000  0.5302730000000 1.0
C      1  0.4851020000000  0.5261700000000  0.5072940000000 1.0
C      1  0.5162080000000  0.5035500000000  0.4798750000000 1.0
C      1  0.5512850000000  0.5309000000000  0.4478840000000 1.0
C      1  0.4476180000000  0.4481000000000  0.4692000000000 1.0
C      1  0.5552360000000  0.4701050000000  0.5483600000000 1.0
C      1  0.4477450000000  0.5519030000000  0.5280800000000 1.0
C      1  0.4357900000000  0.5132220000000  0.5586020000000 1.0
C      1  0.5595310000000  0.5611010000000  0.4862950000000 1.0
C      1  0.4411290000000  0.4865320000000  0.4399130000000 1.0
C      1  0.5591390000000  0.4408930000000  0.5082120000000 1.0
C      1  0.4729600000000  0.4342230000000  0.4739920000000 1.0
C      1  0.5320950000000  0.4733950000000  0.5654060000000 1.0
C      1  0.4742540000000  0.5656650000000  0.5262190000000 1.0
C      1  0.5259710000000  0.5257500000000  0.4344170000000 1.0
C      1  0.5466360000000  0.4485860000000  0.5320980000000 1.0
C      1  0.4514370000000  0.5355840000000  0.5507700000000 1.0
C      1  0.5471480000000  0.5555820000000  0.4621840000000 1.0
C      1  0.4515260000000  0.4610950000000  0.4432960000000 1.0
C      1  0.4919590000000  0.4451240000000  0.4550120000000 1.0
C      1  0.5088110000000  0.4548360000000  0.5568810000000 1.0
C      1  0.4926790000000  0.5551340000000  0.5476110000000 1.0
C      1  0.5068770000000  0.5443300000000  0.4460830000000 1.0
C      1  0.4795470000000  0.4615580000000  0.4359160000000 1.0
C      1  0.5198260000000  0.4372620000000  0.5372010000000 1.0
C      1  0.4762710000000  0.5398950000000  0.5650670000000 1.0
C      1  0.5194520000000  0.5621950000000  0.4639260000000 1.0
C      1  0.5099030000000  0.4578060000000  0.4978390000000 1.0
C      1  0.4877210000000  0.4977270000000  0.5465050000000 1.0
C      1  0.5123000000000  0.5409130000000  0.5085910000000 1.0
C      1  0.4909610000000  0.5018260000000  0.4607620000000 1.0
C      1  0.5123230000000  0.5683600000000  0.4927500000000 1.0
C      1  0.4880190000000  0.4903070000000  0.4306750000000 1.0
C      1  0.5114350000000  0.4293730000000  0.5087220000000 1.0
C      1  0.4814690000000  0.5122820000000  0.5751550000000 1.0
C      1  0.5168700000000  0.4550990000000  0.4674240000000 1.0
C      1  0.4815330000000  0.4682020000000  0.5504130000000 1.0
C      1  0.5200130000000  0.5449950000000  0.5389260000000 1.0
C      1  0.4820970000000  0.5318170000000  0.4557260000000 1.0
C      1  0.4320040000000  0.5371580000000  0.5076100000000 1.0
C      1  0.5687190000000  0.5101820000000  0.4589880000000 1.0
C      1  0.4321740000000  0.4612440000000  0.4905490000000 1.0
C      1  0.5687520000000  0.4914970000000  0.5325390000000 1.0
C      1  0.5650840000000  0.5404600000000  0.5256320000000 1.0
C      1  0.4354080000000  0.5284000000000  0.4585920000000 1.0
C      1  0.5638650000000  0.4601810000000  0.4661740000000 1.0
C      1  0.4349370000000  0.4702970000000  0.5402250000000 1.0
C      1  0.4607470000000  0.5028660000000  0.4279630000000 1.0
C      1  0.5395520000000  0.4276310000000  0.4936640000000 1.0
C      1  0.4536990000000  0.4976560000000  0.5735780000000 1.0
C      1  0.5401190000000  0.5720600000000  0.5041560000000 1.0
C      1  0.5424650000000  0.4402420000000  0.4682990000000 1.0
C      1  0.4543640000000  0.4718780000000  0.5624010000000 1.0
C      1  0.5443290000000  0.5596080000000  0.5291360000000 1.0
C      1  0.4574460000000  0.5278050000000  0.4402490000000 1.0
C      1  0.4995370000000  0.5000180000000  0.5043900000000 1.0
END
