TITL C-25630-168-3 1114.92990312109 125000 -653.729877187101 0 0 93 (C1) n - 1
REM
REM in /rds/project/t2_vol4/rds-t2-cs072/BORA/CARBON/from-Arr/AIRSS/Generating-Clusters/GAP-ML-2020/Higher-Symm/SD-CG/HFTN-CG
REM
REM
REM
REM
REM
REM ./C.cell (b20cbc046b6831c77cfcea5457e17084)
REM AIRSS Version 0.9.1 bugfix July 2018 build 013d7b7c2542+ Fri, 06 Jul 2018 19:26:36 +0100
REM compiler GCC version 9.3.0
REM options -cpp -mtune=generic -march=x86-64 -g -O0
REM seed 421368157 1325771404 -1666619528 1144575153 -1261839166 502409312 -704743097 184132749 1952934810 1194924312 1558888797 1742245025 -334099141 -1324172288 1412699105 -1147619875 -1470349414 -1942184130 -1112398551 468933742 -1360888723 1333969390 757312441 -1653488098 737078785 1670560524 1095857444 -2040440406 -1096600601 -267848991 599249546 -1644823074 -204006217
REM
CELL 1.54180   50.00000   50.00000   50.00000   90.00000   90.00000   90.00000
LATT -1
SFAC C  
C      1  0.4507730000000  0.5609280000000  0.4670000000000 1.0
C      1  0.4816210000000  0.5067810000000  0.5808990000000 1.0
C      1  0.5846040000000  0.5175450000000  0.4854540000000 1.0
C      1  0.4917660000000  0.4909840000000  0.5261310000000 1.0
C      1  0.4608700000000  0.5460570000000  0.4456880000000 1.0
C      1  0.5787630000000  0.4691060000000  0.4739450000000 1.0
C      1  0.5201100000000  0.5142770000000  0.4802150000000 1.0
C      1  0.4761250000000  0.4069100000000  0.5100020000000 1.0
C      1  0.5349670000000  0.4839570000000  0.5083090000000 1.0
C      1  0.4894620000000  0.5531150000000  0.4419650000000 1.0
C      1  0.5109230000000  0.5022100000000  0.5468970000000 1.0
C      1  0.5763410000000  0.5343140000000  0.5072250000000 1.0
C      1  0.5213890000000  0.5749720000000  0.4790870000000 1.0
C      1  0.4273790000000  0.5096380000000  0.4633050000000 1.0
C      1  0.4563970000000  0.4793020000000  0.4952930000000 1.0
C      1  0.4456050000000  0.4385770000000  0.4799170000000 1.0
C      1  0.4529250000000  0.5175520000000  0.4459160000000 1.0
C      1  0.4644650000000  0.4262720000000  0.5492930000000 1.0
C      1  0.4723020000000  0.4337130000000  0.4707030000000 1.0
C      1  0.5188490000000  0.5789500000000  0.5074390000000 1.0
C      1  0.4433240000000  0.4935920000000  0.5515000000000 1.0
C      1  0.4794410000000  0.4619100000000  0.5647040000000 1.0
C      1  0.5588000000000  0.5563580000000  0.5014010000000 1.0
C      1  0.5391690000000  0.4485070000000  0.5375200000000 1.0
C      1  0.4932850000000  0.5119630000000  0.4176400000000 1.0
C      1  0.5302450000000  0.5092190000000  0.5254860000000 1.0
C      1  0.4849360000000  0.5175170000000  0.5131380000000 1.0
C      1  0.4914240000000  0.4359790000000  0.5540790000000 1.0
C      1  0.4849190000000  0.4656250000000  0.4287890000000 1.0
C      1  0.5070240000000  0.4686480000000  0.4706310000000 1.0
C      1  0.4193960000000  0.5096430000000  0.5105600000000 1.0
C      1  0.4463390000000  0.5588900000000  0.5125720000000 1.0
C      1  0.4664140000000  0.4592350000000  0.5152650000000 1.0
C      1  0.5753310000000  0.5251270000000  0.4589970000000 1.0
C      1  0.4423950000000  0.4653840000000  0.4718440000000 1.0
C      1  0.4515340000000  0.4486990000000  0.5618020000000 1.0
C      1  0.4952130000000  0.4456650000000  0.5111210000000 1.0
C      1  0.5513860000000  0.5286090000000  0.5494300000000 1.0
C      1  0.4219480000000  0.4818940000000  0.5027210000000 1.0
C      1  0.4907150000000  0.5623730000000  0.5419800000000 1.0
C      1  0.5472310000000  0.5621060000000  0.4749720000000 1.0
C      1  0.4309220000000  0.4652230000000  0.5487150000000 1.0
C      1  0.5066070000000  0.4720860000000  0.5032070000000 1.0
C      1  0.4340730000000  0.5513890000000  0.4878540000000 1.0
C      1  0.4933220000000  0.5791400000000  0.5203080000000 1.0
C      1  0.4723400000000  0.5756900000000  0.4779500000000 1.0
C      1  0.5071050000000  0.5361480000000  0.4269510000000 1.0
C      1  0.5222890000000  0.4860460000000  0.5690390000000 1.0
C      1  0.5431600000000  0.4663660000000  0.5593990000000 1.0
C      1  0.4631670000000  0.4780020000000  0.4171100000000 1.0
C      1  0.5361380000000  0.5340240000000  0.4314960000000 1.0
C      1  0.5720390000000  0.4773410000000  0.4481620000000 1.0
C      1  0.5354950000000  0.4559220000000  0.4650420000000 1.0
C      1  0.4549260000000  0.5025530000000  0.5773010000000 1.0
C      1  0.5110950000000  0.5511030000000  0.5574270000000 1.0
C      1  0.4647120000000  0.5054430000000  0.4217050000000 1.0
C      1  0.4549810000000  0.4164160000000  0.5246160000000 1.0
C      1  0.4472040000000  0.5403950000000  0.5343740000000 1.0
C      1  0.5025270000000  0.4984510000000  0.4644960000000 1.0
C      1  0.4222000000000  0.5258500000000  0.4860760000000 1.0
C      1  0.5874990000000  0.4889220000000  0.4920950000000 1.0
C      1  0.5421580000000  0.4981090000000  0.4835360000000 1.0
C      1  0.5331870000000  0.4840880000000  0.4228260000000 1.0
C      1  0.4874080000000  0.4519320000000  0.4546750000000 1.0
C      1  0.4968020000000  0.5715090000000  0.4637120000000 1.0
C      1  0.5475890000000  0.5089230000000  0.4248510000000 1.0
C      1  0.4693410000000  0.5755000000000  0.5056880000000 1.0
C      1  0.5795770000000  0.4785560000000  0.5172950000000 1.0
C      1  0.5634410000000  0.4861780000000  0.5603560000000 1.0
C      1  0.4421960000000  0.4384770000000  0.5096210000000 1.0
C      1  0.4321510000000  0.5161190000000  0.5348410000000 1.0
C      1  0.4674430000000  0.5063960000000  0.4925420000000 1.0
C      1  0.5463230000000  0.5067020000000  0.5694600000000 1.0
C      1  0.4879550000000  0.4230040000000  0.4921330000000 1.0
C      1  0.4954690000000  0.4810860000000  0.5808600000000 1.0
C      1  0.4759200000000  0.5364700000000  0.5388460000000 1.0
C      1  0.4768410000000  0.5092320000000  0.4669730000000 1.0
C      1  0.5713410000000  0.5041660000000  0.4406990000000 1.0
C      1  0.5546370000000  0.5449590000000  0.4531190000000 1.0
C      1  0.5125690000000  0.5240620000000  0.5060030000000 1.0
C      1  0.4698630000000  0.4773960000000  0.5390720000000 1.0
C      1  0.4207180000000  0.4831390000000  0.4725170000000 1.0
C      1  0.5750050000000  0.5231840000000  0.5338130000000 1.0
C      1  0.5801140000000  0.4950860000000  0.5393720000000 1.0
C      1  0.5120570000000  0.4382580000000  0.5351920000000 1.0
C      1  0.5372130000000  0.5530740000000  0.5467280000000 1.0
C      1  0.5057590000000  0.4852400000000  0.4190580000000 1.0
C      1  0.4955440000000  0.5246300000000  0.5603640000000 1.0
C      1  0.4236530000000  0.4591910000000  0.5214860000000 1.0
C      1  0.5408940000000  0.5666090000000  0.5213000000000 1.0
C      1  0.5547900000000  0.4606420000000  0.5135520000000 1.0
C      1  0.5574480000000  0.4535470000000  0.4845950000000 1.0
C      1  0.5466840000000  0.4659210000000  0.4407600000000 1.0
END
