TITL C-25625-291-2 -178.257903548751 125000 -864.234191201312 0 0 124 (C1) n - 1
REM
REM in /rds/project/t2_vol4/rds-t2-cs072/BORA/CARBON/from-Arr/AIRSS/Generating-Clusters/GAP-ML-2020/Higher-Symm/SD-CG/HFTN-CG
REM
REM
REM
REM
REM
REM ./C.cell (b20cbc046b6831c77cfcea5457e17084)
REM AIRSS Version 0.9.1 bugfix July 2018 build 013d7b7c2542+ Fri, 06 Jul 2018 19:26:36 +0100
REM compiler GCC version 9.3.0
REM options -cpp -mtune=generic -march=x86-64 -g -O0
REM seed 721670353 1194701391 -1128353596 -1366528708 -554315708 -497195279 -1475714789 753979988 1042730855 -345710214 -680775751 1140476085 863464831 844900625 -986426275 -689585682 1524398638 1656035161 1815198538 -732435962 -487422282 -217903392 -1206413132 1680182000 -905773505 -1934911244 1980872016 792082499 1434778263 -125327780 1921249584 1793899380 1354087665
REM
CELL 1.54180   50.00000   50.00000   50.00000   90.00000   90.00000   90.00000
LATT -1
SFAC C  
C      1  0.4842020000000  0.4774680000000  0.5134740000000 1.0
C      1  0.5568710000000  0.4509540000000  0.4408790000000 1.0
C      1  0.5525820000000  0.4214330000000  0.4791670000000 1.0
C      1  0.5838050000000  0.5538850000000  0.4913930000000 1.0
C      1  0.5447890000000  0.5738960000000  0.5428770000000 1.0
C      1  0.5883350000000  0.5068670000000  0.5046290000000 1.0
C      1  0.5524930000000  0.4792420000000  0.4326320000000 1.0
C      1  0.5416220000000  0.4275160000000  0.4524620000000 1.0
C      1  0.5082160000000  0.4564230000000  0.5714350000000 1.0
C      1  0.5280110000000  0.5858330000000  0.5221680000000 1.0
C      1  0.4637390000000  0.5357540000000  0.5681040000000 1.0
C      1  0.5440180000000  0.5845680000000  0.4968720000000 1.0
C      1  0.4507510000000  0.4632190000000  0.5534320000000 1.0
C      1  0.5827880000000  0.5279490000000  0.4844030000000 1.0
C      1  0.4297040000000  0.4943000000000  0.5043670000000 1.0
C      1  0.4915730000000  0.5177400000000  0.6046600000000 1.0
C      1  0.4517310000000  0.5740420000000  0.5399570000000 1.0
C      1  0.4152610000000  0.4494940000000  0.4972500000000 1.0
C      1  0.5327070000000  0.4968070000000  0.5588330000000 1.0
C      1  0.5385870000000  0.4260320000000  0.5557030000000 1.0
C      1  0.5137510000000  0.5376690000000  0.5476440000000 1.0
C      1  0.5096690000000  0.4289300000000  0.5632510000000 1.0
C      1  0.4864750000000  0.5920620000000  0.4970140000000 1.0
C      1  0.4616430000000  0.5127630000000  0.4064700000000 1.0
C      1  0.4412380000000  0.4357300000000  0.4963680000000 1.0
C      1  0.5357910000000  0.4896360000000  0.4874440000000 1.0
C      1  0.5782210000000  0.5113680000000  0.5330540000000 1.0
C      1  0.4190910000000  0.5165040000000  0.4512600000000 1.0
C      1  0.4991540000000  0.5885260000000  0.5235760000000 1.0
C      1  0.5503800000000  0.5404750000000  0.4396170000000 1.0
C      1  0.4988140000000  0.4192460000000  0.4731630000000 1.0
C      1  0.4917750000000  0.4762810000000  0.5830530000000 1.0
C      1  0.4895510000000  0.4955420000000  0.4637580000000 1.0
C      1  0.5611030000000  0.5096230000000  0.5777100000000 1.0
C      1  0.4746430000000  0.5246860000000  0.5197070000000 1.0
C      1  0.4863040000000  0.4230870000000  0.5479640000000 1.0
C      1  0.4526930000000  0.5071010000000  0.5691500000000 1.0
C      1  0.5822680000000  0.4549060000000  0.5033100000000 1.0
C      1  0.4295040000000  0.5372260000000  0.4339280000000 1.0
C      1  0.5370950000000  0.5529790000000  0.5610870000000 1.0
C      1  0.5014240000000  0.5496490000000  0.4919020000000 1.0
C      1  0.5904740000000  0.4809850000000  0.4925800000000 1.0
C      1  0.5637060000000  0.5216490000000  0.4598990000000 1.0
C      1  0.4472020000000  0.4828010000000  0.4807490000000 1.0
C      1  0.4501470000000  0.5043040000000  0.5264630000000 1.0
C      1  0.5230800000000  0.4486430000000  0.5041940000000 1.0
C      1  0.5668640000000  0.4508840000000  0.5276150000000 1.0
C      1  0.4561930000000  0.4493460000000  0.4746600000000 1.0
C      1  0.4391330000000  0.5545560000000  0.4553150000000 1.0
C      1  0.5340190000000  0.5148780000000  0.4744470000000 1.0
C      1  0.4679170000000  0.5133390000000  0.4526820000000 1.0
C      1  0.5777090000000  0.5398410000000  0.5446940000000 1.0
C      1  0.5084240000000  0.4973130000000  0.5964630000000 1.0
C      1  0.5032660000000  0.4902320000000  0.4098540000000 1.0
C      1  0.5306790000000  0.4675270000000  0.5567410000000 1.0
C      1  0.5521980000000  0.4499620000000  0.5671140000000 1.0
C      1  0.4849420000000  0.4452300000000  0.4779560000000 1.0
C      1  0.5073280000000  0.4089030000000  0.4982860000000 1.0
C      1  0.4750470000000  0.5405450000000  0.4950510000000 1.0
C      1  0.4312020000000  0.5053750000000  0.5502360000000 1.0
C      1  0.4813990000000  0.4705120000000  0.4114360000000 1.0
C      1  0.5235420000000  0.5332750000000  0.4955620000000 1.0
C      1  0.5140030000000  0.4190480000000  0.4487630000000 1.0
C      1  0.5096990000000  0.5368070000000  0.4150290000000 1.0
C      1  0.4406650000000  0.5807600000000  0.5141620000000 1.0
C      1  0.4393160000000  0.4773410000000  0.4342040000000 1.0
C      1  0.5360240000000  0.5005940000000  0.5877680000000 1.0
C      1  0.4850120000000  0.5450100000000  0.5454970000000 1.0
C      1  0.5346330000000  0.5248660000000  0.4210230000000 1.0
C      1  0.5305560000000  0.5805950000000  0.4711750000000 1.0
C      1  0.5700560000000  0.5729680000000  0.5046270000000 1.0
C      1  0.5071300000000  0.5088460000000  0.5508520000000 1.0
C      1  0.5082320000000  0.5589400000000  0.4341500000000 1.0
C      1  0.4115390000000  0.4540980000000  0.4695740000000 1.0
C      1  0.5018600000000  0.5769820000000  0.4763300000000 1.0
C      1  0.4886550000000  0.5628040000000  0.4542530000000 1.0
C      1  0.5798080000000  0.4521880000000  0.4576660000000 1.0
C      1  0.4215430000000  0.4557960000000  0.4448330000000 1.0
C      1  0.4746350000000  0.4904050000000  0.4880710000000 1.0
C      1  0.4933250000000  0.4261980000000  0.4322160000000 1.0
C      1  0.4938780000000  0.4491150000000  0.5065930000000 1.0
C      1  0.4117770000000  0.5176210000000  0.4999800000000 1.0
C      1  0.4411210000000  0.5300500000000  0.4111020000000 1.0
C      1  0.4191210000000  0.5557970000000  0.4758210000000 1.0
C      1  0.5000440000000  0.4683230000000  0.4656330000000 1.0
C      1  0.4093530000000  0.5288690000000  0.4743790000000 1.0
C      1  0.5254410000000  0.4659260000000  0.4787740000000 1.0
C      1  0.4669360000000  0.5425120000000  0.4643270000000 1.0
C      1  0.5341270000000  0.5634670000000  0.4469270000000 1.0
C      1  0.5312700000000  0.4904980000000  0.5154510000000 1.0
C      1  0.5737550000000  0.4639070000000  0.5539740000000 1.0
C      1  0.5715530000000  0.4959910000000  0.4478690000000 1.0
C      1  0.5351910000000  0.4196760000000  0.5033230000000 1.0
C      1  0.4137320000000  0.5393710000000  0.5184670000000 1.0
C      1  0.4563360000000  0.4249170000000  0.5180880000000 1.0
C      1  0.5503220000000  0.4235170000000  0.5301980000000 1.0
C      1  0.4754750000000  0.4454750000000  0.4265460000000 1.0
C      1  0.5463730000000  0.5086920000000  0.5317160000000 1.0
C      1  0.4216550000000  0.5335720000000  0.5452410000000 1.0
C      1  0.5608350000000  0.5371000000000  0.5675420000000 1.0
C      1  0.5011060000000  0.4992620000000  0.5237570000000 1.0
C      1  0.4861490000000  0.4205270000000  0.5177960000000 1.0
C      1  0.4589120000000  0.4341750000000  0.5464940000000 1.0
C      1  0.5782410000000  0.4924240000000  0.5575320000000 1.0
C      1  0.4653360000000  0.4816990000000  0.5720640000000 1.0
C      1  0.4805270000000  0.5739940000000  0.5406640000000 1.0
C      1  0.4640530000000  0.4800480000000  0.5330550000000 1.0
C      1  0.5146600000000  0.5072020000000  0.4548460000000 1.0
C      1  0.5286590000000  0.4951950000000  0.4261290000000 1.0
C      1  0.4598760000000  0.5886090000000  0.4960010000000 1.0
C      1  0.5324700000000  0.5324970000000  0.5223680000000 1.0
C      1  0.4413870000000  0.5514720000000  0.5553200000000 1.0
C      1  0.4510530000000  0.4498960000000  0.4451450000000 1.0
C      1  0.4207090000000  0.5627580000000  0.5037450000000 1.0
C      1  0.4916180000000  0.5160040000000  0.4058420000000 1.0
C      1  0.4246210000000  0.4753960000000  0.5448470000000 1.0
C      1  0.4735670000000  0.5338000000000  0.5966640000000 1.0
C      1  0.4415190000000  0.4979890000000  0.4547480000000 1.0
C      1  0.5357830000000  0.4635710000000  0.5260060000000 1.0
C      1  0.5700090000000  0.5654050000000  0.5324960000000 1.0
C      1  0.5877060000000  0.4788890000000  0.4639360000000 1.0
C      1  0.4170070000000  0.4709090000000  0.5174580000000 1.0
C      1  0.5761480000000  0.4374210000000  0.4816430000000 1.0
C      1  0.4570590000000  0.4847030000000  0.4121830000000 1.0
END
