TITL C-25835-2349-8 0.11391457108672 125000 -269.654947979446 0 0 40 (C1) n - 1
REM
REM in /rds/project/t2_vol4/rds-t2-cs072/BORA/CARBON/from-Arr/AIRSS/Generating-Clusters/GAP-ML-2020/Higher-Symm/SD-CG/HFTN-CG
REM
REM
REM
REM
REM
REM ./C.cell (b20cbc046b6831c77cfcea5457e17084)
REM AIRSS Version 0.9.1 bugfix July 2018 build 013d7b7c2542+ Fri, 06 Jul 2018 19:26:36 +0100
REM compiler GCC version 9.3.0
REM options -cpp -mtune=generic -march=x86-64 -g -O0
REM seed 1462579001 -1964815142 956465412 1224775090 -719083897 870045476 779429013 1239573872 1947251991 1970233041 1870577375 -603976897 511887667 -1514124348 2008437233 -107934449 771680349 -1255832853 -1592402467 1767063117 389834576 2140942045 -179566138 1822812721 2007525826 1421471108 -1988774533 -1907257089 -510645743 -1083089231 -1507390564 692350328 1753839598
REM
CELL 1.54180   50.00000   50.00000   50.00000   90.00000   90.00000   90.00000
LATT -1
SFAC C  
C      1  0.4962270000000  0.5609330000000  0.5145220000000 1.0
C      1  0.4846420000000  0.5365710000000  0.5222370000000 1.0
C      1  0.4576640000000  0.5365010000000  0.5129750000000 1.0
C      1  0.4347680000000  0.5185710000000  0.5100960000000 1.0
C      1  0.4258750000000  0.4938500000000  0.5179940000000 1.0
C      1  0.4863900000000  0.4637390000000  0.5114970000000 1.0
C      1  0.5063550000000  0.4484110000000  0.4992340000000 1.0
C      1  0.5350410000000  0.4528990000000  0.4979380000000 1.0
C      1  0.5534720000000  0.4717560000000  0.5072730000000 1.0
C      1  0.5510830000000  0.5011980000000  0.5125210000000 1.0
C      1  0.5289390000000  0.5189880000000  0.5106720000000 1.0
C      1  0.4436600000000  0.5115550000000  0.4638770000000 1.0
C      1  0.4427600000000  0.4837430000000  0.4701840000000 1.0
C      1  0.4629990000000  0.4632630000000  0.4690700000000 1.0
C      1  0.4855490000000  0.4558570000000  0.4544230000000 1.0
C      1  0.5409080000000  0.4708300000000  0.4514470000000 1.0
C      1  0.5650280000000  0.4827920000000  0.4601010000000 1.0
C      1  0.5651540000000  0.5117150000000  0.4658380000000 1.0
C      1  0.5407940000000  0.5251010000000  0.4634870000000 1.0
C      1  0.5166110000000  0.5152420000000  0.4510670000000 1.0
C      1  0.4949350000000  0.5326160000000  0.4607560000000 1.0
C      1  0.4669430000000  0.5311880000000  0.4636490000000 1.0
C      1  0.5083310000000  0.5508520000000  0.4787670000000 1.0
C      1  0.4530330000000  0.5456030000000  0.4850230000000 1.0
C      1  0.4298460000000  0.5273460000000  0.4833140000000 1.0
C      1  0.4389200000000  0.4786670000000  0.4999640000000 1.0
C      1  0.4616300000000  0.4612690000000  0.4980730000000 1.0
C      1  0.5050110000000  0.4430310000000  0.4708470000000 1.0
C      1  0.5326960000000  0.4493320000000  0.4682460000000 1.0
C      1  0.5741500000000  0.4777840000000  0.4873340000000 1.0
C      1  0.5729290000000  0.5061740000000  0.4935700000000 1.0
C      1  0.5313460000000  0.5370560000000  0.4878680000000 1.0
C      1  0.4978700000000  0.5733750000000  0.4917840000000 1.0
C      1  0.4973430000000  0.5057370000000  0.5761260000000 1.0
C      1  0.4997520000000  0.5163760000000  0.5997830000000 1.0
C      1  0.4929760000000  0.4870480000000  0.5287030000000 1.0
C      1  0.4966450000000  0.4716710000000  0.4335640000000 1.0
C      1  0.5024690000000  0.5134340000000  0.5196270000000 1.0
C      1  0.5175520000000  0.4879850000000  0.4413910000000 1.0
C      1  0.4946440000000  0.4909010000000  0.5550280000000 1.0
END
