TITL C-25925-7860-2 -0.00805002592177664 125000 -422.844940249419 0 0 63 (C3) n - 1
REM
REM in /rds/project/t2_vol4/rds-t2-cs072/BORA/CARBON/from-Arr/AIRSS/Generating-Clusters/GAP-ML-2020/Higher-Symm/SD-CG/HFTN-CG
REM
REM
REM
REM
REM
REM ./C.cell (b20cbc046b6831c77cfcea5457e17084)
REM AIRSS Version 0.9.1 bugfix July 2018 build 013d7b7c2542+ Fri, 06 Jul 2018 19:26:36 +0100
REM compiler GCC version 9.3.0
REM options -cpp -mtune=generic -march=x86-64 -g -O0
REM seed 1990601011 -2009380401 829805830 -1985053060 -786285684 2105323959 -391090284 -1723443898 -1650342479 152412620 -1150540589 661964752 1885270383 990325244 -1577914166 -2133957166 -806929856 1117286039 -1200059856 -1196041625 -1853478639 983053833 555808025 1430246135 1884407545 493736824 -312163984 1116492286 -1710828523 1339579075 -247872332 -1339568393 1109011348
REM
CELL 1.54180   50.00000   50.00000   50.00000   90.00000   90.00000   90.00000
LATT -1
SFAC C  
C      1  0.4569660000000  0.5514070000000  0.4988790000000 1.0
C      1  0.5215750000000  0.5530760000000  0.4651680000000 1.0
C      1  0.5184760000000  0.5520700000000  0.5379890000000 1.0
C      1  0.4516000000000  0.4674420000000  0.5405760000000 1.0
C      1  0.4895920000000  0.4695170000000  0.4366640000000 1.0
C      1  0.5605850000000  0.4697660000000  0.5215470000000 1.0
C      1  0.5455140000000  0.4796120000000  0.5439200000000 1.0
C      1  0.4395780000000  0.4779470000000  0.5167060000000 1.0
C      1  0.5160900000000  0.4804210000000  0.4385670000000 1.0
C      1  0.5533580000000  0.5182290000000  0.4645250000000 1.0
C      1  0.5037620000000  0.5159840000000  0.5645620000000 1.0
C      1  0.4419240000000  0.5160150000000  0.4715660000000 1.0
C      1  0.4841760000000  0.4766160000000  0.4993140000000 1.0
C      1  0.5089020000000  0.4772630000000  0.4858070000000 1.0
C      1  0.5082410000000  0.4768840000000  0.5139790000000 1.0
C      1  0.4826120000000  0.4205550000000  0.4509470000000 1.0
C      1  0.5525470000000  0.4211640000000  0.5066070000000 1.0
C      1  0.4693960000000  0.4191540000000  0.5393370000000 1.0
C      1  0.4809870000000  0.5131590000000  0.4436800000000 1.0
C      1  0.5580510000000  0.5137370000000  0.5121650000000 1.0
C      1  0.4602310000000  0.5114510000000  0.5446540000000 1.0
C      1  0.5114640000000  0.4496180000000  0.5262090000000 1.0
C      1  0.4724450000000  0.4492800000000  0.4950100000000 1.0
C      1  0.5189630000000  0.4504030000000  0.4768220000000 1.0
C      1  0.5609160000000  0.4887660000000  0.5001640000000 1.0
C      1  0.4696280000000  0.4863500000000  0.5522320000000 1.0
C      1  0.4701640000000  0.4877270000000  0.4471210000000 1.0
C      1  0.5000610000000  0.4883790000000  0.5566020000000 1.0
C      1  0.4511440000000  0.4885550000000  0.4713480000000 1.0
C      1  0.5494170000000  0.4904240000000  0.4716260000000 1.0
C      1  0.5571520000000  0.5321380000000  0.4897920000000 1.0
C      1  0.4797400000000  0.5298060000000  0.5557190000000 1.0
C      1  0.4613410000000  0.5307560000000  0.4556940000000 1.0
C      1  0.5279960000000  0.5297020000000  0.5539430000000 1.0
C      1  0.4387800000000  0.5287250000000  0.4983390000000 1.0
C      1  0.5315180000000  0.5311350000000  0.4488830000000 1.0
C      1  0.4737700000000  0.5488840000000  0.4747290000000 1.0
C      1  0.5341430000000  0.5498140000000  0.4916880000000 1.0
C      1  0.4892840000000  0.5483900000000  0.5354950000000 1.0
C      1  0.5107290000000  0.5015490000000  0.5285400000000 1.0
C      1  0.4698940000000  0.5012060000000  0.4950790000000 1.0
C      1  0.5192780000000  0.5023890000000  0.4764490000000 1.0
C      1  0.4715280000000  0.5660620000000  0.5191100000000 1.0
C      1  0.4965240000000  0.5672000000000  0.4681870000000 1.0
C      1  0.5281290000000  0.5671900000000  0.5153090000000 1.0
C      1  0.4977700000000  0.5900420000000  0.4845250000000 1.0
C      1  0.5129600000000  0.5900130000000  0.5090440000000 1.0
C      1  0.4841360000000  0.5894520000000  0.5099350000000 1.0
C      1  0.5634300000000  0.4425770000000  0.5160890000000 1.0
C      1  0.4553780000000  0.4401460000000  0.5447870000000 1.0
C      1  0.4845290000000  0.4421050000000  0.4368470000000 1.0
C      1  0.5410400000000  0.5085320000000  0.5370620000000 1.0
C      1  0.4472530000000  0.5070020000000  0.5173020000000 1.0
C      1  0.5112370000000  0.5091490000000  0.4459570000000 1.0
C      1  0.4853700000000  0.5252400000000  0.4914510000000 1.0
C      1  0.5142760000000  0.5257770000000  0.4925190000000 1.0
C      1  0.4989030000000  0.5251650000000  0.5170200000000 1.0
C      1  0.5213980000000  0.4661440000000  0.5521660000000 1.0
C      1  0.4447140000000  0.4654750000000  0.4912310000000 1.0
C      1  0.5358060000000  0.4676780000000  0.4552940000000 1.0
C      1  0.5285540000000  0.4370010000000  0.5029590000000 1.0
C      1  0.4842660000000  0.4359230000000  0.5209660000000 1.0
C      1  0.4908080000000  0.4366640000000  0.4736000000000 1.0
END
