TITL C-25921-8050-5 -7.4624129579393 125000 -333.500667356705 0 0 49 (Cs) n - 1
REM
REM in /rds/project/t2_vol4/rds-t2-cs072/BORA/CARBON/from-Arr/AIRSS/Generating-Clusters/GAP-ML-2020/Higher-Symm/SD-CG/HFTN-CG
REM
REM
REM
REM
REM
REM ./C.cell (b20cbc046b6831c77cfcea5457e17084)
REM AIRSS Version 0.9.1 bugfix July 2018 build 013d7b7c2542+ Fri, 06 Jul 2018 19:26:36 +0100
REM compiler GCC version 9.3.0
REM options -cpp -mtune=generic -march=x86-64 -g -O0
REM seed 70619677 942115483 -1393898953 -572245727 1641342969 670077836 -32963242 -467554018 -1193749927 2045648861 -10509458 1110645421 751766729 -1072548400 1528200738 -1695616878 -1191292075 -1321099644 435982321 1664881999 -914156169 -648364023 -1436631525 749299837 -1548826174 341605917 1712572662 1560724 1016190573 229479139 1841940712 -410947372 -1972240502
REM
CELL 1.54180   50.00000   50.00000   50.00000   90.00000   90.00000   90.00000
LATT -1
SFAC C  
C      1  0.4940510000000  0.4446560000000  0.4807520000000 1.0
C      1  0.4940550000000  0.5541870000000  0.4807460000000 1.0
C      1  0.4615620000000  0.5559810000000  0.5461750000000 1.0
C      1  0.4615570000000  0.4428710000000  0.5461810000000 1.0
C      1  0.5287910000000  0.5506840000000  0.5163650000000 1.0
C      1  0.5287860000000  0.4481590000000  0.5163700000000 1.0
C      1  0.5220590000000  0.4435350000000  0.4877700000000 1.0
C      1  0.5220640000000  0.5553060000000  0.4877640000000 1.0
C      1  0.5598680000000  0.4850200000000  0.5066990000000 1.0
C      1  0.5598690000000  0.5138200000000  0.5066970000000 1.0
C      1  0.4620260000000  0.4687730000000  0.5375540000000 1.0
C      1  0.4620280000000  0.5300780000000  0.5375510000000 1.0
C      1  0.5045090000000  0.5139890000000  0.4482270000000 1.0
C      1  0.5045080000000  0.4848490000000  0.4482280000000 1.0
C      1  0.5325610000000  0.4852930000000  0.5456390000000 1.0
C      1  0.5325620000000  0.5135530000000  0.5456380000000 1.0
C      1  0.4366050000000  0.5140790000000  0.4946560000000 1.0
C      1  0.4366040000000  0.4847700000000  0.4946580000000 1.0
C      1  0.4822890000000  0.4853820000000  0.5515310000000 1.0
C      1  0.4822900000000  0.5134690000000  0.5515300000000 1.0
C      1  0.5574790000000  0.4768720000000  0.4799390000000 1.0
C      1  0.5574800000000  0.5219640000000  0.4799360000000 1.0
C      1  0.4571000000000  0.5284140000000  0.4550180000000 1.0
C      1  0.4570970000000  0.4704280000000  0.4550210000000 1.0
C      1  0.4743350000000  0.4430640000000  0.5010510000000 1.0
C      1  0.4743400000000  0.5557820000000  0.5010450000000 1.0
C      1  0.5106880000000  0.5126140000000  0.4987950000000 1.0
C      1  0.5106860000000  0.4862290000000  0.4987970000000 1.0
C      1  0.5307900000000  0.5225300000000  0.4507650000000 1.0
C      1  0.5307880000000  0.4763060000000  0.4507680000000 1.0
C      1  0.5077010000000  0.4721570000000  0.5497500000000 1.0
C      1  0.5077030000000  0.5266920000000  0.5497470000000 1.0
C      1  0.4368200000000  0.5143170000000  0.4651720000000 1.0
C      1  0.4368190000000  0.4845280000000  0.4651730000000 1.0
C      1  0.4822560000000  0.4841950000000  0.4906210000000 1.0
C      1  0.4822570000000  0.5146490000000  0.4906190000000 1.0
C      1  0.5391460000000  0.5416370000000  0.4707900000000 1.0
C      1  0.5391420000000  0.4572000000000  0.4707950000000 1.0
C      1  0.5076300000000  0.4476050000000  0.5344730000000 1.0
C      1  0.5076350000000  0.5512420000000  0.5344670000000 1.0
C      1  0.5462260000000  0.5290660000000  0.5257190000000 1.0
C      1  0.5462230000000  0.4697760000000  0.5257220000000 1.0
C      1  0.4819710000000  0.4363720000000  0.5284720000000 1.0
C      1  0.4819760000000  0.5624760000000  0.5284660000000 1.0
C      1  0.4836800000000  0.5297380000000  0.4636450000000 1.0
C      1  0.4836770000000  0.4691030000000  0.4636480000000 1.0
C      1  0.4598920000000  0.5287120000000  0.5062820000000 1.0
C      1  0.4598890000000  0.4701360000000  0.5062850000000 1.0
C      1  0.5499580000000  0.4994180000000  0.4603270000000 1.0
END
