TITL C-25914-9980-3 0.214378120277931 125000 -805.890315986813 0 0 116 (C5) n - 1
REM
REM in /rds/project/t2_vol4/rds-t2-cs072/BORA/CARBON/from-Arr/AIRSS/Generating-Clusters/GAP-ML-2020/Higher-Symm/SD-CG/HFTN-CG
REM
REM
REM
REM
REM
REM ./C.cell (b20cbc046b6831c77cfcea5457e17084)
REM AIRSS Version 0.9.1 bugfix July 2018 build 013d7b7c2542+ Fri, 06 Jul 2018 19:26:36 +0100
REM compiler GCC version 9.3.0
REM options -cpp -mtune=generic -march=x86-64 -g -O0
REM seed 1905314692 -160675978 2054306012 1971748542 1216859846 1442665452 1115205037 1781069394 -219595286 741663374 604124530 1321676922 1766476693 -1945972986 1747691974 1647350375 829889610 1567613276 1966305269 1308873512 -854249849 -240981136 1178832044 -1653095906 -1241311209 -515219208 1701274236 -777846720 -460057421 -1015722148 857026488 1258365808 1321540134
REM
CELL 1.54180   50.00000   50.00000   50.00000   90.00000   90.00000   90.00000
LATT -1
SFAC C  
C      1  0.4711790000000  0.5830480000000  0.5037820000000 1.0
C      1  0.4712230000000  0.5226090000000  0.5802500000000 1.0
C      1  0.4712300000000  0.4312070000000  0.5463990000000 1.0
C      1  0.4711900000000  0.4351560000000  0.4490100000000 1.0
C      1  0.4711580000000  0.5289990000000  0.4226710000000 1.0
C      1  0.4683760000000  0.4752720000000  0.5755760000000 1.0
C      1  0.4683580000000  0.4210250000000  0.4999360000000 1.0
C      1  0.4683150000000  0.4761990000000  0.4249700000000 1.0
C      1  0.4683070000000  0.5645460000000  0.4542780000000 1.0
C      1  0.4683450000000  0.5639730000000  0.5473580000000 1.0
C      1  0.4550390000000  0.5802200000000  0.4775840000000 1.0
C      1  0.4550830000000  0.5466540000000  0.5694730000000 1.0
C      1  0.4551040000000  0.4488900000000  0.5659450000000 1.0
C      1  0.4550720000000  0.4220350000000  0.4718760000000 1.0
C      1  0.4550320000000  0.5032010000000  0.4172660000000 1.0
C      1  0.5351650000000  0.4268970000000  0.4723140000000 1.0
C      1  0.5351270000000  0.5042690000000  0.4219860000000 1.0
C      1  0.5351340000000  0.5760430000000  0.4800190000000 1.0
C      1  0.5351770000000  0.5430290000000  0.5662130000000 1.0
C      1  0.5351950000000  0.4508520000000  0.5614510000000 1.0
C      1  0.4984660000000  0.5111060000000  0.5904210000000 1.0
C      1  0.4984660000000  0.4179730000000  0.5385890000000 1.0
C      1  0.4984200000000  0.4384880000000  0.4339970000000 1.0
C      1  0.4983910000000  0.5443010000000  0.4211870000000 1.0
C      1  0.4984200000000  0.5891820000000  0.5178630000000 1.0
C      1  0.4286140000000  0.4848290000000  0.5455510000000 1.0
C      1  0.4286030000000  0.4525430000000  0.4997670000000 1.0
C      1  0.4285770000000  0.4861090000000  0.4549120000000 1.0
C      1  0.4285730000000  0.5391410000000  0.4729750000000 1.0
C      1  0.4285950000000  0.5383500000000  0.5289930000000 1.0
C      1  0.5593600000000  0.5607510000000  0.4797570000000 1.0
C      1  0.5593940000000  0.5385480000000  0.5515770000000 1.0
C      1  0.5594110000000  0.4633820000000  0.5526550000000 1.0
C      1  0.5593880000000  0.4391300000000  0.4815010000000 1.0
C      1  0.5593570000000  0.4993070000000  0.4364470000000 1.0
C      1  0.4964330000000  0.4739970000000  0.4637800000000 1.0
C      1  0.4964220000000  0.5269490000000  0.4641630000000 1.0
C      1  0.4964390000000  0.5429480000000  0.5146410000000 1.0
C      1  0.4964610000000  0.4998840000000  0.5454560000000 1.0
C      1  0.4964570000000  0.4572700000000  0.5140220000000 1.0
C      1  0.5618510000000  0.4893850000000  0.5637710000000 1.0
C      1  0.5618410000000  0.4365920000000  0.5096650000000 1.0
C      1  0.5618060000000  0.4717360000000  0.4427360000000 1.0
C      1  0.5617940000000  0.5462500000000  0.4554780000000 1.0
C      1  0.5618220000000  0.5571570000000  0.5302810000000 1.0
C      1  0.4326340000000  0.5642220000000  0.4866010000000 1.0
C      1  0.4326690000000  0.5331410000000  0.5570550000000 1.0
C      1  0.4326830000000  0.4565300000000  0.5492670000000 1.0
C      1  0.4326570000000  0.4402630000000  0.4739990000000 1.0
C      1  0.4326260000000  0.5068200000000  0.4352690000000 1.0
C      1  0.5253120000000  0.5324640000000  0.4223730000000 1.0
C      1  0.5253340000000  0.5843900000000  0.5069580000000 1.0
C      1  0.5253790000000  0.5199910000000  0.5824820000000 1.0
C      1  0.5253840000000  0.4282630000000  0.5445720000000 1.0
C      1  0.5253430000000  0.4359720000000  0.4456190000000 1.0
C      1  0.4308010000000  0.5335520000000  0.4451100000000 1.0
C      1  0.4308220000000  0.5631230000000  0.5150660000000 1.0
C      1  0.4308550000000  0.5057300000000  0.5648070000000 1.0
C      1  0.4308540000000  0.4406870000000  0.5255940000000 1.0
C      1  0.4308200000000  0.4578820000000  0.4516170000000 1.0
C      1  0.4826880000000  0.4515590000000  0.4701670000000 1.0
C      1  0.4826640000000  0.5139440000000  0.4448030000000 1.0
C      1  0.4826750000000  0.5573440000000  0.4962970000000 1.0
C      1  0.4827060000000  0.5217820000000  0.5534860000000 1.0
C      1  0.4827140000000  0.4564040000000  0.5373370000000 1.0
C      1  0.5695140000000  0.4605690000000  0.5246210000000 1.0
C      1  0.5694910000000  0.4649190000000  0.4701570000000 1.0
C      1  0.5694740000000  0.5180620000000  0.4574640000000 1.0
C      1  0.5694870000000  0.5465560000000  0.5040840000000 1.0
C      1  0.5695110000000  0.5110230000000  0.5455890000000 1.0
C      1  0.5394300000000  0.4229960000000  0.5198100000000 1.0
C      1  0.5393870000000  0.4578910000000  0.4329510000000 1.0
C      1  0.5393690000000  0.5512820000000  0.4392980000000 1.0
C      1  0.5394000000000  0.5741060000000  0.5300790000000 1.0
C      1  0.5394380000000  0.4948200000000  0.5798380000000 1.0
C      1  0.4493600000000  0.5207620000000  0.5162370000000 1.0
C      1  0.4493700000000  0.4915220000000  0.5248720000000 1.0
C      1  0.4493640000000  0.4742730000000  0.4997320000000 1.0
C      1  0.4493500000000  0.4928530000000  0.4755580000000 1.0
C      1  0.4493480000000  0.5215850000000  0.4857590000000 1.0
C      1  0.5177270000000  0.5142380000000  0.4776310000000 1.0
C      1  0.5177360000000  0.5262060000000  0.5067040000000 1.0
C      1  0.5177500000000  0.5022550000000  0.5270710000000 1.0
C      1  0.5177490000000  0.4754830000000  0.5105850000000 1.0
C      1  0.5177350000000  0.4828890000000  0.4800290000000 1.0
C      1  0.5898990000000  0.5060080000000  0.5240850000000 1.0
C      1  0.5899010000000  0.4794660000000  0.5131960000000 1.0
C      1  0.5898890000000  0.4816200000000  0.4845880000000 1.0
C      1  0.5898800000000  0.5094930000000  0.4777970000000 1.0
C      1  0.5898860000000  0.5245660000000  0.5022070000000 1.0
C      1  0.5225470000000  0.4712650000000  0.5797140000000 1.0
C      1  0.5225260000000  0.4158390000000  0.4973780000000 1.0
C      1  0.5224810000000  0.4770180000000  0.4192200000000 1.0
C      1  0.5224740000000  0.5702550000000  0.4532530000000 1.0
C      1  0.5225140000000  0.5667000000000  0.5524440000000 1.0
C      1  0.5483470000000  0.5109890000000  0.4779480000000 1.0
C      1  0.5483550000000  0.5248940000000  0.5036970000000 1.0
C      1  0.5483680000000  0.5047010000000  0.5248780000000 1.0
C      1  0.5483680000000  0.4783180000000  0.5122190000000 1.0
C      1  0.5483560000000  0.4822040000000  0.4832150000000 1.0
C      1  0.4527510000000  0.4528410000000  0.4338600000000 1.0
C      1  0.4527300000000  0.5488770000000  0.4348180000000 1.0
C      1  0.4527600000000  0.5776420000000  0.5264490000000 1.0
C      1  0.4528000000000  0.4993850000000  0.5821230000000 1.0
C      1  0.4527940000000  0.4222540000000  0.5249000000000 1.0
C      1  0.4739580000000  0.5355920000000  0.5302010000000 1.0
C      1  0.4739750000000  0.4828180000000  0.5432790000000 1.0
C      1  0.4739630000000  0.4540720000000  0.4971300000000 1.0
C      1  0.4739390000000  0.4890790000000  0.4555290000000 1.0
C      1  0.4739360000000  0.5394620000000  0.4759690000000 1.0
C      1  0.4962080000000  0.5657550000000  0.4416280000000 1.0
C      1  0.4962470000000  0.5763720000000  0.5445850000000 1.0
C      1  0.4962850000000  0.4817350000000  0.5864970000000 1.0
C      1  0.4962690000000  0.4126290000000  0.5094440000000 1.0
C      1  0.4962220000000  0.4645570000000  0.4199100000000 1.0
C      1  0.5068190000000  0.5002120000000  0.5004080000000 1.0
END
