TITL C-25636-9994-3 -53.7988496441289 125000 -1130.15192071797 0 0 166 (C1) n - 1
REM
REM in /rds/project/t2_vol4/rds-t2-cs072/BORA/CARBON/from-Arr/AIRSS/Generating-Clusters/GAP-ML-2020/Higher-Symm/SD-CG/HFTN-CG
REM
REM
REM
REM
REM
REM ./C.cell (b20cbc046b6831c77cfcea5457e17084)
REM AIRSS Version 0.9.1 bugfix July 2018 build 013d7b7c2542+ Fri, 06 Jul 2018 19:26:36 +0100
REM compiler GCC version 9.3.0
REM options -cpp -mtune=generic -march=x86-64 -g -O0
REM seed -1185909027 1990932893 -234635562 86408879 1526660838 563812665 1071249354 413289094 -692349395 -23099745 936937859 -164471401 1707195915 797717717 376342951 1673183483 -456289925 1478971845 81149617 -1003665425 -12407479 -1387199031 142659497 -490377169 963121812 -842112619 502961968 -1314740112 1747163463 2063469663 -1010605497 -2015023045 -1934601670
REM
CELL 1.54180   50.00000   50.00000   50.00000   90.00000   90.00000   90.00000
LATT -1
SFAC C  
C      1  0.4800500000000  0.4998790000000  0.4683950000000 1.0
C      1  0.4818600000000  0.4737000000000  0.4839580000000 1.0
C      1  0.4847050000000  0.4653430000000  0.5447080000000 1.0
C      1  0.4776330000000  0.4906400000000  0.5333740000000 1.0
C      1  0.4780620000000  0.5166530000000  0.4946440000000 1.0
C      1  0.5198900000000  0.5107690000000  0.4757830000000 1.0
C      1  0.5225370000000  0.4841310000000  0.4874790000000 1.0
C      1  0.5139340000000  0.4867640000000  0.5142000000000 1.0
C      1  0.5187090000000  0.5146270000000  0.5232440000000 1.0
C      1  0.5166440000000  0.5302180000000  0.4967980000000 1.0
C      1  0.4495720000000  0.5176520000000  0.4884740000000 1.0
C      1  0.4508960000000  0.4936080000000  0.4705420000000 1.0
C      1  0.4538480000000  0.4706220000000  0.4918490000000 1.0
C      1  0.4514950000000  0.4850350000000  0.5209130000000 1.0
C      1  0.4439910000000  0.5120370000000  0.5150930000000 1.0
C      1  0.5464750000000  0.5317610000000  0.4917120000000 1.0
C      1  0.5496920000000  0.5058760000000  0.4756470000000 1.0
C      1  0.5505910000000  0.4828930000000  0.4948380000000 1.0
C      1  0.5548440000000  0.4943150000000  0.5205740000000 1.0
C      1  0.5472510000000  0.5219640000000  0.5211330000000 1.0
C      1  0.4423810000000  0.5774310000000  0.5168490000000 1.0
C      1  0.4415420000000  0.5425090000000  0.4298920000000 1.0
C      1  0.4328750000000  0.4458470000000  0.4424910000000 1.0
C      1  0.4353150000000  0.4270530000000  0.5356490000000 1.0
C      1  0.4346470000000  0.5106270000000  0.5820650000000 1.0
C      1  0.5666910000000  0.5768520000000  0.5156040000000 1.0
C      1  0.5669330000000  0.5404770000000  0.4280130000000 1.0
C      1  0.5574640000000  0.4479700000000  0.4389570000000 1.0
C      1  0.5592220000000  0.4267010000000  0.5311700000000 1.0
C      1  0.5597470000000  0.5058780000000  0.5822370000000 1.0
C      1  0.4899840000000  0.5584790000000  0.5229120000000 1.0
C      1  0.4934710000000  0.5406200000000  0.4471010000000 1.0
C      1  0.4810450000000  0.4615170000000  0.4278870000000 1.0
C      1  0.4827870000000  0.4200310000000  0.5157470000000 1.0
C      1  0.4813260000000  0.4882470000000  0.5835740000000 1.0
C      1  0.5179420000000  0.5714840000000  0.5348690000000 1.0
C      1  0.5195130000000  0.5579340000000  0.4396410000000 1.0
C      1  0.5091740000000  0.4651840000000  0.4441580000000 1.0
C      1  0.5109080000000  0.4371750000000  0.5173050000000 1.0
C      1  0.5083280000000  0.4981030000000  0.5680660000000 1.0
C      1  0.5227990000000  0.4741020000000  0.6026800000000 1.0
C      1  0.5033380000000  0.5848560000000  0.5593590000000 1.0
C      1  0.5045330000000  0.5846030000000  0.4345380000000 1.0
C      1  0.5227420000000  0.4620760000000  0.4019490000000 1.0
C      1  0.5244770000000  0.3964430000000  0.5056200000000 1.0
C      1  0.4950350000000  0.4694640000000  0.6025720000000 1.0
C      1  0.4760140000000  0.5853040000000  0.5556690000000 1.0
C      1  0.4773770000000  0.5800750000000  0.4331130000000 1.0
C      1  0.4952500000000  0.4652760000000  0.4002280000000 1.0
C      1  0.4969560000000  0.3952520000000  0.5034170000000 1.0
C      1  0.3613690000000  0.5207510000000  0.5181500000000 1.0
C      1  0.3617640000000  0.5268080000000  0.4894520000000 1.0
C      1  0.3599660000000  0.5010240000000  0.4749540000000 1.0
C      1  0.3589050000000  0.4786780000000  0.4948460000000 1.0
C      1  0.3597170000000  0.4916010000000  0.5214810000000 1.0
C      1  0.6401630000000  0.5136470000000  0.5188620000000 1.0
C      1  0.6406740000000  0.5199780000000  0.4895070000000 1.0
C      1  0.6393690000000  0.4944890000000  0.4742500000000 1.0
C      1  0.6380210000000  0.4727040000000  0.4941860000000 1.0
C      1  0.6385530000000  0.4842920000000  0.5213500000000 1.0
C      1  0.5387040000000  0.5475240000000  0.4202030000000 1.0
C      1  0.5290550000000  0.4469110000000  0.4277770000000 1.0
C      1  0.5311730000000  0.4151370000000  0.5290510000000 1.0
C      1  0.5294660000000  0.5026150000000  0.5915460000000 1.0
C      1  0.5366570000000  0.5854950000000  0.5176930000000 1.0
C      1  0.4718910000000  0.5505760000000  0.4253560000000 1.0
C      1  0.4624880000000  0.4402430000000  0.4347130000000 1.0
C      1  0.4646820000000  0.4179140000000  0.5387900000000 1.0
C      1  0.4618110000000  0.5076960000000  0.5928470000000 1.0
C      1  0.4706690000000  0.5836680000000  0.5255620000000 1.0
C      1  0.4632850000000  0.4838630000000  0.4205350000000 1.0
C      1  0.4646390000000  0.4202880000000  0.4924440000000 1.0
C      1  0.4685870000000  0.4649440000000  0.5684360000000 1.0
C      1  0.4789970000000  0.5397530000000  0.5443630000000 1.0
C      1  0.4791280000000  0.5541940000000  0.4711530000000 1.0
C      1  0.5204820000000  0.4926760000000  0.4368130000000 1.0
C      1  0.5221550000000  0.4400600000000  0.4894000000000 1.0
C      1  0.5237850000000  0.4721860000000  0.5572240000000 1.0
C      1  0.5357650000000  0.5585030000000  0.5547780000000 1.0
C      1  0.5367410000000  0.5718340000000  0.4594060000000 1.0
C      1  0.5506430000000  0.4966190000000  0.4468520000000 1.0
C      1  0.5509140000000  0.4521750000000  0.4903590000000 1.0
C      1  0.5518690000000  0.4773290000000  0.5450560000000 1.0
C      1  0.5554980000000  0.5401130000000  0.5441720000000 1.0
C      1  0.5558000000000  0.5555570000000  0.4742100000000 1.0
C      1  0.4435990000000  0.4923710000000  0.4407760000000 1.0
C      1  0.4444710000000  0.4418110000000  0.4902780000000 1.0
C      1  0.4430860000000  0.4726070000000  0.5500000000000 1.0
C      1  0.4495640000000  0.5321260000000  0.5366180000000 1.0
C      1  0.4495120000000  0.5452890000000  0.4763130000000 1.0
C      1  0.5736110000000  0.5146580000000  0.4374690000000 1.0
C      1  0.5693240000000  0.4494130000000  0.4661860000000 1.0
C      1  0.5701970000000  0.4533020000000  0.5387120000000 1.0
C      1  0.5739460000000  0.5223260000000  0.5601850000000 1.0
C      1  0.5773890000000  0.5650400000000  0.4924690000000 1.0
C      1  0.4264080000000  0.5169710000000  0.4378280000000 1.0
C      1  0.4235180000000  0.4437670000000  0.4690230000000 1.0
C      1  0.4231960000000  0.4525590000000  0.5419290000000 1.0
C      1  0.4278110000000  0.5230810000000  0.5569510000000 1.0
C      1  0.4311930000000  0.5612530000000  0.4950980000000 1.0
C      1  0.4235920000000  0.4390610000000  0.5123340000000 1.0
C      1  0.4242940000000  0.4923170000000  0.5616850000000 1.0
C      1  0.4307590000000  0.5540400000000  0.5270280000000 1.0
C      1  0.4284750000000  0.5433650000000  0.4545410000000 1.0
C      1  0.4221160000000  0.4719270000000  0.4418080000000 1.0
C      1  0.5708860000000  0.4405230000000  0.5096300000000 1.0
C      1  0.5726250000000  0.4913480000000  0.5620740000000 1.0
C      1  0.5771770000000  0.5562710000000  0.5314620000000 1.0
C      1  0.5764010000000  0.5447300000000  0.4545820000000 1.0
C      1  0.5699590000000  0.4725830000000  0.4451480000000 1.0
C      1  0.4889650000000  0.5398430000000  0.4023980000000 1.0
C      1  0.4832080000000  0.4199770000000  0.4352490000000 1.0
C      1  0.4853160000000  0.4114540000000  0.5583420000000 1.0
C      1  0.4812710000000  0.5254820000000  0.6033450000000 1.0
C      1  0.4864630000000  0.6015220000000  0.5083300000000 1.0
C      1  0.5193840000000  0.5388490000000  0.4013360000000 1.0
C      1  0.5134290000000  0.4222350000000  0.4323430000000 1.0
C      1  0.5153730000000  0.4120690000000  0.5543620000000 1.0
C      1  0.5116090000000  0.5246220000000  0.6031260000000 1.0
C      1  0.5164700000000  0.6022100000000  0.5053210000000 1.0
C      1  0.4783610000000  0.4481020000000  0.5915710000000 1.0
C      1  0.4743790000000  0.5596320000000  0.5674190000000 1.0
C      1  0.4760230000000  0.5825100000000  0.4613620000000 1.0
C      1  0.4772300000000  0.4885720000000  0.3961940000000 1.0
C      1  0.4779950000000  0.3979840000000  0.4808320000000 1.0
C      1  0.5262720000000  0.4554180000000  0.5817890000000 1.0
C      1  0.5215210000000  0.5693280000000  0.5767960000000 1.0
C      1  0.5229120000000  0.5961990000000  0.4550380000000 1.0
C      1  0.5247390000000  0.4896530000000  0.4069560000000 1.0
C      1  0.5257100000000  0.4110850000000  0.4812240000000 1.0
C      1  0.6092620000000  0.5226700000000  0.4890420000000 1.0
C      1  0.6079210000000  0.4956730000000  0.4722780000000 1.0
C      1  0.6069850000000  0.4719320000000  0.4932730000000 1.0
C      1  0.6075670000000  0.4848220000000  0.5236110000000 1.0
C      1  0.6089190000000  0.5161700000000  0.5201190000000 1.0
C      1  0.3930070000000  0.5271950000000  0.4886580000000 1.0
C      1  0.3915130000000  0.4993440000000  0.4736030000000 1.0
C      1  0.3904450000000  0.4759620000000  0.4948270000000 1.0
C      1  0.3908290000000  0.4889980000000  0.5231790000000 1.0
C      1  0.3922820000000  0.5208570000000  0.5200860000000 1.0
C      1  0.4819370000000  0.5533050000000  0.5948190000000 1.0
C      1  0.4836760000000  0.6043740000000  0.4792410000000 1.0
C      1  0.4883140000000  0.5136460000000  0.3889850000000 1.0
C      1  0.4879590000000  0.3985010000000  0.4548610000000 1.0
C      1  0.4894930000000  0.4236060000000  0.5850500000000 1.0
C      1  0.5111500000000  0.5537820000000  0.5978500000000 1.0
C      1  0.5123390000000  0.6093800000000  0.4769180000000 1.0
C      1  0.5175630000000  0.5118160000000  0.3901080000000 1.0
C      1  0.5167190000000  0.4035470000000  0.4546470000000 1.0
C      1  0.5180980000000  0.4273850000000  0.5795030000000 1.0
C      1  0.4101270000000  0.5497820000000  0.4781840000000 1.0
C      1  0.4060370000000  0.4957160000000  0.4471720000000 1.0
C      1  0.4053320000000  0.4491350000000  0.4909160000000 1.0
C      1  0.4049290000000  0.4758600000000  0.5465510000000 1.0
C      1  0.4091180000000  0.5374340000000  0.5387150000000 1.0
C      1  0.5946580000000  0.5471530000000  0.4774020000000 1.0
C      1  0.5915170000000  0.4931990000000  0.4462180000000 1.0
C      1  0.5900790000000  0.4475400000000  0.4877520000000 1.0
C      1  0.5911320000000  0.4726370000000  0.5460340000000 1.0
C      1  0.5939210000000  0.5342530000000  0.5399760000000 1.0
C      1  0.5074020000000  0.4617540000000  0.4740170000000 1.0
C      1  0.4968880000000  0.5149020000000  0.5451100000000 1.0
C      1  0.5104950000000  0.4624640000000  0.5330910000000 1.0
C      1  0.4917580000000  0.5442190000000  0.4965640000000 1.0
C      1  0.5020210000000  0.5118490000000  0.4526490000000 1.0
C      1  0.4867320000000  0.4914350000000  0.5068680000000 1.0
END
