TITL C-25619-1-1 56.2659950721236 125000 -624.899932653729 0 0 86 (C1) n - 1
REM
REM in /rds/project/t2_vol4/rds-t2-cs072/BORA/CARBON/from-Arr/AIRSS/Generating-Clusters/GAP-ML-2020/Higher-Symm/SD-CG/HFTN-CG
REM
REM
REM
REM
REM
REM ./C.cell (b20cbc046b6831c77cfcea5457e17084)
REM AIRSS Version 0.9.1 bugfix July 2018 build 013d7b7c2542+ Fri, 06 Jul 2018 19:26:36 +0100
REM compiler GCC version 9.3.0
REM options -cpp -mtune=generic -march=x86-64 -g -O0
REM seed 370780441 825591958 1345714678 2131815906 -249127780 1881780258 -928605718 -97740033 152366606 -752242414 -579610575 1416861409 236893863 -415383937 -528009204 -929363670 724069177 -990538399 498170884 -2111132588 308367165 -1120922049 -350609792 851669242 -1416655143 -1551546149 614535954 658961460 -320152518 -1437166575 -865975683 -2065492239 1798761833
REM
CELL 1.54180   50.00000   50.00000   50.00000   90.00000   90.00000   90.00000
LATT -1
SFAC C  
C      1  0.5254070000000  0.5747470000000  0.4859080000000 1.0
C      1  0.4752470000000  0.4262960000000  0.5137530000000 1.0
C      1  0.4720170000000  0.5218140000000  0.5591120000000 1.0
C      1  0.5283130000000  0.4783970000000  0.4410650000000 1.0
C      1  0.4338000000000  0.4910550000000  0.5466300000000 1.0
C      1  0.5672060000000  0.5083180000000  0.4548200000000 1.0
C      1  0.5152140000000  0.5231640000000  0.5076430000000 1.0
C      1  0.4869070000000  0.4787740000000  0.4917670000000 1.0
C      1  0.5692190000000  0.4645520000000  0.4666230000000 1.0
C      1  0.4304790000000  0.5353160000000  0.5354920000000 1.0
C      1  0.4692090000000  0.5643980000000  0.5328500000000 1.0
C      1  0.5306590000000  0.4351620000000  0.4660160000000 1.0
C      1  0.5660890000000  0.5484630000000  0.4779710000000 1.0
C      1  0.4349730000000  0.4535040000000  0.5204970000000 1.0
C      1  0.5561660000000  0.4420100000000  0.4758250000000 1.0
C      1  0.4439080000000  0.5562520000000  0.5232430000000 1.0
C      1  0.4751470000000  0.5575790000000  0.4384090000000 1.0
C      1  0.5338000000000  0.4531890000000  0.5515020000000 1.0
C      1  0.5075670000000  0.5022930000000  0.5264710000000 1.0
C      1  0.4940000000000  0.5003400000000  0.4727730000000 1.0
C      1  0.4695620000000  0.5159810000000  0.5082700000000 1.0
C      1  0.5325730000000  0.4872040000000  0.4916050000000 1.0
C      1  0.5111870000000  0.5268240000000  0.4290720000000 1.0
C      1  0.4902160000000  0.4730770000000  0.5702480000000 1.0
C      1  0.5566710000000  0.4405780000000  0.5045940000000 1.0
C      1  0.4429480000000  0.5545990000000  0.4941530000000 1.0
C      1  0.4732030000000  0.4650990000000  0.4324250000000 1.0
C      1  0.5270070000000  0.5348180000000  0.5675160000000 1.0
C      1  0.4186330000000  0.4731500000000  0.5067090000000 1.0
C      1  0.5835880000000  0.5295250000000  0.4916350000000 1.0
C      1  0.5402340000000  0.5138960000000  0.4995170000000 1.0
C      1  0.4645340000000  0.4884440000000  0.5042590000000 1.0
C      1  0.4495120000000  0.4356120000000  0.5051420000000 1.0
C      1  0.5507100000000  0.5652370000000  0.4946450000000 1.0
C      1  0.4264500000000  0.5301830000000  0.4874540000000 1.0
C      1  0.5692290000000  0.4640660000000  0.5156420000000 1.0
C      1  0.5281640000000  0.5438340000000  0.4458830000000 1.0
C      1  0.4734100000000  0.4562470000000  0.5534820000000 1.0
C      1  0.5096100000000  0.5791440000000  0.5098700000000 1.0
C      1  0.4896670000000  0.4212420000000  0.4891060000000 1.0
C      1  0.4168080000000  0.4948880000000  0.5238140000000 1.0
C      1  0.5833250000000  0.5045780000000  0.4783030000000 1.0
C      1  0.5533230000000  0.4954140000000  0.5587820000000 1.0
C      1  0.4440220000000  0.5013940000000  0.4440870000000 1.0
C      1  0.4841980000000  0.5674930000000  0.4615460000000 1.0
C      1  0.5180020000000  0.4349640000000  0.5363400000000 1.0
C      1  0.5521610000000  0.5251720000000  0.5563680000000 1.0
C      1  0.4477680000000  0.4726500000000  0.4428680000000 1.0
C      1  0.5498340000000  0.5622140000000  0.5235420000000 1.0
C      1  0.4494600000000  0.4386490000000  0.4765110000000 1.0
C      1  0.4467790000000  0.4650180000000  0.5443560000000 1.0
C      1  0.5541780000000  0.5352310000000  0.4553250000000 1.0
C      1  0.5173540000000  0.4226570000000  0.4884170000000 1.0
C      1  0.4818570000000  0.5757960000000  0.5095140000000 1.0
C      1  0.4887160000000  0.4452760000000  0.4451820000000 1.0
C      1  0.5112600000000  0.5550650000000  0.5545790000000 1.0
C      1  0.4811820000000  0.5082780000000  0.5328250000000 1.0
C      1  0.5203360000000  0.4936430000000  0.4666240000000 1.0
C      1  0.5319150000000  0.4281580000000  0.5123970000000 1.0
C      1  0.4672880000000  0.5690330000000  0.4856320000000 1.0
C      1  0.4830550000000  0.5505630000000  0.5534050000000 1.0
C      1  0.5170010000000  0.4500600000000  0.4461180000000 1.0
C      1  0.5146410000000  0.5122580000000  0.5802930000000 1.0
C      1  0.4845120000000  0.4893520000000  0.4224240000000 1.0
C      1  0.5114880000000  0.4976640000000  0.4249300000000 1.0
C      1  0.4884720000000  0.5027760000000  0.5756410000000 1.0
C      1  0.4223000000000  0.4801900000000  0.4795700000000 1.0
C      1  0.5699050000000  0.5224570000000  0.5144910000000 1.0
C      1  0.5240290000000  0.5697460000000  0.5329690000000 1.0
C      1  0.4751650000000  0.4312100000000  0.4665580000000 1.0
C      1  0.4662740000000  0.5110210000000  0.4274570000000 1.0
C      1  0.5326260000000  0.4903810000000  0.5773980000000 1.0
C      1  0.5567590000000  0.4707360000000  0.5415990000000 1.0
C      1  0.4281780000000  0.5075460000000  0.4684730000000 1.0
C      1  0.4425720000000  0.5175640000000  0.5543740000000 1.0
C      1  0.5579100000000  0.4822510000000  0.4467940000000 1.0
C      1  0.5138980000000  0.5647630000000  0.4621320000000 1.0
C      1  0.4881880000000  0.4361970000000  0.5373020000000 1.0
C      1  0.4833160000000  0.5346110000000  0.4272820000000 1.0
C      1  0.5183330000000  0.4667500000000  0.5714070000000 1.0
C      1  0.4355910000000  0.4599990000000  0.4646490000000 1.0
C      1  0.5633580000000  0.5400300000000  0.5351210000000 1.0
C      1  0.5801860000000  0.4780120000000  0.4899540000000 1.0
C      1  0.4174820000000  0.5213480000000  0.5139280000000 1.0
C      1  0.4924690000000  0.5231850000000  0.4899810000000 1.0
C      1  0.5100880000000  0.4793760000000  0.5091380000000 1.0
END
