TITL C-25018-6-8 -0.0765407695748454 125000 -359.663494189644 0 0 54 (C2) n - 1
REM
REM in /rds/project/t2_vol4/rds-t2-cs072/BORA/CARBON/from-Arr/AIRSS/Generating-Clusters/GAP-ML-2020/Higher-Symm/SD-CG/HFTN-CG
REM
REM
REM
REM
REM
REM ./C.cell (b20cbc046b6831c77cfcea5457e17084)
REM AIRSS Version 0.9.1 bugfix July 2018 build 013d7b7c2542+ Fri, 06 Jul 2018 19:26:36 +0100
REM compiler GCC version 9.3.0
REM options -cpp -mtune=generic -march=x86-64 -g -O0
REM seed 982517483 1147299871 1096202240 1097683936 1209316918 -820128532 -353637255 263620433 19808725 -1206278586 -76592438 771596719 -1417548062 -1285916474 -1662934956 1725141059 -1512966552 -146429558 451465496 395415912 -458821081 -426261187 1703152359 -1554221467 -943274141 -1130063881 -1716430167 249551479 -922989268 1272196846 1612505204 -1209002574 -1308672965
REM
CELL 1.54180   50.00000   50.00000   50.00000   90.00000   90.00000   90.00000
LATT -1
SFAC C  
C      1  0.4267900000000  0.5306250000000  0.5147180000000 1.0
C      1  0.4321530000000  0.5304360000000  0.4700120000000 1.0
C      1  0.4280650000000  0.4821190000000  0.4639080000000 1.0
C      1  0.4277650000000  0.4586930000000  0.5052900000000 1.0
C      1  0.4271980000000  0.4916890000000  0.5350010000000 1.0
C      1  0.5726840000000  0.5324260000000  0.4832760000000 1.0
C      1  0.5723210000000  0.5255450000000  0.5266360000000 1.0
C      1  0.5679870000000  0.4829360000000  0.5405310000000 1.0
C      1  0.5737410000000  0.4619720000000  0.4967600000000 1.0
C      1  0.5738390000000  0.4937900000000  0.4614190000000 1.0
C      1  0.4162830000000  0.4676670000000  0.5290050000000 1.0
C      1  0.4143480000000  0.5164360000000  0.5349230000000 1.0
C      1  0.4169070000000  0.5413160000000  0.4919200000000 1.0
C      1  0.4226080000000  0.5085990000000  0.4565240000000 1.0
C      1  0.4160840000000  0.4626140000000  0.4801110000000 1.0
C      1  0.5859610000000  0.4715330000000  0.4733980000000 1.0
C      1  0.5844880000000  0.5194770000000  0.4626570000000 1.0
C      1  0.5847420000000  0.5405980000000  0.5070530000000 1.0
C      1  0.5823770000000  0.5076340000000  0.5442350000000 1.0
C      1  0.5785240000000  0.4635340000000  0.5243310000000 1.0
C      1  0.4794310000000  0.5246090000000  0.4510540000000 1.0
C      1  0.4899800000000  0.4459360000000  0.4671550000000 1.0
C      1  0.4943430000000  0.4569440000000  0.5416720000000 1.0
C      1  0.4852200000000  0.5268610000000  0.5584810000000 1.0
C      1  0.4883250000000  0.5650610000000  0.5009810000000 1.0
C      1  0.5100550000000  0.5214830000000  0.5622390000000 1.0
C      1  0.5213610000000  0.4616210000000  0.5399490000000 1.0
C      1  0.5129450000000  0.4516280000000  0.4600160000000 1.0
C      1  0.5065380000000  0.5256160000000  0.4466900000000 1.0
C      1  0.5130560000000  0.5639880000000  0.5078390000000 1.0
C      1  0.5431100000000  0.5293110000000  0.4823950000000 1.0
C      1  0.5453990000000  0.4922320000000  0.4548950000000 1.0
C      1  0.5457920000000  0.4590160000000  0.4936720000000 1.0
C      1  0.5404820000000  0.4827460000000  0.5504310000000 1.0
C      1  0.5423260000000  0.5226100000000  0.5244700000000 1.0
C      1  0.4569040000000  0.5285920000000  0.5133070000000 1.0
C      1  0.4568670000000  0.4908040000000  0.5330020000000 1.0
C      1  0.4563820000000  0.4529160000000  0.5065330000000 1.0
C      1  0.4561570000000  0.4791400000000  0.4627230000000 1.0
C      1  0.4594170000000  0.5406320000000  0.4673150000000 1.0
C      1  0.5310580000000  0.5103390000000  0.5490000000000 1.0
C      1  0.5316000000000  0.5440710000000  0.5059170000000 1.0
C      1  0.5309640000000  0.5187190000000  0.4557650000000 1.0
C      1  0.5310490000000  0.4717500000000  0.4704610000000 1.0
C      1  0.5244760000000  0.4637160000000  0.5117590000000 1.0
C      1  0.4768960000000  0.4984510000000  0.4619210000000 1.0
C      1  0.4679920000000  0.5483140000000  0.4941420000000 1.0
C      1  0.4673650000000  0.5181430000000  0.5397880000000 1.0
C      1  0.4699470000000  0.4625890000000  0.5316950000000 1.0
C      1  0.4710140000000  0.4616380000000  0.4825010000000 1.0
C      1  0.5385500000000  0.5052470000000  0.5006160000000 1.0
C      1  0.4617710000000  0.5005980000000  0.5045090000000 1.0
C      1  0.4862030000000  0.4913390000000  0.4899560000000 1.0
C      1  0.5147610000000  0.4877450000000  0.4959030000000 1.0
END
