TITL C-25627-57-5 -0.0400931477238857 125000 -533.911115857218 0 0 79 (C1) n - 1
REM
REM in /rds/project/t2_vol4/rds-t2-cs072/BORA/CARBON/from-Arr/AIRSS/Generating-Clusters/GAP-ML-2020/Higher-Symm/SD-CG/HFTN-CG
REM
REM
REM
REM
REM
REM ./C.cell (b20cbc046b6831c77cfcea5457e17084)
REM AIRSS Version 0.9.1 bugfix July 2018 build 013d7b7c2542+ Fri, 06 Jul 2018 19:26:36 +0100
REM compiler GCC version 9.3.0
REM options -cpp -mtune=generic -march=x86-64 -g -O0
REM seed 565515071 670322421 -893921582 -816403599 1041764360 837590409 -303622391 -1054020389 -1684157313 339055772 -657931171 1246325929 1131143338 -2045883928 1554577526 -1327657585 895893159 1799659377 810145541 951602615 1296160305 -2079223589 194544064 -196412461 575812095 1083912298 449338261 -1494986352 1463969331 1192381389 -2049764303 -1168573409 -1829282724
REM
CELL 1.54180   50.00000   50.00000   50.00000   90.00000   90.00000   90.00000
LATT -1
SFAC C  
C      1  0.5532810000000  0.5058370000000  0.4781970000000 1.0
C      1  0.5292430000000  0.4539970000000  0.4814830000000 1.0
C      1  0.4635560000000  0.4589620000000  0.4801730000000 1.0
C      1  0.4483950000000  0.5140550000000  0.4779160000000 1.0
C      1  0.5021210000000  0.5729170000000  0.4853770000000 1.0
C      1  0.5687510000000  0.4999930000000  0.5230420000000 1.0
C      1  0.5115280000000  0.4190690000000  0.5140840000000 1.0
C      1  0.4429080000000  0.4574480000000  0.5240980000000 1.0
C      1  0.4368660000000  0.5324500000000  0.5166730000000 1.0
C      1  0.5335980000000  0.5675290000000  0.5148980000000 1.0
C      1  0.5488140000000  0.5172930000000  0.5078180000000 1.0
C      1  0.5381550000000  0.4655260000000  0.5075760000000 1.0
C      1  0.4704500000000  0.4521240000000  0.5104410000000 1.0
C      1  0.4471110000000  0.5034110000000  0.5086140000000 1.0
C      1  0.5037460000000  0.5685690000000  0.5133620000000 1.0
C      1  0.5292930000000  0.5670570000000  0.5611120000000 1.0
C      1  0.5665750000000  0.4998340000000  0.5725950000000 1.0
C      1  0.5235150000000  0.4256000000000  0.5588200000000 1.0
C      1  0.4437290000000  0.4640040000000  0.5744390000000 1.0
C      1  0.4368460000000  0.5389500000000  0.5626710000000 1.0
C      1  0.5474960000000  0.5247470000000  0.4339550000000 1.0
C      1  0.5359640000000  0.4681800000000  0.4339430000000 1.0
C      1  0.4843040000000  0.4494610000000  0.4360490000000 1.0
C      1  0.4569680000000  0.4986860000000  0.4332780000000 1.0
C      1  0.4819370000000  0.5495040000000  0.4456610000000 1.0
C      1  0.4680920000000  0.5037050000000  0.5552450000000 1.0
C      1  0.4855980000000  0.5467580000000  0.5559570000000 1.0
C      1  0.5246430000000  0.5194710000000  0.5540500000000 1.0
C      1  0.5290440000000  0.4744770000000  0.5537610000000 1.0
C      1  0.4881850000000  0.4621720000000  0.5545890000000 1.0
C      1  0.5177770000000  0.4258770000000  0.4858860000000 1.0
C      1  0.4338940000000  0.4675000000000  0.4792980000000 1.0
C      1  0.4379400000000  0.5401500000000  0.4873180000000 1.0
C      1  0.5310450000000  0.5728040000000  0.4831480000000 1.0
C      1  0.5712080000000  0.4815230000000  0.4803040000000 1.0
C      1  0.5318500000000  0.4981780000000  0.4347140000000 1.0
C      1  0.5104490000000  0.4583610000000  0.4399850000000 1.0
C      1  0.4715100000000  0.4750710000000  0.4384680000000 1.0
C      1  0.4784740000000  0.5192220000000  0.4397210000000 1.0
C      1  0.5244490000000  0.5373590000000  0.4235800000000 1.0
C      1  0.5514900000000  0.5466810000000  0.5037230000000 1.0
C      1  0.5650570000000  0.4756540000000  0.5079560000000 1.0
C      1  0.4841470000000  0.4252210000000  0.5072710000000 1.0
C      1  0.4324550000000  0.4774760000000  0.5065790000000 1.0
C      1  0.4592910000000  0.5548230000000  0.5153960000000 1.0
C      1  0.4883150000000  0.4723970000000  0.5263120000000 1.0
C      1  0.4742830000000  0.4998130000000  0.5262490000000 1.0
C      1  0.4855950000000  0.5499540000000  0.5272020000000 1.0
C      1  0.5218290000000  0.5110140000000  0.5254430000000 1.0
C      1  0.5192020000000  0.4794730000000  0.5254060000000 1.0
C      1  0.5415240000000  0.5781380000000  0.5415110000000 1.0
C      1  0.5767640000000  0.5026890000000  0.5486570000000 1.0
C      1  0.5243560000000  0.4117090000000  0.5372460000000 1.0
C      1  0.4370350000000  0.4569770000000  0.5502350000000 1.0
C      1  0.4217280000000  0.5369480000000  0.5414710000000 1.0
C      1  0.4807650000000  0.4804030000000  0.4680590000000 1.0
C      1  0.4768740000000  0.5094250000000  0.4702200000000 1.0
C      1  0.5099240000000  0.5473520000000  0.4445150000000 1.0
C      1  0.5263770000000  0.4986880000000  0.4641730000000 1.0
C      1  0.5096930000000  0.4731700000000  0.4674570000000 1.0
C      1  0.5522380000000  0.5541400000000  0.4757660000000 1.0
C      1  0.5768990000000  0.4613200000000  0.4621020000000 1.0
C      1  0.4899650000000  0.4213600000000  0.4777020000000 1.0
C      1  0.4188550000000  0.4788750000000  0.4592640000000 1.0
C      1  0.4569880000000  0.5612080000000  0.4877890000000 1.0
C      1  0.4782390000000  0.5652730000000  0.4694750000000 1.0
C      1  0.5580600000000  0.5313630000000  0.4593980000000 1.0
C      1  0.5507820000000  0.4579900000000  0.4574530000000 1.0
C      1  0.4747050000000  0.4367580000000  0.4611590000000 1.0
C      1  0.4364100000000  0.4989010000000  0.4543240000000 1.0
C      1  0.4638890000000  0.5303470000000  0.5643820000000 1.0
C      1  0.5130680000000  0.5441390000000  0.5636080000000 1.0
C      1  0.5381540000000  0.4984560000000  0.5676430000000 1.0
C      1  0.5144020000000  0.4513630000000  0.5618970000000 1.0
C      1  0.4682650000000  0.4782410000000  0.5687720000000 1.0
C      1  0.4944730000000  0.5224020000000  0.4878560000000 1.0
C      1  0.5067260000000  0.5136580000000  0.4251450000000 1.0
C      1  0.4947100000000  0.5203640000000  0.5160830000000 1.0
C      1  0.5146770000000  0.5245820000000  0.4700240000000 1.0
END
