TITL C-25013-936-7 -0.0025995345668931 125000 -29.7959809849394 0 0 5 (D(inf)h) n - 1
REM
REM in /rds/project/t2_vol4/rds-t2-cs072/BORA/CARBON/from-Arr/AIRSS/Generating-Clusters/GAP-ML-2020/Higher-Symm/SD-CG/HFTN-CG
REM
REM
REM
REM
REM
REM ./C.cell (b20cbc046b6831c77cfcea5457e17084)
REM AIRSS Version 0.9.1 bugfix July 2018 build 013d7b7c2542+ Fri, 06 Jul 2018 19:26:36 +0100
REM compiler GCC version 9.3.0
REM options -cpp -mtune=generic -march=x86-64 -g -O0
REM seed 621545519 -630034009 1929676784 687203761 -768768664 110951909 -2087472793 1708526648 -795144708 -909329039 -1499038797 -936821401 1087059678 -948573306 1954408219 640068132 -1717594351 -1201651442 354391494 -1353044077 2047347094 -1248703233 -94023029 -110228204 -78984389 1240641272 -232304060 -1925949085 1397473498 1437026749 -1800133844 492298789 501286589
REM
CELL 1.54180   50.00000   50.00000   50.00000   90.00000   90.00000   90.00000
LATT -1
SFAC C  
C      1  0.5517070000000  0.5014730000000  0.4996620000000 1.0
C      1  0.4741540000000  0.5014730000000  0.4996620000000 1.0
C      1  0.5000000000000  0.5014730000000  0.4996620000000 1.0
C      1  0.5258460000000  0.5014730000000  0.4996620000000 1.0
C      1  0.4482930000000  0.5014730000000  0.4996620000000 1.0
END
