TITL C-25011-9952-10 -0.263056956471917 125000 -632.608234078381 0 0 91 (C1) n - 1
REM
REM in /rds/project/t2_vol4/rds-t2-cs072/BORA/CARBON/from-Arr/AIRSS/Generating-Clusters/GAP-ML-2020/Higher-Symm/SD-CG/HFTN-CG
REM
REM
REM
REM
REM
REM ./C.cell (b20cbc046b6831c77cfcea5457e17084)
REM AIRSS Version 0.9.1 bugfix July 2018 build 013d7b7c2542+ Fri, 06 Jul 2018 19:26:36 +0100
REM compiler GCC version 9.3.0
REM options -cpp -mtune=generic -march=x86-64 -g -O0
REM seed -702349370 -1504823890 992202805 -497019456 -1612109255 -1980904730 -742264138 -723314421 630556034 1216688024 -691095309 1264991713 -1733626058 -1909818343 524858939 1342467965 2025934930 2033139089 570333408 1860584450 -2051285980 403611309 -249227463 1165570411 1341494967 -234691323 1538956871 1336711818 1079899027 1132191251 1616702381 -407587761 -339169832
REM
CELL 1.54180   50.00000   50.00000   50.00000   90.00000   90.00000   90.00000
LATT -1
SFAC C  
C      1  0.4720720000000  0.5020500000000  0.5832660000000 1.0
C      1  0.5645260000000  0.5063490000000  0.5515550000000 1.0
C      1  0.5693600000000  0.4994260000000  0.4549710000000 1.0
C      1  0.4697690000000  0.5128390000000  0.4166530000000 1.0
C      1  0.4196050000000  0.5080020000000  0.4998520000000 1.0
C      1  0.4763800000000  0.5823480000000  0.4812980000000 1.0
C      1  0.4853610000000  0.5745940000000  0.5255320000000 1.0
C      1  0.5115120000000  0.5790500000000  0.5138460000000 1.0
C      1  0.5050660000000  0.5870310000000  0.4877460000000 1.0
C      1  0.5127270000000  0.5766940000000  0.4618580000000 1.0
C      1  0.5320510000000  0.5274450000000  0.5782950000000 1.0
C      1  0.5815770000000  0.5269440000000  0.4917540000000 1.0
C      1  0.5136990000000  0.5210590000000  0.4197500000000 1.0
C      1  0.4279280000000  0.5321380000000  0.4590070000000 1.0
C      1  0.4382580000000  0.5263400000000  0.5584440000000 1.0
C      1  0.4276490000000  0.5332260000000  0.4868360000000 1.0
C      1  0.4602880000000  0.5274800000000  0.5753460000000 1.0
C      1  0.5515000000000  0.5316310000000  0.5582710000000 1.0
C      1  0.5715910000000  0.5266250000000  0.4650530000000 1.0
C      1  0.4878300000000  0.5349240000000  0.4199220000000 1.0
C      1  0.4975600000000  0.5089570000000  0.5929490000000 1.0
C      1  0.5818870000000  0.5132810000000  0.5309670000000 1.0
C      1  0.5516750000000  0.4995470000000  0.4329750000000 1.0
C      1  0.4444850000000  0.5191260000000  0.4247180000000 1.0
C      1  0.4177970000000  0.5140580000000  0.5266100000000 1.0
C      1  0.5289380000000  0.5538790000000  0.4632940000000 1.0
C      1  0.4838180000000  0.5746340000000  0.4535300000000 1.0
C      1  0.4639240000000  0.5728390000000  0.5055670000000 1.0
C      1  0.4865110000000  0.5534080000000  0.5446760000000 1.0
C      1  0.5324110000000  0.5593250000000  0.5188130000000 1.0
C      1  0.4969180000000  0.4536760000000  0.5286980000000 1.0
C      1  0.5236220000000  0.4558200000000  0.5144680000000 1.0
C      1  0.5217070000000  0.4503840000000  0.4852580000000 1.0
C      1  0.4836890000000  0.4511850000000  0.4560720000000 1.0
C      1  0.4749610000000  0.4513410000000  0.5066340000000 1.0
C      1  0.5758990000000  0.5387640000000  0.5188480000000 1.0
C      1  0.5412170000000  0.5251630000000  0.4284540000000 1.0
C      1  0.4458350000000  0.5443110000000  0.4385340000000 1.0
C      1  0.4314750000000  0.5387620000000  0.5325520000000 1.0
C      1  0.5049660000000  0.5360780000000  0.5858460000000 1.0
C      1  0.5084490000000  0.4937650000000  0.4236200000000 1.0
C      1  0.4309440000000  0.5052040000000  0.4455110000000 1.0
C      1  0.4294830000000  0.5000050000000  0.5483690000000 1.0
C      1  0.5227620000000  0.4993470000000  0.5843340000000 1.0
C      1  0.5850200000000  0.5007670000000  0.5057910000000 1.0
C      1  0.5151470000000  0.4311190000000  0.4198290000000 1.0
C      1  0.4343380000000  0.4378640000000  0.4827980000000 1.0
C      1  0.4675110000000  0.4320920000000  0.5570760000000 1.0
C      1  0.5429520000000  0.4326190000000  0.5496770000000 1.0
C      1  0.5720170000000  0.4276700000000  0.4835550000000 1.0
C      1  0.5425260000000  0.4565170000000  0.5612140000000 1.0
C      1  0.5741110000000  0.4544900000000  0.4846070000000 1.0
C      1  0.5306820000000  0.4521720000000  0.4217790000000 1.0
C      1  0.4293600000000  0.4647250000000  0.4746120000000 1.0
C      1  0.4562720000000  0.4559480000000  0.5618760000000 1.0
C      1  0.4414960000000  0.4800230000000  0.4534840000000 1.0
C      1  0.4479730000000  0.4779340000000  0.5435860000000 1.0
C      1  0.5228250000000  0.4788610000000  0.5638050000000 1.0
C      1  0.5667700000000  0.4788200000000  0.5013050000000 1.0
C      1  0.5307720000000  0.4779360000000  0.4354780000000 1.0
C      1  0.4727520000000  0.5558050000000  0.4349890000000 1.0
C      1  0.4458970000000  0.5473730000000  0.5074720000000 1.0
C      1  0.4823760000000  0.5463120000000  0.5713260000000 1.0
C      1  0.5543710000000  0.5505150000000  0.5344180000000 1.0
C      1  0.5509840000000  0.5423290000000  0.4502760000000 1.0
C      1  0.4980410000000  0.5003610000000  0.5257060000000 1.0
C      1  0.5230700000000  0.5019000000000  0.5088290000000 1.0
C      1  0.5161930000000  0.4983710000000  0.4798760000000 1.0
C      1  0.4856490000000  0.4971150000000  0.4769670000000 1.0
C      1  0.4747810000000  0.4971490000000  0.5063070000000 1.0
C      1  0.5466860000000  0.4288590000000  0.4941720000000 1.0
C      1  0.4960920000000  0.4384790000000  0.4361340000000 1.0
C      1  0.4515940000000  0.4315320000000  0.5001850000000 1.0
C      1  0.4902000000000  0.4299060000000  0.5447680000000 1.0
C      1  0.5395700000000  0.4317590000000  0.5219080000000 1.0
C      1  0.4715730000000  0.5278000000000  0.5051150000000 1.0
C      1  0.4934800000000  0.5306840000000  0.5255500000000 1.0
C      1  0.5191660000000  0.5339480000000  0.5086940000000 1.0
C      1  0.5131460000000  0.5319620000000  0.4797670000000 1.0
C      1  0.4843070000000  0.5265060000000  0.4779190000000 1.0
C      1  0.5418700000000  0.4798400000000  0.5181220000000 1.0
C      1  0.5313920000000  0.4743070000000  0.4674100000000 1.0
C      1  0.4716910000000  0.4782270000000  0.4522760000000 1.0
C      1  0.4552300000000  0.4764660000000  0.5142850000000 1.0
C      1  0.4976540000000  0.4788090000000  0.5471310000000 1.0
C      1  0.4305580000000  0.4816820000000  0.4970590000000 1.0
C      1  0.4726050000000  0.4802810000000  0.5639710000000 1.0
C      1  0.5486060000000  0.4822340000000  0.5469810000000 1.0
C      1  0.5606350000000  0.4771500000000  0.4719110000000 1.0
C      1  0.4811700000000  0.4888370000000  0.4257320000000 1.0
C      1  0.4929350000000  0.4467560000000  0.4830730000000 1.0
END
