TITL C-25010-9692-9 0.0808984608501356 125000 -26.2679891909323 0 0 5 (C2v) n - 1
REM
REM in /rds/project/t2_vol4/rds-t2-cs072/BORA/CARBON/from-Arr/AIRSS/Generating-Clusters/GAP-ML-2020/Higher-Symm/SD-CG/HFTN-CG
REM
REM
REM
REM
REM
REM ./C.cell (b20cbc046b6831c77cfcea5457e17084)
REM AIRSS Version 0.9.1 bugfix July 2018 build 013d7b7c2542+ Fri, 06 Jul 2018 19:26:36 +0100
REM compiler GCC version 9.3.0
REM options -cpp -mtune=generic -march=x86-64 -g -O0
REM seed -1652637374 1412476847 -1924831331 -1148799685 -514232805 -655974756 -151372119 1112882952 -1937385700 2014967188 -1490692927 -448304233 -570809841 -1947630693 1921370351 822152787 -943993087 1458402297 -1838691602 799621205 1813641310 -1013277411 -350428691 1885561192 1571907717 -1046289113 -31463990 508468388 2037897663 -1967847976 1555001305 -2144036136 -2141058842
REM
CELL 1.54180   50.00000   50.00000   50.00000   90.00000   90.00000   90.00000
LATT -1
SFAC C  
C      1  0.5167670000000  0.4984970000000  0.4931590000000 1.0
C      1  0.5095700000000  0.4721980000000  0.4931590000000 1.0
C      1  0.4877110000000  0.4884940000000  0.4931590000000 1.0
C      1  0.5062980000000  0.5249920000000  0.4931590000000 1.0
C      1  0.4796530000000  0.5158190000000  0.4931590000000 1.0
END
