TITL C-25835-2349-1 0.165527588352727 125000 -593.400764311649 0 0 88 (C4) n - 1
REM
REM in /rds/project/t2_vol4/rds-t2-cs072/BORA/CARBON/from-Arr/AIRSS/Generating-Clusters/GAP-ML-2020/Higher-Symm/SD-CG/HFTN-CG
REM
REM
REM
REM
REM
REM ./C.cell (b20cbc046b6831c77cfcea5457e17084)
REM AIRSS Version 0.9.1 bugfix July 2018 build 013d7b7c2542+ Fri, 06 Jul 2018 19:26:36 +0100
REM compiler GCC version 9.3.0
REM options -cpp -mtune=generic -march=x86-64 -g -O0
REM seed -1463543818 -1514359588 894352019 2008832002 -394082308 187324553 1018601907 1582550572 1001546114 -1511697662 -1478845329 333109378 -416690477 2040984454 -368036036 1692510087 -1902738315 1962411883 1003445826 -769812736 781839420 1162136178 1667623529 -811865619 1618907398 -1349962295 934208821 446154319 192292143 -150930777 -1555961378 396569511 834401891
REM
CELL 1.54180   50.00000   50.00000   50.00000   90.00000   90.00000   90.00000
LATT -1
SFAC C  
C      1  0.5237200000000  0.4478240000000  0.5145300000000 1.0
C      1  0.5237220000000  0.4854710000000  0.4478240000000 1.0
C      1  0.5237180000000  0.5521780000000  0.4854720000000 1.0
C      1  0.5237160000000  0.5145300000000  0.5521780000000 1.0
C      1  0.5237210000000  0.4478240000000  0.4854720000000 1.0
C      1  0.5237170000000  0.4854710000000  0.5521780000000 1.0
C      1  0.5237170000000  0.5521780000000  0.5145300000000 1.0
C      1  0.5237210000000  0.5145300000000  0.4478240000000 1.0
C      1  0.4867940000000  0.4201640000000  0.4633560000000 1.0
C      1  0.4867930000000  0.5366430000000  0.4201640000000 1.0
C      1  0.4867870000000  0.5798350000000  0.5366430000000 1.0
C      1  0.4867880000000  0.4633560000000  0.5798350000000 1.0
C      1  0.4867910000000  0.4201640000000  0.5366430000000 1.0
C      1  0.4867860000000  0.5366430000000  0.5798350000000 1.0
C      1  0.4867900000000  0.5798350000000  0.4633560000000 1.0
C      1  0.4867950000000  0.4633560000000  0.4201640000000 1.0
C      1  0.4733730000000  0.4683060000000  0.5539560000000 1.0
C      1  0.4733770000000  0.4460420000000  0.4683060000000 1.0
C      1  0.4733760000000  0.5316920000000  0.4460410000000 1.0
C      1  0.4733710000000  0.5539570000000  0.5316920000000 1.0
C      1  0.4733780000000  0.4683060000000  0.4460410000000 1.0
C      1  0.4733740000000  0.4460420000000  0.5316920000000 1.0
C      1  0.4733710000000  0.5316930000000  0.5539560000000 1.0
C      1  0.4733740000000  0.5539570000000  0.4683050000000 1.0
C      1  0.5515660000000  0.4851050000000  0.5361920000000 1.0
C      1  0.5515690000000  0.4638120000000  0.4851060000000 1.0
C      1  0.5515680000000  0.5148980000000  0.4638130000000 1.0
C      1  0.5515650000000  0.5361910000000  0.5148990000000 1.0
C      1  0.5515690000000  0.4851050000000  0.4638130000000 1.0
C      1  0.5515670000000  0.4638120000000  0.5148990000000 1.0
C      1  0.5515650000000  0.5148980000000  0.5361920000000 1.0
C      1  0.5515670000000  0.5361910000000  0.4851060000000 1.0
C      1  0.5317160000000  0.5351310000000  0.5709600000000 1.0
C      1  0.5317200000000  0.4290420000000  0.5351320000000 1.0
C      1  0.5317240000000  0.4648700000000  0.4290430000000 1.0
C      1  0.5317200000000  0.5709600000000  0.4648710000000 1.0
C      1  0.5317220000000  0.5351310000000  0.4290430000000 1.0
C      1  0.5317230000000  0.4290420000000  0.4648710000000 1.0
C      1  0.5317180000000  0.4648700000000  0.5709600000000 1.0
C      1  0.5317160000000  0.5709600000000  0.5351320000000 1.0
C      1  0.4303640000000  0.4654090000000  0.4851060000000 1.0
C      1  0.4303640000000  0.5148890000000  0.4654080000000 1.0
C      1  0.4303610000000  0.5345870000000  0.5148880000000 1.0
C      1  0.4303620000000  0.4851070000000  0.5345860000000 1.0
C      1  0.4303630000000  0.4654090000000  0.5148880000000 1.0
C      1  0.4303610000000  0.5148890000000  0.5345860000000 1.0
C      1  0.4303630000000  0.5345870000000  0.4851060000000 1.0
C      1  0.4303650000000  0.4851070000000  0.4654080000000 1.0
C      1  0.4882530000000  0.5126240000000  0.5937850000000 1.0
C      1  0.4882590000000  0.4062150000000  0.5126240000000 1.0
C      1  0.4882620000000  0.4873750000000  0.4062140000000 1.0
C      1  0.4882560000000  0.5937850000000  0.4873750000000 1.0
C      1  0.4882610000000  0.5126240000000  0.4062140000000 1.0
C      1  0.4882610000000  0.4062150000000  0.4873750000000 1.0
C      1  0.4882540000000  0.4873760000000  0.5937850000000 1.0
C      1  0.4882540000000  0.5937850000000  0.5126240000000 1.0
C      1  0.4966440000000  0.5153560000000  0.4634680000000 1.0
C      1  0.4966410000000  0.5365320000000  0.5153560000000 1.0
C      1  0.4966410000000  0.4846440000000  0.5365320000000 1.0
C      1  0.4966440000000  0.4634680000000  0.4846440000000 1.0
C      1  0.4966410000000  0.5153560000000  0.5365310000000 1.0
C      1  0.4966420000000  0.5365320000000  0.4846430000000 1.0
C      1  0.4966450000000  0.4846440000000  0.4634680000000 1.0
C      1  0.4966430000000  0.4634680000000  0.5153560000000 1.0
C      1  0.4502820000000  0.4447280000000  0.5147080000000 1.0
C      1  0.4502840000000  0.4852880000000  0.4447270000000 1.0
C      1  0.4502800000000  0.5552690000000  0.4852870000000 1.0
C      1  0.4502780000000  0.5147090000000  0.5552680000000 1.0
C      1  0.4502830000000  0.4447280000000  0.4852880000000 1.0
C      1  0.4502790000000  0.4852890000000  0.5552680000000 1.0
C      1  0.4502790000000  0.5552690000000  0.5147080000000 1.0
C      1  0.4502830000000  0.5147090000000  0.4447270000000 1.0
C      1  0.5101830000000  0.5742450000000  0.5541430000000 1.0
C      1  0.5101860000000  0.4458580000000  0.5742450000000 1.0
C      1  0.5101920000000  0.4257560000000  0.4458580000000 1.0
C      1  0.5101900000000  0.5541420000000  0.4257560000000 1.0
C      1  0.5101880000000  0.5742440000000  0.4458580000000 1.0
C      1  0.5101930000000  0.4458580000000  0.4257560000000 1.0
C      1  0.5101870000000  0.4257560000000  0.5541430000000 1.0
C      1  0.5101830000000  0.5541430000000  0.5742450000000 1.0
C      1  0.5570940000000  0.5377010000000  0.5576440000000 1.0
C      1  0.5570970000000  0.4423600000000  0.5377020000000 1.0
C      1  0.5571010000000  0.4623020000000  0.4423610000000 1.0
C      1  0.5570980000000  0.5576430000000  0.4623030000000 1.0
C      1  0.5570990000000  0.5377010000000  0.4423610000000 1.0
C      1  0.5571010000000  0.4423600000000  0.4623030000000 1.0
C      1  0.5570960000000  0.4623020000000  0.5576450000000 1.0
C      1  0.5570940000000  0.5576430000000  0.5377020000000 1.0
END
