TITL C-25030-1060-3 66.1300764268058 125000 -807.281699648202 0 0 113 (Ci) n - 1
REM
REM in /rds/project/t2_vol4/rds-t2-cs072/BORA/CARBON/from-Arr/AIRSS/Generating-Clusters/GAP-ML-2020/Higher-Symm/SD-CG/HFTN-CG
REM
REM
REM
REM
REM
REM ./C.cell (b20cbc046b6831c77cfcea5457e17084)
REM AIRSS Version 0.9.1 bugfix July 2018 build 013d7b7c2542+ Fri, 06 Jul 2018 19:26:36 +0100
REM compiler GCC version 9.3.0
REM options -cpp -mtune=generic -march=x86-64 -g -O0
REM seed 713223389 -1631946539 -1424553499 1636284710 -2104899783 1045977666 1085662288 1134805931 -1357276009 -404853080 1056569122 -1093481511 1669678849 713101795 1894118672 1263398593 -132142401 491920153 -435740874 699317340 -377926197 1318381494 -1874700991 -412748885 976471034 -1817764527 1357409873 -1952517985 -891287077 156548714 1069078982 831123621 1738554419
REM
CELL 1.54180   50.00000   50.00000   50.00000   90.00000   90.00000   90.00000
LATT -1
SFAC C  
C      1  0.4785850000000  0.4777320000000  0.5117250000000 1.0
C      1  0.5215570000000  0.5214790000000  0.4887300000000 1.0
C      1  0.4813270000000  0.5564310000000  0.4431730000000 1.0
C      1  0.5188140000000  0.4427800000000  0.5572820000000 1.0
C      1  0.4060260000000  0.5165990000000  0.5187820000000 1.0
C      1  0.5941150000000  0.4826120000000  0.4816740000000 1.0
C      1  0.5114370000000  0.4654170000000  0.4681550000000 1.0
C      1  0.4887040000000  0.5337940000000  0.5323000000000 1.0
C      1  0.4139450000000  0.5403600000000  0.5289960000000 1.0
C      1  0.5861960000000  0.4588510000000  0.4714590000000 1.0
C      1  0.5258120000000  0.5393170000000  0.4320290000000 1.0
C      1  0.4743300000000  0.4598940000000  0.5684270000000 1.0
C      1  0.4796300000000  0.4204960000000  0.5385790000000 1.0
C      1  0.5205120000000  0.5787150000000  0.4618760000000 1.0
C      1  0.5607340000000  0.5587930000000  0.4569320000000 1.0
C      1  0.4394080000000  0.4404180000000  0.5435230000000 1.0
C      1  0.4544050000000  0.4828290000000  0.5579870000000 1.0
C      1  0.5457370000000  0.5163820000000  0.4424690000000 1.0
C      1  0.5132660000000  0.5573380000000  0.5753120000000 1.0
C      1  0.4868760000000  0.4418730000000  0.4251430000000 1.0
C      1  0.5315460000000  0.4568930000000  0.4160790000000 1.0
C      1  0.4685960000000  0.5423180000000  0.5843760000000 1.0
C      1  0.4307540000000  0.5486710000000  0.5528400000000 1.0
C      1  0.5693870000000  0.4505400000000  0.4476150000000 1.0
C      1  0.4850170000000  0.5630990000000  0.5746160000000 1.0
C      1  0.5151240000000  0.4361120000000  0.4258390000000 1.0
C      1  0.4378570000000  0.4652570000000  0.4755150000000 1.0
C      1  0.5622840000000  0.5339540000000  0.5249400000000 1.0
C      1  0.5605960000000  0.4206260000000  0.4823340000000 1.0
C      1  0.4395460000000  0.5785850000000  0.5181220000000 1.0
C      1  0.4999020000000  0.5418270000000  0.4882000000000 1.0
C      1  0.5002400000000  0.4573840000000  0.5122560000000 1.0
C      1  0.5481500000000  0.4939960000000  0.4222840000000 1.0
C      1  0.4519910000000  0.5052150000000  0.5781720000000 1.0
C      1  0.4760220000000  0.4988960000000  0.4691400000000 1.0
C      1  0.5241190000000  0.5003150000000  0.5313160000000 1.0
C      1  0.4119830000000  0.4950600000000  0.5029920000000 1.0
C      1  0.5881590000000  0.5041510000000  0.4974630000000 1.0
C      1  0.5334500000000  0.4771670000000  0.4833590000000 1.0
C      1  0.4666920000000  0.5220440000000  0.5170970000000 1.0
C      1  0.4947650000000  0.4901180000000  0.4108840000000 1.0
C      1  0.5053770000000  0.5090920000000  0.5895720000000 1.0
C      1  0.4430710000000  0.5331580000000  0.5733140000000 1.0
C      1  0.5570700000000  0.4660530000000  0.4271410000000 1.0
C      1  0.5323590000000  0.5251780000000  0.5162350000000 1.0
C      1  0.4677820000000  0.4740330000000  0.4842200000000 1.0
C      1  0.5091470000000  0.5470860000000  0.5180680000000 1.0
C      1  0.4909940000000  0.4521250000000  0.4823870000000 1.0
C      1  0.5363110000000  0.5855410000000  0.4849280000000 1.0
C      1  0.4638300000000  0.4136700000000  0.5155280000000 1.0
C      1  0.5276510000000  0.4202650000000  0.4465860000000 1.0
C      1  0.4724910000000  0.5789460000000  0.5538700000000 1.0
C      1  0.4275470000000  0.4507250000000  0.5001280000000 1.0
C      1  0.5725940000000  0.5484850000000  0.5003270000000 1.0
C      1  0.4939620000000  0.5682150000000  0.4675460000000 1.0
C      1  0.5061800000000  0.4309960000000  0.5329100000000 1.0
C      1  0.5602350000000  0.5692520000000  0.4836520000000 1.0
C      1  0.4399070000000  0.4299590000000  0.5168030000000 1.0
C      1  0.4583670000000  0.5024970000000  0.4416360000000 1.0
C      1  0.5417740000000  0.4967140000000  0.5588190000000 1.0
C      1  0.4969750000000  0.5372240000000  0.4283740000000 1.0
C      1  0.5031670000000  0.4619870000000  0.5720810000000 1.0
C      1  0.4512600000000  0.5801690000000  0.4912190000000 1.0
C      1  0.5488810000000  0.4190420000000  0.5092360000000 1.0
C      1  0.4645480000000  0.4362060000000  0.5566340000000 1.0
C      1  0.5355940000000  0.5630050000000  0.4438210000000 1.0
C      1  0.4548010000000  0.5528470000000  0.4438880000000 1.0
C      1  0.5453410000000  0.4463640000000  0.5565680000000 1.0
C      1  0.5099280000000  0.4103050000000  0.4656200000000 1.0
C      1  0.4902140000000  0.5889060000000  0.5348350000000 1.0
C      1  0.4825010000000  0.4229740000000  0.4686160000000 1.0
C      1  0.5176400000000  0.5762370000000  0.5318400000000 1.0
C      1  0.5178800000000  0.4860290000000  0.5777660000000 1.0
C      1  0.4822610000000  0.5131820000000  0.4226890000000 1.0
C      1  0.4924340000000  0.5974580000000  0.5069870000000 1.0
C      1  0.5077080000000  0.4017530000000  0.4934690000000 1.0
C      1  0.5447410000000  0.5241200000000  0.5688090000000 1.0
C      1  0.4554010000000  0.4750910000000  0.4316470000000 1.0
C      1  0.5656960000000  0.4575070000000  0.5416250000000 1.0
C      1  0.4344460000000  0.5417040000000  0.4588310000000 1.0
C      1  0.4679420000000  0.4336090000000  0.4453030000000 1.0
C      1  0.5321990000000  0.5656020000000  0.5551530000000 1.0
C      1  0.4313960000000  0.5607040000000  0.4812040000000 1.0
C      1  0.5687460000000  0.4385070000000  0.5192510000000 1.0
C      1  0.4240910000000  0.4921060000000  0.4756750000000 1.0
C      1  0.5760510000000  0.5071040000000  0.5247810000000 1.0
C      1  0.4460380000000  0.5723340000000  0.5451500000000 1.0
C      1  0.5541030000000  0.4268770000000  0.4553060000000 1.0
C      1  0.5804530000000  0.4392940000000  0.4921400000000 1.0
C      1  0.4196890000000  0.5599170000000  0.5083150000000 1.0
C      1  0.5695360000000  0.5321870000000  0.4557780000000 1.0
C      1  0.4306050000000  0.4670230000000  0.5446780000000 1.0
C      1  0.5213190000000  0.5929390000000  0.5074080000000 1.0
C      1  0.4788220000000  0.4062720000000  0.4930480000000 1.0
C      1  0.4784300000000  0.5208080000000  0.4903730000000 1.0
C      1  0.5217110000000  0.4784030000000  0.5100820000000 1.0
C      1  0.5221980000000  0.5317350000000  0.5843570000000 1.0
C      1  0.4779430000000  0.4674760000000  0.4160990000000 1.0
C      1  0.5525390000000  0.5448200000000  0.5516030000000 1.0
C      1  0.4476030000000  0.4543910000000  0.4488520000000 1.0
C      1  0.4707210000000  0.4954060000000  0.5323580000000 1.0
C      1  0.5294210000000  0.5038050000000  0.4680980000000 1.0
C      1  0.5221170000000  0.4131530000000  0.5152050000000 1.0
C      1  0.4780250000000  0.5860580000000  0.4852500000000 1.0
C      1  0.5026790000000  0.4915770000000  0.4610240000000 1.0
C      1  0.4974630000000  0.5076340000000  0.5394320000000 1.0
C      1  0.4337620000000  0.5122990000000  0.4568550000000 1.0
C      1  0.5663800000000  0.4869120000000  0.5436000000000 1.0
C      1  0.4773090000000  0.5153100000000  0.5901390000000 1.0
C      1  0.5228330000000  0.4839010000000  0.4103170000000 1.0
C      1  0.4182850000000  0.4709190000000  0.5180310000000 1.0
C      1  0.5818570000000  0.5282920000000  0.4824240000000 1.0
C      1  0.5000710000000  0.4996050000000  0.5002280000000 1.0
END
