TITL C-25910-8353-10 -1.39885621382096 125000 -510.54077115044 0 0 74 (C1) n - 1
REM
REM in /rds/project/t2_vol4/rds-t2-cs072/BORA/CARBON/from-Arr/AIRSS/Generating-Clusters/GAP-ML-2020/Higher-Symm/SD-CG/HFTN-CG
REM
REM
REM
REM
REM
REM ./C.cell (b20cbc046b6831c77cfcea5457e17084)
REM AIRSS Version 0.9.1 bugfix July 2018 build 013d7b7c2542+ Fri, 06 Jul 2018 19:26:36 +0100
REM compiler GCC version 9.3.0
REM options -cpp -mtune=generic -march=x86-64 -g -O0
REM seed 773303917 -1808187167 -2142380766 1606531852 2128341673 1919255046 1973486875 -813157451 35756420 396651039 -1019388299 1391585296 -146698505 359005118 141009519 547330994 -1223925714 -1171875484 2066423911 -1829918008 1892253294 -2131170708 -1856470651 -414637875 13549836 79078539 504450418 1361577229 -1742533758 -591516726 52366505 231904065 -2027274749
REM
CELL 1.54180   50.00000   50.00000   50.00000   90.00000   90.00000   90.00000
LATT -1
SFAC C  
C      1  0.4895390000000  0.4996410000000  0.4169380000000 1.0
C      1  0.4847970000000  0.4973040000000  0.5814210000000 1.0
C      1  0.5099640000000  0.4644680000000  0.5321890000000 1.0
C      1  0.5103360000000  0.4605410000000  0.4656130000000 1.0
C      1  0.5429690000000  0.5290990000000  0.5313880000000 1.0
C      1  0.5453660000000  0.5294220000000  0.4693330000000 1.0
C      1  0.4559910000000  0.5228760000000  0.4453840000000 1.0
C      1  0.4525020000000  0.5209720000000  0.5519170000000 1.0
C      1  0.5758470000000  0.4949140000000  0.4874850000000 1.0
C      1  0.5753740000000  0.4951050000000  0.5158340000000 1.0
C      1  0.4779200000000  0.5756780000000  0.4769360000000 1.0
C      1  0.4772260000000  0.5741050000000  0.5231250000000 1.0
C      1  0.5125050000000  0.5431550000000  0.5318110000000 1.0
C      1  0.5147560000000  0.5446100000000  0.4668860000000 1.0
C      1  0.5284720000000  0.4546420000000  0.5549750000000 1.0
C      1  0.5321220000000  0.4542360000000  0.4455300000000 1.0
C      1  0.5072040000000  0.4359120000000  0.5268310000000 1.0
C      1  0.5079000000000  0.4359210000000  0.4804570000000 1.0
C      1  0.5585220000000  0.4768510000000  0.5316230000000 1.0
C      1  0.5606580000000  0.4767310000000  0.4704340000000 1.0
C      1  0.5302140000000  0.4787980000000  0.4840710000000 1.0
C      1  0.5302110000000  0.4790900000000  0.5152620000000 1.0
C      1  0.4814810000000  0.4971910000000  0.4819320000000 1.0
C      1  0.4813310000000  0.4966850000000  0.5107230000000 1.0
C      1  0.4467370000000  0.4957180000000  0.4471920000000 1.0
C      1  0.4421620000000  0.4942980000000  0.5498710000000 1.0
C      1  0.5277680000000  0.5080540000000  0.4838220000000 1.0
C      1  0.5272380000000  0.5080200000000  0.5142020000000 1.0
C      1  0.5373740000000  0.4771850000000  0.4291830000000 1.0
C      1  0.5326730000000  0.4767140000000  0.5721650000000 1.0
C      1  0.4814400000000  0.4343600000000  0.4928680000000 1.0
C      1  0.4791920000000  0.4330820000000  0.5210800000000 1.0
C      1  0.5345210000000  0.4319910000000  0.5157930000000 1.0
C      1  0.5356420000000  0.4321590000000  0.4878570000000 1.0
C      1  0.4409580000000  0.4656180000000  0.4862040000000 1.0
C      1  0.4390800000000  0.4661350000000  0.5139950000000 1.0
C      1  0.5465410000000  0.5179720000000  0.5573780000000 1.0
C      1  0.5507280000000  0.5184900000000  0.4435170000000 1.0
C      1  0.4775250000000  0.5219590000000  0.5664830000000 1.0
C      1  0.4818620000000  0.5243850000000  0.4314450000000 1.0
C      1  0.4564870000000  0.4704050000000  0.5572270000000 1.0
C      1  0.4660900000000  0.4772710000000  0.4376650000000 1.0
C      1  0.5499920000000  0.4477550000000  0.5363030000000 1.0
C      1  0.5514050000000  0.4477120000000  0.4667940000000 1.0
C      1  0.5229390000000  0.5214370000000  0.5727530000000 1.0
C      1  0.5279000000000  0.5223110000000  0.4271260000000 1.0
C      1  0.4837350000000  0.4760450000000  0.5293530000000 1.0
C      1  0.4823740000000  0.4713870000000  0.4634150000000 1.0
C      1  0.4649330000000  0.4523850000000  0.4780450000000 1.0
C      1  0.4611560000000  0.4553410000000  0.5310130000000 1.0
C      1  0.5015140000000  0.5195530000000  0.4825840000000 1.0
C      1  0.5004010000000  0.5190670000000  0.5133550000000 1.0
C      1  0.5189690000000  0.4971640000000  0.4174630000000 1.0
C      1  0.5137130000000  0.4962400000000  0.5823620000000 1.0
C      1  0.4735890000000  0.6021960000000  0.5189610000000 1.0
C      1  0.4748350000000  0.5978690000000  0.4935110000000 1.0
C      1  0.4289600000000  0.5157280000000  0.5116910000000 1.0
C      1  0.4301940000000  0.5154010000000  0.4837500000000 1.0
C      1  0.4432800000000  0.5350590000000  0.5278510000000 1.0
C      1  0.4448360000000  0.5356930000000  0.4689490000000 1.0
C      1  0.5040270000000  0.5657280000000  0.4841000000000 1.0
C      1  0.5032910000000  0.5649290000000  0.5152780000000 1.0
C      1  0.5526300000000  0.4905350000000  0.5572740000000 1.0
C      1  0.5567550000000  0.4906540000000  0.4444600000000 1.0
C      1  0.4558610000000  0.5570750000000  0.4845700000000 1.0
C      1  0.4551740000000  0.5566310000000  0.5135330000000 1.0
C      1  0.5069070000000  0.5369240000000  0.4392300000000 1.0
C      1  0.5025160000000  0.5353360000000  0.5591680000000 1.0
C      1  0.5668310000000  0.5240490000000  0.5158200000000 1.0
C      1  0.5681470000000  0.5241350000000  0.4865320000000 1.0
C      1  0.4344250000000  0.4897170000000  0.4715090000000 1.0
C      1  0.4304380000000  0.4904950000000  0.5250370000000 1.0
C      1  0.4722430000000  0.4789020000000  0.4110040000000 1.0
C      1  0.4688050000000  0.4747830000000  0.5811610000000 1.0
END
