TITL C-25913-7862-9 0.00453584919482087 125000 -145.02012623637 0 0 22 (D2d) n - 1
REM
REM in /rds/project/t2_vol4/rds-t2-cs072/BORA/CARBON/from-Arr/AIRSS/Generating-Clusters/GAP-ML-2020/Higher-Symm/SD-CG/HFTN-CG
REM
REM
REM
REM
REM
REM ./C.cell (b20cbc046b6831c77cfcea5457e17084)
REM AIRSS Version 0.9.1 bugfix July 2018 build 013d7b7c2542+ Fri, 06 Jul 2018 19:26:36 +0100
REM compiler GCC version 9.3.0
REM options -cpp -mtune=generic -march=x86-64 -g -O0
REM seed 16935329 -1375456510 1520444067 1275101456 983738491 -1543762156 705556982 1111200112 1194272184 1559493938 -1210445710 2033095293 -235240083 52789703 467690219 221867887 1813670218 -2067825508 -945258347 568844811 -1384868181 -2114766318 -896674070 -1317071734 80416214 270542298 -1749556974 1512030248 255834256 -1758909992 499196913 -1981058909 1545388172
REM
CELL 1.54180   50.00000   50.00000   50.00000   90.00000   90.00000   90.00000
LATT -1
SFAC C  
C      1  0.4950570000000  0.4677700000000  0.4715290000000 1.0
C      1  0.5023160000000  0.5319570000000  0.5295060000000 1.0
C      1  0.4973420000000  0.5264980000000  0.4657660000000 1.0
C      1  0.5117360000000  0.4737760000000  0.5331980000000 1.0
C      1  0.4689100000000  0.5280260000000  0.5061160000000 1.0
C      1  0.4714690000000  0.4690380000000  0.5050040000000 1.0
C      1  0.5353230000000  0.4725080000000  0.4997240000000 1.0
C      1  0.5307480000000  0.5304280000000  0.4891570000000 1.0
C      1  0.4875120000000  0.5505460000000  0.5116440000000 1.0
C      1  0.4890090000000  0.4482060000000  0.4930810000000 1.0
C      1  0.5203130000000  0.4518890000000  0.5150000000000 1.0
C      1  0.5096160000000  0.5493580000000  0.4802750000000 1.0
C      1  0.4810580000000  0.5117490000000  0.5273810000000 1.0
C      1  0.4740780000000  0.4860040000000  0.4811280000000 1.0
C      1  0.5304510000000  0.4926370000000  0.5206000000000 1.0
C      1  0.5208630000000  0.5096100000000  0.4708920000000 1.0
C      1  0.4851930000000  0.4840200000000  0.5261350000000 1.0
C      1  0.4758640000000  0.5140100000000  0.4813260000000 1.0
C      1  0.5252960000000  0.5198260000000  0.5159380000000 1.0
C      1  0.5200970000000  0.4821440000000  0.4766020000000 1.0
C      1  0.4973670000000  0.5695660000000  0.4943730000000 1.0
C      1  0.5058580000000  0.4304340000000  0.5056270000000 1.0
END
