TITL C-25930-8182-1 -64.9239287062317 125000 -521.137951799777 0 0 75 (C1) n - 1
REM
REM in /rds/project/t2_vol4/rds-t2-cs072/BORA/CARBON/from-Arr/AIRSS/Generating-Clusters/GAP-ML-2020/Higher-Symm/SD-CG/HFTN-CG
REM
REM
REM
REM
REM
REM ./C.cell (b20cbc046b6831c77cfcea5457e17084)
REM AIRSS Version 0.9.1 bugfix July 2018 build 013d7b7c2542+ Fri, 06 Jul 2018 19:26:36 +0100
REM compiler GCC version 9.3.0
REM options -cpp -mtune=generic -march=x86-64 -g -O0
REM seed -1463019903 -1830191940 1740603202 -2095193893 645247875 -1994475981 -424194116 -1547189281 -1468183320 418905986 -124799718 746640527 650184238 -1546564085 1348836061 -1778734689 88321595 494054869 1536852845 914597021 2120867001 -688152256 1365275053 -1749425880 -1452597468 -1254460551 -1600947200 -1169921636 511493020 1051772617 1714490378 1577024604 240591037
REM
CELL 1.54180   50.00000   50.00000   50.00000   90.00000   90.00000   90.00000
LATT -1
SFAC C  
C      1  0.4870980000000  0.5417510000000  0.5611240000000 1.0
C      1  0.4592550000000  0.5291380000000  0.4691300000000 1.0
C      1  0.5483600000000  0.5453280000000  0.4848510000000 1.0
C      1  0.5127130000000  0.4654460000000  0.5549590000000 1.0
C      1  0.5421010000000  0.4601920000000  0.4594370000000 1.0
C      1  0.4457250000000  0.4587380000000  0.4886360000000 1.0
C      1  0.5451100000000  0.4928380000000  0.4220120000000 1.0
C      1  0.5371260000000  0.5057720000000  0.5749750000000 1.0
C      1  0.4145730000000  0.5007140000000  0.4966970000000 1.0
C      1  0.4489250000000  0.4924080000000  0.4371430000000 1.0
C      1  0.4677780000000  0.5005320000000  0.5851830000000 1.0
C      1  0.5806660000000  0.5039080000000  0.4856530000000 1.0
C      1  0.4251000000000  0.5273840000000  0.5034970000000 1.0
C      1  0.5327490000000  0.5191370000000  0.4204820000000 1.0
C      1  0.5362670000000  0.5337400000000  0.5642910000000 1.0
C      1  0.5771580000000  0.4754720000000  0.4949740000000 1.0
C      1  0.4599620000000  0.4658520000000  0.4423010000000 1.0
C      1  0.4626700000000  0.4731010000000  0.5756940000000 1.0
C      1  0.4945350000000  0.4922140000000  0.5938690000000 1.0
C      1  0.4249930000000  0.4863900000000  0.4526510000000 1.0
C      1  0.5803480000000  0.4930830000000  0.4585090000000 1.0
C      1  0.5132180000000  0.5114590000000  0.5903640000000 1.0
C      1  0.5684270000000  0.5044140000000  0.4366090000000 1.0
C      1  0.4159760000000  0.5059750000000  0.4688320000000 1.0
C      1  0.5597120000000  0.4815840000000  0.5421170000000 1.0
C      1  0.4266770000000  0.4759590000000  0.5365910000000 1.0
C      1  0.5047220000000  0.4698320000000  0.4262780000000 1.0
C      1  0.4439020000000  0.5210550000000  0.5493600000000 1.0
C      1  0.5627360000000  0.5279050000000  0.5257750000000 1.0
C      1  0.4856890000000  0.5158120000000  0.4241890000000 1.0
C      1  0.4693770000000  0.5028760000000  0.4852150000000 1.0
C      1  0.5429280000000  0.5447090000000  0.4570700000000 1.0
C      1  0.5097150000000  0.5083470000000  0.5335390000000 1.0
C      1  0.5367530000000  0.4871650000000  0.4723800000000 1.0
C      1  0.4973840000000  0.5029880000000  0.4852150000000 1.0
C      1  0.4953560000000  0.4886020000000  0.5449260000000 1.0
C      1  0.4830980000000  0.4538520000000  0.5184690000000 1.0
C      1  0.4936260000000  0.4469670000000  0.4710950000000 1.0
C      1  0.5275320000000  0.4529150000000  0.5058930000000 1.0
C      1  0.5193670000000  0.5556870000000  0.5244620000000 1.0
C      1  0.5025690000000  0.5566880000000  0.4768300000000 1.0
C      1  0.4713640000000  0.5467240000000  0.5136410000000 1.0
C      1  0.5088970000000  0.5321390000000  0.4286340000000 1.0
C      1  0.5420390000000  0.5439220000000  0.5389640000000 1.0
C      1  0.4490840000000  0.5269550000000  0.5208190000000 1.0
C      1  0.4862150000000  0.4572750000000  0.4447340000000 1.0
C      1  0.4512880000000  0.4702990000000  0.5504600000000 1.0
C      1  0.5578650000000  0.4714960000000  0.5150390000000 1.0
C      1  0.5213160000000  0.4462090000000  0.4782930000000 1.0
C      1  0.5095760000000  0.4494720000000  0.5283260000000 1.0
C      1  0.4732510000000  0.4497430000000  0.4923040000000 1.0
C      1  0.4761260000000  0.5493090000000  0.4855190000000 1.0
C      1  0.4916670000000  0.5518130000000  0.5337480000000 1.0
C      1  0.5238980000000  0.5566970000000  0.4966610000000 1.0
C      1  0.5140720000000  0.5010490000000  0.4632240000000 1.0
C      1  0.5346290000000  0.4822560000000  0.5015390000000 1.0
C      1  0.4720910000000  0.4781500000000  0.5309750000000 1.0
C      1  0.5150260000000  0.5489730000000  0.4517270000000 1.0
C      1  0.4580970000000  0.4974110000000  0.5112460000000 1.0
C      1  0.5138460000000  0.5012960000000  0.5086250000000 1.0
C      1  0.4325470000000  0.4794970000000  0.5074050000000 1.0
C      1  0.5327980000000  0.4692080000000  0.4312220000000 1.0
C      1  0.5393250000000  0.4801700000000  0.5616120000000 1.0
C      1  0.5668060000000  0.5269670000000  0.4975890000000 1.0
C      1  0.4630460000000  0.5166140000000  0.4408310000000 1.0
C      1  0.4646170000000  0.5243260000000  0.5679790000000 1.0
C      1  0.5702910000000  0.4663020000000  0.4677110000000 1.0
C      1  0.4927170000000  0.4673840000000  0.5775660000000 1.0
C      1  0.4383530000000  0.4620860000000  0.4619290000000 1.0
C      1  0.4307040000000  0.5303940000000  0.4753210000000 1.0
C      1  0.5099510000000  0.5366570000000  0.5763850000000 1.0
C      1  0.5549500000000  0.5297770000000  0.4370170000000 1.0
C      1  0.5713300000000  0.5063290000000  0.5396280000000 1.0
C      1  0.4936210000000  0.4913800000000  0.4123360000000 1.0
C      1  0.4266230000000  0.4994570000000  0.5497140000000 1.0
END
