TITL C-25936-8389-6 -183.579594693039 125000 -577.261101582994 0 0 84 (C1) n - 1
REM
REM in /rds/project/t2_vol4/rds-t2-cs072/BORA/CARBON/from-Arr/AIRSS/Generating-Clusters/GAP-ML-2020/Higher-Symm/SD-CG/HFTN-CG
REM
REM
REM
REM
REM
REM ./C.cell (b20cbc046b6831c77cfcea5457e17084)
REM AIRSS Version 0.9.1 bugfix July 2018 build 013d7b7c2542+ Fri, 06 Jul 2018 19:26:36 +0100
REM compiler GCC version 9.3.0
REM options -cpp -mtune=generic -march=x86-64 -g -O0
REM seed 1295824453 1972012352 303438603 -523571445 -891374369 -755978674 -155531632 -680917438 -1769941969 330220609 2019128445 -496782713 -151356058 -1587391468 -501754356 1438123001 1808306962 -1927188435 -1806426063 -1428226936 983985889 957484908 1759461658 2147146631 -1152772573 -1715963686 838529916 -1050890050 -2095190813 -748256758 -1441155398 -761552971 -362429431
REM
CELL 1.54180   50.00000   50.00000   50.00000   90.00000   90.00000   90.00000
LATT -1
SFAC C  
C      1  0.5153600000000  0.4649710000000  0.5751340000000 1.0
C      1  0.5068580000000  0.5428390000000  0.4184630000000 1.0
C      1  0.4980420000000  0.5339080000000  0.5717600000000 1.0
C      1  0.5071250000000  0.4461880000000  0.4301500000000 1.0
C      1  0.4715360000000  0.5404050000000  0.5627670000000 1.0
C      1  0.4806430000000  0.4437060000000  0.4423560000000 1.0
C      1  0.4888160000000  0.4529890000000  0.5726560000000 1.0
C      1  0.4853490000000  0.5552790000000  0.4318090000000 1.0
C      1  0.4965690000000  0.5479770000000  0.5044690000000 1.0
C      1  0.5162290000000  0.4553610000000  0.4880360000000 1.0
C      1  0.5020660000000  0.4497880000000  0.5146620000000 1.0
C      1  0.5154370000000  0.5431680000000  0.4813950000000 1.0
C      1  0.4337930000000  0.5106320000000  0.5461990000000 1.0
C      1  0.4504660000000  0.4833410000000  0.4553670000000 1.0
C      1  0.4465310000000  0.4620470000000  0.5509240000000 1.0
C      1  0.4502850000000  0.5225500000000  0.4523620000000 1.0
C      1  0.4736590000000  0.5387640000000  0.4544680000000 1.0
C      1  0.4642130000000  0.4683730000000  0.5720400000000 1.0
C      1  0.4692920000000  0.4613640000000  0.4625570000000 1.0
C      1  0.4536870000000  0.5179330000000  0.5649610000000 1.0
C      1  0.4921120000000  0.4313360000000  0.5562030000000 1.0
C      1  0.4915800000000  0.5738710000000  0.4521220000000 1.0
C      1  0.4748950000000  0.5597300000000  0.5425420000000 1.0
C      1  0.4997270000000  0.4271210000000  0.4504630000000 1.0
C      1  0.5295400000000  0.5488620000000  0.4364070000000 1.0
C      1  0.5319510000000  0.4546040000000  0.5552400000000 1.0
C      1  0.5317180000000  0.4521580000000  0.4423880000000 1.0
C      1  0.5170300000000  0.5423230000000  0.5536190000000 1.0
C      1  0.5587390000000  0.4749590000000  0.5186160000000 1.0
C      1  0.5593650000000  0.5285420000000  0.4698890000000 1.0
C      1  0.5523650000000  0.5312910000000  0.5215180000000 1.0
C      1  0.5588940000000  0.4761290000000  0.4699840000000 1.0
C      1  0.5239800000000  0.4336110000000  0.4681640000000 1.0
C      1  0.5042870000000  0.5599910000000  0.5332430000000 1.0
C      1  0.5195210000000  0.5659150000000  0.4600660000000 1.0
C      1  0.5166220000000  0.4337380000000  0.5383760000000 1.0
C      1  0.5831590000000  0.4878260000000  0.4667810000000 1.0
C      1  0.5776310000000  0.5196400000000  0.5215520000000 1.0
C      1  0.5839880000000  0.5148470000000  0.4743750000000 1.0
C      1  0.5818160000000  0.4911200000000  0.5165700000000 1.0
C      1  0.4979340000000  0.4765720000000  0.5299880000000 1.0
C      1  0.4998540000000  0.5223610000000  0.4613390000000 1.0
C      1  0.4841220000000  0.5210530000000  0.5133940000000 1.0
C      1  0.4974780000000  0.4714720000000  0.4715350000000 1.0
C      1  0.5451200000000  0.4760090000000  0.4450300000000 1.0
C      1  0.5395950000000  0.5268180000000  0.5466950000000 1.0
C      1  0.5466970000000  0.5272900000000  0.4444440000000 1.0
C      1  0.5485550000000  0.4751660000000  0.5451060000000 1.0
C      1  0.5335530000000  0.5867590000000  0.4748130000000 1.0
C      1  0.5301480000000  0.4110340000000  0.5268220000000 1.0
C      1  0.5374140000000  0.4112540000000  0.4794360000000 1.0
C      1  0.5212680000000  0.5824760000000  0.5248170000000 1.0
C      1  0.4567600000000  0.5641820000000  0.5205050000000 1.0
C      1  0.4596480000000  0.4480420000000  0.4870130000000 1.0
C      1  0.4524860000000  0.4453490000000  0.5285450000000 1.0
C      1  0.4714050000000  0.5650990000000  0.4702650000000 1.0
C      1  0.5217980000000  0.4927390000000  0.5785980000000 1.0
C      1  0.5086420000000  0.5070160000000  0.4342050000000 1.0
C      1  0.5394940000000  0.5278600000000  0.4929310000000 1.0
C      1  0.5404480000000  0.4749310000000  0.4942850000000 1.0
C      1  0.4745200000000  0.4385940000000  0.5104920000000 1.0
C      1  0.4739940000000  0.5653600000000  0.4974970000000 1.0
C      1  0.4934650000000  0.5163090000000  0.4125810000000 1.0
C      1  0.5010490000000  0.5103390000000  0.5872800000000 1.0
C      1  0.4328890000000  0.5515130000000  0.5217890000000 1.0
C      1  0.4386300000000  0.4555600000000  0.5047830000000 1.0
C      1  0.4641050000000  0.4958240000000  0.5812850000000 1.0
C      1  0.4530170000000  0.5016600000000  0.4325800000000 1.0
C      1  0.5363880000000  0.5013870000000  0.4353410000000 1.0
C      1  0.5413050000000  0.5002800000000  0.5593890000000 1.0
C      1  0.4466580000000  0.5050220000000  0.4761340000000 1.0
C      1  0.4301780000000  0.4828680000000  0.5402120000000 1.0
C      1  0.4256100000000  0.4795080000000  0.5122470000000 1.0
C      1  0.4275930000000  0.5249330000000  0.5215040000000 1.0
C      1  0.5386780000000  0.4027110000000  0.5040360000000 1.0
C      1  0.5287590000000  0.5863410000000  0.5004440000000 1.0
C      1  0.4795430000000  0.5025830000000  0.6034290000000 1.0
C      1  0.4674440000000  0.5083380000000  0.4097440000000 1.0
C      1  0.5232750000000  0.5010050000000  0.4967980000000 1.0
C      1  0.5930390000000  0.5115380000000  0.5005010000000 1.0
C      1  0.4982590000000  0.4992170000000  0.4782800000000 1.0
C      1  0.4271530000000  0.5049990000000  0.4992180000000 1.0
C      1  0.5043590000000  0.5015320000000  0.5214880000000 1.0
C      1  0.4730440000000  0.5058740000000  0.4923000000000 1.0
END
