TITL C-25624-73-13 0.112137432735179 125000 -393.348202080532 0 0 56 (C1) n - 1
REM
REM in /rds/project/t2_vol4/rds-t2-cs072/BORA/CARBON/from-Arr/AIRSS/Generating-Clusters/GAP-ML-2020/Higher-Symm/SD-CG/HFTN-CG
REM
REM
REM
REM
REM
REM ./C.cell (b20cbc046b6831c77cfcea5457e17084)
REM AIRSS Version 0.9.1 bugfix July 2018 build 013d7b7c2542+ Fri, 06 Jul 2018 19:26:36 +0100
REM compiler GCC version 9.3.0
REM options -cpp -mtune=generic -march=x86-64 -g -O0
REM seed 320239172 1132889777 -2120483454 -1018158536 -485987936 -1075929661 1105025949 1411871416 -2088228224 -1112968873 -1367858651 130399765 -307084438 1993779948 -1056356513 1147094417 -2141855052 -249728989 917393657 1092809367 2018034636 -2023053716 649769098 -603002144 1035163104 -503150375 1575686663 111463399 -570739172 1762013758 151078138 1082281325 -1084942906
REM
CELL 1.54180   50.00000   50.00000   50.00000   90.00000   90.00000   90.00000
LATT -1
SFAC C  
C      1  0.5193740000000  0.5715180000000  0.5038460000000 1.0
C      1  0.5178480000000  0.5448320000000  0.5503080000000 1.0
C      1  0.5178270000000  0.5200450000000  0.5635790000000 1.0
C      1  0.5205450000000  0.4671670000000  0.5617750000000 1.0
C      1  0.5214110000000  0.4440630000000  0.5453670000000 1.0
C      1  0.5217620000000  0.4250100000000  0.4949750000000 1.0
C      1  0.5218040000000  0.4337820000000  0.4675520000000 1.0
C      1  0.5225450000000  0.4829860000000  0.4401340000000 1.0
C      1  0.5191370000000  0.5103820000000  0.4310770000000 1.0
C      1  0.5399590000000  0.5271300000000  0.4366620000000 1.0
C      1  0.5191970000000  0.5657340000000  0.4751810000000 1.0
C      1  0.4940990000000  0.5636730000000  0.4617170000000 1.0
C      1  0.4958520000000  0.5740880000000  0.5193330000000 1.0
C      1  0.4942450000000  0.5579660000000  0.5431200000000 1.0
C      1  0.4941580000000  0.5068120000000  0.5700980000000 1.0
C      1  0.4961010000000  0.4782420000000  0.5707650000000 1.0
C      1  0.4978640000000  0.4309750000000  0.5363970000000 1.0
C      1  0.4977280000000  0.4218790000000  0.5091870000000 1.0
C      1  0.4984360000000  0.4411370000000  0.4540060000000 1.0
C      1  0.4995380000000  0.4652050000000  0.4389860000000 1.0
C      1  0.4923250000000  0.5213420000000  0.4301760000000 1.0
C      1  0.4828770000000  0.5416080000000  0.4472510000000 1.0
C      1  0.4510340000000  0.5068050000000  0.4507100000000 1.0
C      1  0.4501510000000  0.5534020000000  0.4784610000000 1.0
C      1  0.4491650000000  0.5584340000000  0.5073530000000 1.0
C      1  0.4465000000000  0.5449220000000  0.5314710000000 1.0
C      1  0.4307880000000  0.5221630000000  0.5365090000000 1.0
C      1  0.4473160000000  0.5037180000000  0.5503910000000 1.0
C      1  0.4510130000000  0.4762450000000  0.5484110000000 1.0
C      1  0.4521240000000  0.4533370000000  0.5287610000000 1.0
C      1  0.4529230000000  0.4462880000000  0.5020980000000 1.0
C      1  0.4531000000000  0.4561590000000  0.4737010000000 1.0
C      1  0.4526580000000  0.4778200000000  0.4567000000000 1.0
C      1  0.5393310000000  0.5090540000000  0.5449910000000 1.0
C      1  0.5403560000000  0.4817310000000  0.5438550000000 1.0
C      1  0.5415510000000  0.4572750000000  0.5268640000000 1.0
C      1  0.5423990000000  0.4465790000000  0.5016220000000 1.0
C      1  0.5420550000000  0.4538650000000  0.4731540000000 1.0
C      1  0.5434800000000  0.4781320000000  0.4602120000000 1.0
C      1  0.5577110000000  0.5001050000000  0.4739130000000 1.0
C      1  0.5498420000000  0.5259500000000  0.4627730000000 1.0
C      1  0.5412060000000  0.5468110000000  0.4788960000000 1.0
C      1  0.5400150000000  0.5501860000000  0.5079280000000 1.0
C      1  0.5391470000000  0.5354720000000  0.5311410000000 1.0
C      1  0.4718410000000  0.5739160000000  0.4763480000000 1.0
C      1  0.4719060000000  0.5773700000000  0.5044760000000 1.0
C      1  0.4697960000000  0.5446560000000  0.5497060000000 1.0
C      1  0.4698880000000  0.5193590000000  0.5620060000000 1.0
C      1  0.4729640000000  0.4640190000000  0.5634940000000 1.0
C      1  0.4737160000000  0.4412760000000  0.5461790000000 1.0
C      1  0.4739070000000  0.4263600000000  0.4945060000000 1.0
C      1  0.4740870000000  0.4355430000000  0.4676470000000 1.0
C      1  0.4737560000000  0.4759670000000  0.4344300000000 1.0
C      1  0.4710100000000  0.5031340000000  0.4291410000000 1.0
C      1  0.4565640000000  0.5333540000000  0.4593820000000 1.0
C      1  0.5702170000000  0.4985270000000  0.4993580000000 1.0
END
