TITL C-25014-9784-6 -24.9229679141374 125000 -688.546995202693 0 0 94 (C1) n - 1
REM
REM in /rds/project/t2_vol4/rds-t2-cs072/BORA/CARBON/from-Arr/AIRSS/Generating-Clusters/GAP-ML-2020/Higher-Symm/SD-CG/HFTN-CG
REM
REM
REM
REM
REM
REM ./C.cell (b20cbc046b6831c77cfcea5457e17084)
REM AIRSS Version 0.9.1 bugfix July 2018 build 013d7b7c2542+ Fri, 06 Jul 2018 19:26:36 +0100
REM compiler GCC version 9.3.0
REM options -cpp -mtune=generic -march=x86-64 -g -O0
REM seed -2055210073 -1907105657 -1919622542 -1765692165 -1516404156 -2023687224 -458902386 -531922836 1110151604 1511692741 125538260 -244900541 361459891 -462711163 -1710828589 1317767166 74468921 800400885 -812395677 242685693 -1743794179 1225199008 348407539 -1634437631 -554235526 -1100842004 -105463647 -1991867818 1687880063 -1501908579 1655839393 -1728721393 -906159923
REM
CELL 1.54180   50.00000   50.00000   50.00000   90.00000   90.00000   90.00000
LATT -1
SFAC C  
C      1  0.5003530000000  0.4198520000000  0.4646120000000 1.0
C      1  0.4971600000000  0.5711180000000  0.4476130000000 1.0
C      1  0.4934030000000  0.5087610000000  0.5871060000000 1.0
C      1  0.4437540000000  0.4833600000000  0.4429890000000 1.0
C      1  0.4400190000000  0.5529310000000  0.5132890000000 1.0
C      1  0.4410590000000  0.4560130000000  0.5356940000000 1.0
C      1  0.5576580000000  0.4927240000000  0.4398620000000 1.0
C      1  0.5532980000000  0.5603240000000  0.5258610000000 1.0
C      1  0.5542920000000  0.4513470000000  0.5408140000000 1.0
C      1  0.5152280000000  0.5253170000000  0.5019680000000 1.0
C      1  0.5147280000000  0.4762680000000  0.5243860000000 1.0
C      1  0.5111170000000  0.4848980000000  0.4770660000000 1.0
C      1  0.4298250000000  0.5312460000000  0.5306630000000 1.0
C      1  0.4297130000000  0.4499990000000  0.5084840000000 1.0
C      1  0.4323790000000  0.5094270000000  0.4512310000000 1.0
C      1  0.4112040000000  0.5050600000000  0.4692760000000 1.0
C      1  0.4096470000000  0.5168950000000  0.5167100000000 1.0
C      1  0.4099050000000  0.4699350000000  0.5031720000000 1.0
C      1  0.5527720000000  0.5648870000000  0.4968750000000 1.0
C      1  0.5513090000000  0.4741530000000  0.5587350000000 1.0
C      1  0.5559970000000  0.4655640000000  0.4500300000000 1.0
C      1  0.5106670000000  0.4360770000000  0.5548550000000 1.0
C      1  0.5145690000000  0.4846670000000  0.4187240000000 1.0
C      1  0.5087380000000  0.5790320000000  0.5279840000000 1.0
C      1  0.4464830000000  0.5092000000000  0.5447170000000 1.0
C      1  0.4391140000000  0.4421780000000  0.4812620000000 1.0
C      1  0.4470640000000  0.5342020000000  0.4629700000000 1.0
C      1  0.4300960000000  0.5446720000000  0.4866310000000 1.0
C      1  0.4300320000000  0.4827850000000  0.5418950000000 1.0
C      1  0.4308660000000  0.4636270000000  0.4619070000000 1.0
C      1  0.4957600000000  0.4171360000000  0.5149690000000 1.0
C      1  0.4965370000000  0.5273540000000  0.4218250000000 1.0
C      1  0.4910690000000  0.5534620000000  0.5627690000000 1.0
C      1  0.5252100000000  0.5289670000000  0.4248110000000 1.0
C      1  0.5199280000000  0.5525880000000  0.5641060000000 1.0
C      1  0.5245740000000  0.4192930000000  0.5143850000000 1.0
C      1  0.4841810000000  0.4538670000000  0.4332070000000 1.0
C      1  0.4795250000000  0.5789270000000  0.4928560000000 1.0
C      1  0.4786640000000  0.4640640000000  0.5706020000000 1.0
C      1  0.4602080000000  0.5556850000000  0.4482490000000 1.0
C      1  0.4573610000000  0.5130300000000  0.5715220000000 1.0
C      1  0.4612700000000  0.4263240000000  0.4742990000000 1.0
C      1  0.5786950000000  0.5201780000000  0.4814830000000 1.0
C      1  0.5758170000000  0.5116880000000  0.5288910000000 1.0
C      1  0.5768890000000  0.4751470000000  0.4983850000000 1.0
C      1  0.4895000000000  0.4985470000000  0.4203790000000 1.0
C      1  0.4840840000000  0.5685850000000  0.5383420000000 1.0
C      1  0.4868730000000  0.4299150000000  0.5399050000000 1.0
C      1  0.5611760000000  0.4390100000000  0.4930670000000 1.0
C      1  0.5608420000000  0.5411350000000  0.4528520000000 1.0
C      1  0.5567920000000  0.5245950000000  0.5610190000000 1.0
C      1  0.4843510000000  0.4152340000000  0.4887710000000 1.0
C      1  0.4833000000000  0.5508300000000  0.4313140000000 1.0
C      1  0.4786230000000  0.5321400000000  0.5772360000000 1.0
C      1  0.5678620000000  0.5473400000000  0.4801250000000 1.0
C      1  0.5648550000000  0.4983100000000  0.5523830000000 1.0
C      1  0.5683050000000  0.4603230000000  0.4749510000000 1.0
C      1  0.5070930000000  0.4581230000000  0.5722670000000 1.0
C      1  0.5123480000000  0.4581430000000  0.4287530000000 1.0
C      1  0.5073820000000  0.5836410000000  0.4999870000000 1.0
C      1  0.4689470000000  0.4790420000000  0.4291400000000 1.0
C      1  0.4645750000000  0.5684840000000  0.5163680000000 1.0
C      1  0.4655060000000  0.4474420000000  0.5492220000000 1.0
C      1  0.4783970000000  0.4326030000000  0.4506890000000 1.0
C      1  0.4744480000000  0.5752360000000  0.4653510000000 1.0
C      1  0.4726200000000  0.4896060000000  0.5806420000000 1.0
C      1  0.4099000000000  0.4891730000000  0.5235010000000 1.0
C      1  0.4109280000000  0.4779760000000  0.4763010000000 1.0
C      1  0.4102930000000  0.5247300000000  0.4898660000000 1.0
C      1  0.5096710000000  0.4689120000000  0.4991820000000 1.0
C      1  0.5175330000000  0.5112240000000  0.4783810000000 1.0
C      1  0.5143720000000  0.5207120000000  0.5275750000000 1.0
C      1  0.5698930000000  0.5138460000000  0.4543850000000 1.0
C      1  0.5660420000000  0.5378300000000  0.5372310000000 1.0
C      1  0.5682270000000  0.4539950000000  0.5164620000000 1.0
C      1  0.5377950000000  0.5495800000000  0.4405310000000 1.0
C      1  0.5332540000000  0.5292250000000  0.5742990000000 1.0
C      1  0.5387300000000  0.4235420000000  0.4899670000000 1.0
C      1  0.4682870000000  0.4968690000000  0.4964640000000 1.0
C      1  0.4704730000000  0.5196990000000  0.4801850000000 1.0
C      1  0.4716690000000  0.5016410000000  0.5239230000000 1.0
C      1  0.5336200000000  0.4317120000000  0.5388210000000 1.0
C      1  0.5362580000000  0.5023590000000  0.4235510000000 1.0
C      1  0.5307420000000  0.5675940000000  0.5416650000000 1.0
C      1  0.5266610000000  0.4276820000000  0.4640450000000 1.0
C      1  0.5236140000000  0.5693900000000  0.4560730000000 1.0
C      1  0.5204090000000  0.5046910000000  0.5827190000000 1.0
C      1  0.4959860000000  0.5292960000000  0.4824360000000 1.0
C      1  0.4996140000000  0.4985810000000  0.5301610000000 1.0
C      1  0.4856910000000  0.4768220000000  0.4867250000000 1.0
C      1  0.5337310000000  0.4477650000000  0.4448240000000 1.0
C      1  0.5298750000000  0.5765690000000  0.4834380000000 1.0
C      1  0.5280580000000  0.4778440000000  0.5752210000000 1.0
C      1  0.5809370000000  0.5024590000000  0.5030500000000 1.0
END
