TITL C-25828-2301-5 0.0865414463887222 125000 -573.072767756895 0 0 86 (C1) n - 1
REM
REM in /rds/project/t2_vol4/rds-t2-cs072/BORA/CARBON/from-Arr/AIRSS/Generating-Clusters/GAP-ML-2020/Higher-Symm/SD-CG/HFTN-CG
REM
REM
REM
REM
REM
REM ./C.cell (b20cbc046b6831c77cfcea5457e17084)
REM AIRSS Version 0.9.1 bugfix July 2018 build 013d7b7c2542+ Fri, 06 Jul 2018 19:26:36 +0100
REM compiler GCC version 9.3.0
REM options -cpp -mtune=generic -march=x86-64 -g -O0
REM seed 1737718712 -1247696663 -1299846186 372761751 1137175467 -1700769763 -1102974390 -2103368550 257978727 1075028679 -1617927595 -1616703759 -1077239594 -1245604374 278325280 -1052847576 2015453408 -2024825834 1220419705 1381779087 738826180 -1574232038 126732202 -1813798406 376526123 -387793382 1587812152 -122478569 -1743190403 926246578 1980393250 -817894998 1422664560
REM
CELL 1.54180   50.00000   50.00000   50.00000   90.00000   90.00000   90.00000
LATT -1
SFAC C  
C      1  0.5541500000000  0.5345130000000  0.4463170000000 1.0
C      1  0.5547160000000  0.5529140000000  0.5364850000000 1.0
C      1  0.5557600000000  0.4633390000000  0.5552290000000 1.0
C      1  0.5503660000000  0.4456820000000  0.4656300000000 1.0
C      1  0.4424230000000  0.5350500000000  0.4427280000000 1.0
C      1  0.4427260000000  0.5566740000000  0.5333610000000 1.0
C      1  0.4448040000000  0.4650520000000  0.5544170000000 1.0
C      1  0.4488760000000  0.4466770000000  0.4641510000000 1.0
C      1  0.5599890000000  0.5046960000000  0.5361650000000 1.0
C      1  0.5632650000000  0.4601120000000  0.5072020000000 1.0
C      1  0.5594680000000  0.4922140000000  0.4641690000000 1.0
C      1  0.5596910000000  0.5355600000000  0.4941310000000 1.0
C      1  0.4399650000000  0.5074310000000  0.5354340000000 1.0
C      1  0.4402490000000  0.4631120000000  0.5064250000000 1.0
C      1  0.4396750000000  0.4933330000000  0.4630220000000 1.0
C      1  0.4396210000000  0.5366970000000  0.4917470000000 1.0
C      1  0.4340120000000  0.5212360000000  0.4671310000000 1.0
C      1  0.4346080000000  0.5323690000000  0.5197580000000 1.0
C      1  0.4353750000000  0.4790900000000  0.5310680000000 1.0
C      1  0.4362530000000  0.4680740000000  0.4783920000000 1.0
C      1  0.5641700000000  0.5200800000000  0.4690650000000 1.0
C      1  0.5647640000000  0.5301600000000  0.5216600000000 1.0
C      1  0.5658510000000  0.4771030000000  0.5316800000000 1.0
C      1  0.5641080000000  0.4674700000000  0.4790560000000 1.0
C      1  0.4676520000000  0.5661530000000  0.5165340000000 1.0
C      1  0.4685520000000  0.4823940000000  0.5643830000000 1.0
C      1  0.4720620000000  0.4359870000000  0.4812060000000 1.0
C      1  0.4673230000000  0.5177130000000  0.4336100000000 1.0
C      1  0.5302490000000  0.5637580000000  0.5204730000000 1.0
C      1  0.5305700000000  0.4782020000000  0.5630700000000 1.0
C      1  0.5347940000000  0.4305470000000  0.4855660000000 1.0
C      1  0.5291810000000  0.5191520000000  0.4361350000000 1.0
C      1  0.4774870000000  0.4389250000000  0.5357570000000 1.0
C      1  0.4684670000000  0.4634060000000  0.4333050000000 1.0
C      1  0.4748320000000  0.5611820000000  0.4609520000000 1.0
C      1  0.4744850000000  0.5382220000000  0.5602980000000 1.0
C      1  0.5354280000000  0.4282440000000  0.5356960000000 1.0
C      1  0.5225660000000  0.4652740000000  0.4346970000000 1.0
C      1  0.5297030000000  0.5673990000000  0.4658470000000 1.0
C      1  0.5290870000000  0.5330600000000  0.5678520000000 1.0
C      1  0.5134260000000  0.4647560000000  0.5403220000000 1.0
C      1  0.5175740000000  0.4591760000000  0.4844220000000 1.0
C      1  0.5110860000000  0.5337610000000  0.4551160000000 1.0
C      1  0.5114250000000  0.5442920000000  0.5337820000000 1.0
C      1  0.4837920000000  0.4692980000000  0.5419910000000 1.0
C      1  0.4922790000000  0.4551740000000  0.4695360000000 1.0
C      1  0.4819460000000  0.5302060000000  0.4556990000000 1.0
C      1  0.4821590000000  0.5440920000000  0.5298990000000 1.0
C      1  0.5418780000000  0.4476560000000  0.4398180000000 1.0
C      1  0.5508900000000  0.5614890000000  0.4490950000000 1.0
C      1  0.5506520000000  0.5498720000000  0.5631950000000 1.0
C      1  0.5526380000000  0.4369490000000  0.5553650000000 1.0
C      1  0.4482640000000  0.4457040000000  0.4369080000000 1.0
C      1  0.4523920000000  0.5613800000000  0.4437000000000 1.0
C      1  0.4520230000000  0.5555110000000  0.5602080000000 1.0
C      1  0.4554300000000  0.4384510000000  0.5531410000000 1.0
C      1  0.4878460000000  0.4095410000000  0.4805370000000 1.0
C      1  0.4867260000000  0.5245180000000  0.4102680000000 1.0
C      1  0.4867400000000  0.5890710000000  0.5238680000000 1.0
C      1  0.4870080000000  0.4737310000000  0.5870670000000 1.0
C      1  0.5134680000000  0.4103570000000  0.4805370000000 1.0
C      1  0.5123360000000  0.5235270000000  0.4100420000000 1.0
C      1  0.5123750000000  0.5895600000000  0.5245640000000 1.0
C      1  0.5125970000000  0.4727600000000  0.5875560000000 1.0
C      1  0.5342400000000  0.5059880000000  0.5514890000000 1.0
C      1  0.5484410000000  0.4353110000000  0.5104580000000 1.0
C      1  0.5326270000000  0.4916780000000  0.4486110000000 1.0
C      1  0.5345070000000  0.5517900000000  0.4930260000000 1.0
C      1  0.4650290000000  0.5094810000000  0.5512130000000 1.0
C      1  0.4661920000000  0.4485710000000  0.5076200000000 1.0
C      1  0.4645140000000  0.4908610000000  0.4471040000000 1.0
C      1  0.4652180000000  0.5519340000000  0.4898920000000 1.0
C      1  0.5136370000000  0.5139480000000  0.5274380000000 1.0
C      1  0.5125150000000  0.4736480000000  0.5105220000000 1.0
C      1  0.5148820000000  0.4896100000000  0.4730220000000 1.0
C      1  0.5136230000000  0.5275250000000  0.4860290000000 1.0
C      1  0.4833740000000  0.5137410000000  0.5254010000000 1.0
C      1  0.4831510000000  0.4754980000000  0.5121430000000 1.0
C      1  0.4851350000000  0.4851630000000  0.4716340000000 1.0
C      1  0.4835420000000  0.5265830000000  0.4859680000000 1.0
C      1  0.5046540000000  0.5622670000000  0.4546590000000 1.0
C      1  0.5085860000000  0.4365210000000  0.5397550000000 1.0
C      1  0.4952770000000  0.4561180000000  0.4407290000000 1.0
C      1  0.5043140000000  0.5443770000000  0.5622730000000 1.0
C      1  0.5213100000000  0.5018470000000  0.5009060000000 1.0
C      1  0.4756400000000  0.5007190000000  0.4979860000000 1.0
END
