TITL C-25909-8128-1 -0.234693364319071 125000 -549.315186613112 0 0 81 (C1) n - 1
REM
REM in /rds/project/t2_vol4/rds-t2-cs072/BORA/CARBON/from-Arr/AIRSS/Generating-Clusters/GAP-ML-2020/Higher-Symm/SD-CG/HFTN-CG
REM
REM
REM
REM
REM
REM ./C.cell (b20cbc046b6831c77cfcea5457e17084)
REM AIRSS Version 0.9.1 bugfix July 2018 build 013d7b7c2542+ Fri, 06 Jul 2018 19:26:36 +0100
REM compiler GCC version 9.3.0
REM options -cpp -mtune=generic -march=x86-64 -g -O0
REM seed 1566506005 -1314852489 1096329483 307813306 -1612737662 -2024001460 -1866119442 962328305 -966191647 1623596825 1491150409 761500500 1179904678 1380512760 -100185690 600713622 832710856 2056551432 609808302 1014297211 1967487637 1297560499 1128879964 -589454070 1534512835 567759422 35069499 -2144695362 -1512874459 -2089473674 842360155 14852201 813422438
REM
CELL 1.54180   50.00000   50.00000   50.00000   90.00000   90.00000   90.00000
LATT -1
SFAC C  
C      1  0.4422790000000  0.4869540000000  0.5665260000000 1.0
C      1  0.4642660000000  0.5168210000000  0.4284060000000 1.0
C      1  0.4381000000000  0.5163570000000  0.5637640000000 1.0
C      1  0.4497500000000  0.4629900000000  0.4270340000000 1.0
C      1  0.5174690000000  0.5251100000000  0.4226820000000 1.0
C      1  0.5141690000000  0.4808720000000  0.5837450000000 1.0
C      1  0.5202340000000  0.4797670000000  0.4178700000000 1.0
C      1  0.5311130000000  0.5271680000000  0.5773010000000 1.0
C      1  0.4403370000000  0.4779480000000  0.4485120000000 1.0
C      1  0.4237620000000  0.5121070000000  0.5383400000000 1.0
C      1  0.4454160000000  0.5066040000000  0.4477140000000 1.0
C      1  0.4278590000000  0.4828120000000  0.5413250000000 1.0
C      1  0.5154100000000  0.5830790000000  0.4708410000000 1.0
C      1  0.5234780000000  0.4203010000000  0.5140740000000 1.0
C      1  0.5108360000000  0.4227040000000  0.4633760000000 1.0
C      1  0.5173510000000  0.5768070000000  0.5221050000000 1.0
C      1  0.4645620000000  0.5257870000000  0.5576030000000 1.0
C      1  0.4745100000000  0.4685670000000  0.4170630000000 1.0
C      1  0.4721420000000  0.4805600000000  0.5638160000000 1.0
C      1  0.4800480000000  0.5361910000000  0.4429620000000 1.0
C      1  0.4954180000000  0.4209950000000  0.5216060000000 1.0
C      1  0.4906450000000  0.5742100000000  0.4810500000000 1.0
C      1  0.4881860000000  0.5727640000000  0.5233300000000 1.0
C      1  0.4889910000000  0.4266630000000  0.4799960000000 1.0
C      1  0.5243990000000  0.5517970000000  0.5670770000000 1.0
C      1  0.5027960000000  0.4574410000000  0.4226750000000 1.0
C      1  0.4899940000000  0.4678900000000  0.5820370000000 1.0
C      1  0.5037650000000  0.5485230000000  0.4337710000000 1.0
C      1  0.5618580000000  0.4501110000000  0.5283620000000 1.0
C      1  0.5371020000000  0.5391950000000  0.4600850000000 1.0
C      1  0.5563880000000  0.5377620000000  0.5382520000000 1.0
C      1  0.5337550000000  0.4638350000000  0.4575330000000 1.0
C      1  0.5384400000000  0.5165120000000  0.4407800000000 1.0
C      1  0.5499030000000  0.4919640000000  0.5493880000000 1.0
C      1  0.5384510000000  0.4866050000000  0.4397530000000 1.0
C      1  0.5524080000000  0.5186560000000  0.5590320000000 1.0
C      1  0.4890680000000  0.5436400000000  0.5194970000000 1.0
C      1  0.4942650000000  0.4539780000000  0.4919630000000 1.0
C      1  0.4930300000000  0.4512580000000  0.5232620000000 1.0
C      1  0.4949530000000  0.5458950000000  0.4886410000000 1.0
C      1  0.4464410000000  0.4731710000000  0.5201520000000 1.0
C      1  0.4504720000000  0.5183200000000  0.4745710000000 1.0
C      1  0.4408480000000  0.5204140000000  0.5152130000000 1.0
C      1  0.4479300000000  0.4709590000000  0.4775710000000 1.0
C      1  0.5227500000000  0.5624060000000  0.4504790000000 1.0
C      1  0.5393190000000  0.4370720000000  0.5314780000000 1.0
C      1  0.5156250000000  0.4438460000000  0.4445340000000 1.0
C      1  0.5316010000000  0.5566450000000  0.5404720000000 1.0
C      1  0.4684200000000  0.5235100000000  0.5280340000000 1.0
C      1  0.4770760000000  0.4706760000000  0.4768690000000 1.0
C      1  0.4740470000000  0.4733450000000  0.5329300000000 1.0
C      1  0.4805360000000  0.5262870000000  0.4721220000000 1.0
C      1  0.5190520000000  0.4604520000000  0.5339010000000 1.0
C      1  0.5242650000000  0.5392670000000  0.4856670000000 1.0
C      1  0.5136670000000  0.5332260000000  0.5319160000000 1.0
C      1  0.5263720000000  0.4582300000000  0.4860440000000 1.0
C      1  0.4904500000000  0.4841090000000  0.4577410000000 1.0
C      1  0.5057210000000  0.5069270000000  0.5458700000000 1.0
C      1  0.4970070000000  0.5022070000000  0.4769340000000 1.0
C      1  0.5234590000000  0.4825450000000  0.5543360000000 1.0
C      1  0.4493410000000  0.5656410000000  0.4944540000000 1.0
C      1  0.4516060000000  0.4261340000000  0.5010130000000 1.0
C      1  0.5580600000000  0.5241490000000  0.5137200000000 1.0
C      1  0.5584680000000  0.4802540000000  0.5237160000000 1.0
C      1  0.5057600000000  0.5026480000000  0.4103980000000 1.0
C      1  0.5100290000000  0.5102690000000  0.5862820000000 1.0
C      1  0.5282440000000  0.4277250000000  0.4869050000000 1.0
C      1  0.5240450000000  0.5870930000000  0.4971720000000 1.0
C      1  0.4859730000000  0.5103690000000  0.5681730000000 1.0
C      1  0.4779190000000  0.4977330000000  0.4119260000000 1.0
C      1  0.5294570000000  0.4760930000000  0.5092140000000 1.0
C      1  0.5288360000000  0.5220300000000  0.5073330000000 1.0
C      1  0.4428990000000  0.4510130000000  0.4997660000000 1.0
C      1  0.4396970000000  0.5407280000000  0.4926770000000 1.0
C      1  0.4708480000000  0.5817570000000  0.5008910000000 1.0
C      1  0.4761950000000  0.4128530000000  0.5009870000000 1.0
C      1  0.5749030000000  0.5008930000000  0.5078180000000 1.0
C      1  0.5103910000000  0.4984030000000  0.5031850000000 1.0
C      1  0.4876440000000  0.4986760000000  0.5244330000000 1.0
C      1  0.4430700000000  0.4956160000000  0.4960500000000 1.0
C      1  0.5936500000000  0.4985840000000  0.4893810000000 1.0
END
