TITL C-25634-1264-5 -19.0506996705808 125000 -634.662712760377 0 0 89 (C3) n - 1
REM
REM in /rds/project/t2_vol4/rds-t2-cs072/BORA/CARBON/from-Arr/AIRSS/Generating-Clusters/GAP-ML-2020/Higher-Symm/SD-CG/HFTN-CG
REM
REM
REM
REM
REM
REM ./C.cell (b20cbc046b6831c77cfcea5457e17084)
REM AIRSS Version 0.9.1 bugfix July 2018 build 013d7b7c2542+ Fri, 06 Jul 2018 19:26:36 +0100
REM compiler GCC version 9.3.0
REM options -cpp -mtune=generic -march=x86-64 -g -O0
REM seed 1084509224 175154999 -1340796510 2081701748 1090744138 500315463 -1129133433 -888116838 -378894428 1816462440 -1402916311 -662532426 1451353809 -22818732 -877324400 1512949828 -805356647 1104131871 -1059206781 453794061 1189182695 -710042739 1214518165 391897001 42529095 939990432 1959732555 1723867974 1364068733 692398180 1157451739 780795873 1495789213
REM
CELL 1.54180   50.00000   50.00000   50.00000   90.00000   90.00000   90.00000
LATT -1
SFAC C  
C      1  0.4398420000000  0.4913180000000  0.4520870000000 1.0
C      1  0.4386220000000  0.4632770000000  0.5314820000000 1.0
C      1  0.4392420000000  0.5460620000000  0.5160720000000 1.0
C      1  0.4601820000000  0.4266710000000  0.5027960000000 1.0
C      1  0.4599260000000  0.5391120000000  0.5624570000000 1.0
C      1  0.4616370000000  0.5345570000000  0.4352610000000 1.0
C      1  0.4654540000000  0.4264070000000  0.4742720000000 1.0
C      1  0.4644900000000  0.5144460000000  0.5770250000000 1.0
C      1  0.4664510000000  0.5594150000000  0.4494170000000 1.0
C      1  0.5288310000000  0.4666630000000  0.4245050000000 1.0
C      1  0.5267920000000  0.4500110000000  0.5680550000000 1.0
C      1  0.5282310000000  0.5826660000000  0.5107080000000 1.0
C      1  0.4403970000000  0.4465160000000  0.5083670000000 1.0
C      1  0.4403720000000  0.5343940000000  0.5421670000000 1.0
C      1  0.4415660000000  0.5197240000000  0.4491710000000 1.0
C      1  0.4813280000000  0.5775270000000  0.5121210000000 1.0
C      1  0.4819550000000  0.4713580000000  0.4274920000000 1.0
C      1  0.4800260000000  0.4511510000000  0.5617390000000 1.0
C      1  0.5349510000000  0.5146440000000  0.4326210000000 1.0
C      1  0.5333210000000  0.4329320000000  0.5225450000000 1.0
C      1  0.5335570000000  0.5516750000000  0.5483470000000 1.0
C      1  0.4337720000000  0.5066690000000  0.5456000000000 1.0
C      1  0.4349320000000  0.5366850000000  0.4713590000000 1.0
C      1  0.4343880000000  0.4573760000000  0.4824830000000 1.0
C      1  0.5089550000000  0.4922250000000  0.5836690000000 1.0
C      1  0.5109700000000  0.5754230000000  0.4660590000000 1.0
C      1  0.5104400000000  0.4319570000000  0.4528110000000 1.0
C      1  0.4962310000000  0.4768350000000  0.4856200000000 1.0
C      1  0.4957580000000  0.4984670000000  0.5281780000000 1.0
C      1  0.4964330000000  0.5245090000000  0.4881690000000 1.0
C      1  0.4957790000000  0.5231430000000  0.5156810000000 1.0
C      1  0.4962520000000  0.5013510000000  0.4730450000000 1.0
C      1  0.4955760000000  0.4753220000000  0.5132310000000 1.0
C      1  0.5030120000000  0.4647440000000  0.5753680000000 1.0
C      1  0.5047030000000  0.5820890000000  0.4939100000000 1.0
C      1  0.5048920000000  0.4528590000000  0.4330190000000 1.0
C      1  0.5205400000000  0.5751390000000  0.5382980000000 1.0
C      1  0.5217920000000  0.4944620000000  0.4171120000000 1.0
C      1  0.5196940000000  0.4298470000000  0.5475610000000 1.0
C      1  0.5043940000000  0.5465890000000  0.4276130000000 1.0
C      1  0.5027890000000  0.4132110000000  0.4968890000000 1.0
C      1  0.5023150000000  0.5399070000000  0.5777540000000 1.0
C      1  0.5312670000000  0.5431600000000  0.4335830000000 1.0
C      1  0.5297860000000  0.4195780000000  0.4973090000000 1.0
C      1  0.5293410000000  0.5365690000000  0.5724650000000 1.0
C      1  0.4281640000000  0.5279990000000  0.4968770000000 1.0
C      1  0.4282150000000  0.4839420000000  0.4771440000000 1.0
C      1  0.4275850000000  0.4888830000000  0.5251610000000 1.0
C      1  0.5685290000000  0.4739770000000  0.4729150000000 1.0
C      1  0.5677070000000  0.4875060000000  0.5381710000000 1.0
C      1  0.5685570000000  0.5372580000000  0.4938310000000 1.0
C      1  0.5278980000000  0.5075670000000  0.4611080000000 1.0
C      1  0.5269440000000  0.4612710000000  0.5143240000000 1.0
C      1  0.5271030000000  0.5305110000000  0.5278100000000 1.0
C      1  0.4852380000000  0.5248960000000  0.4223440000000 1.0
C      1  0.4834140000000  0.4198640000000  0.5179990000000 1.0
C      1  0.4834970000000  0.5552320000000  0.5611300000000 1.0
C      1  0.5599820000000  0.4498120000000  0.4584800000000 1.0
C      1  0.5587000000000  0.4872540000000  0.5661730000000 1.0
C      1  0.5602450000000  0.5618030000000  0.4799100000000 1.0
C      1  0.4933140000000  0.5664930000000  0.4458670000000 1.0
C      1  0.4922520000000  0.4192780000000  0.4703500000000 1.0
C      1  0.4911510000000  0.5140980000000  0.5855910000000 1.0
C      1  0.4933530000000  0.4969150000000  0.4174760000000 1.0
C      1  0.4912840000000  0.4294820000000  0.5447950000000 1.0
C      1  0.4920680000000  0.5734730000000  0.5395370000000 1.0
C      1  0.5853230000000  0.4957920000000  0.5183010000000 1.0
C      1  0.5857130000000  0.5155720000000  0.4968680000000 1.0
C      1  0.5856600000000  0.4871190000000  0.4904540000000 1.0
C      1  0.5341830000000  0.4369790000000  0.4710080000000 1.0
C      1  0.5331620000000  0.5050120000000  0.5706100000000 1.0
C      1  0.5349020000000  0.5572570000000  0.4619010000000 1.0
C      1  0.5243730000000  0.4643150000000  0.4839150000000 1.0
C      1  0.5237950000000  0.5027100000000  0.5403280000000 1.0
C      1  0.5247790000000  0.5323690000000  0.4788770000000 1.0
C      1  0.4509110000000  0.4475190000000  0.4614770000000 1.0
C      1  0.4497270000000  0.4930920000000  0.5649000000000 1.0
C      1  0.4513000000000  0.5598770000000  0.4737300000000 1.0
C      1  0.4565100000000  0.4687340000000  0.4419870000000 1.0
C      1  0.4549360000000  0.4655020000000  0.5563570000000 1.0
C      1  0.4561750000000  0.5661740000000  0.5019770000000 1.0
C      1  0.5527710000000  0.5812080000000  0.4983400000000 1.0
C      1  0.5530510000000  0.4562110000000  0.4323450000000 1.0
C      1  0.5511530000000  0.4615580000000  0.5735800000000 1.0
C      1  0.5418940000000  0.4864880000000  0.4758080000000 1.0
C      1  0.5412060000000  0.4842680000000  0.5254590000000 1.0
C      1  0.5417370000000  0.5283800000000  0.5025590000000 1.0
C      1  0.5426580000000  0.4997070000000  0.5012900000000 1.0
C      1  0.4242390000000  0.5002930000000  0.4996760000000 1.0
END
