TITL C-25833-4769-8 -0.147991197277454 125000 -626.829160145504 0 0 89 (C1) n - 1
REM
REM in /rds/project/t2_vol4/rds-t2-cs072/BORA/CARBON/from-Arr/AIRSS/Generating-Clusters/GAP-ML-2020/Higher-Symm/SD-CG/HFTN-CG
REM
REM
REM
REM
REM
REM ./C.cell (b20cbc046b6831c77cfcea5457e17084)
REM AIRSS Version 0.9.1 bugfix July 2018 build 013d7b7c2542+ Fri, 06 Jul 2018 19:26:36 +0100
REM compiler GCC version 9.3.0
REM options -cpp -mtune=generic -march=x86-64 -g -O0
REM seed 1921851001 1194475890 -91234229 19927425 -958336165 -878074069 1621560199 1909314436 1522367150 -458158760 276993277 982015047 1309928302 658490300 -810072774 -1517948347 -683646323 1445863577 -1593233659 1993255449 -1712847259 1478384527 437888530 2030657547 -67008408 2091354569 156422257 2038310755 -719302028 1563947314 -1107885493 -387089679 995248371
REM
CELL 1.54180   50.00000   50.00000   50.00000   90.00000   90.00000   90.00000
LATT -1
SFAC C  
C      1  0.5713620000000  0.5495720000000  0.4989990000000 1.0
C      1  0.5666770000000  0.4787900000000  0.4654200000000 1.0
C      1  0.5113330000000  0.4931110000000  0.4742140000000 1.0
C      1  0.4967160000000  0.4270490000000  0.5468000000000 1.0
C      1  0.4821820000000  0.4455370000000  0.5598560000000 1.0
C      1  0.5573360000000  0.4658490000000  0.5577700000000 1.0
C      1  0.5115410000000  0.5428810000000  0.4289480000000 1.0
C      1  0.5307040000000  0.4999020000000  0.4286650000000 1.0
C      1  0.4486840000000  0.4877390000000  0.5142390000000 1.0
C      1  0.5487170000000  0.5185200000000  0.4415300000000 1.0
C      1  0.5019240000000  0.5210510000000  0.5240110000000 1.0
C      1  0.4444060000000  0.4611060000000  0.4618980000000 1.0
C      1  0.4529400000000  0.4264480000000  0.4853450000000 1.0
C      1  0.4115730000000  0.5304920000000  0.4887590000000 1.0
C      1  0.5120170000000  0.5495020000000  0.5611180000000 1.0
C      1  0.5417240000000  0.4284030000000  0.5376540000000 1.0
C      1  0.5393310000000  0.5087760000000  0.5720560000000 1.0
C      1  0.5127480000000  0.5198630000000  0.4800810000000 1.0
C      1  0.4957560000000  0.5866210000000  0.4436650000000 1.0
C      1  0.4603890000000  0.5212250000000  0.4370010000000 1.0
C      1  0.5176160000000  0.4802570000000  0.5227350000000 1.0
C      1  0.5331340000000  0.5244610000000  0.5225390000000 1.0
C      1  0.4897890000000  0.4180860000000  0.5193780000000 1.0
C      1  0.4832670000000  0.5050960000000  0.4314450000000 1.0
C      1  0.4359100000000  0.5104650000000  0.4475230000000 1.0
C      1  0.5407120000000  0.4367780000000  0.4684970000000 1.0
C      1  0.5623270000000  0.4481090000000  0.5358910000000 1.0
C      1  0.4216140000000  0.5335330000000  0.5145020000000 1.0
C      1  0.4210080000000  0.4837500000000  0.5221380000000 1.0
C      1  0.4510300000000  0.5495130000000  0.4712640000000 1.0
C      1  0.4562700000000  0.4992180000000  0.4889380000000 1.0
C      1  0.5374400000000  0.5363670000000  0.5639030000000 1.0
C      1  0.5737500000000  0.5502950000000  0.5260700000000 1.0
C      1  0.5288830000000  0.4712230000000  0.4351560000000 1.0
C      1  0.4958190000000  0.4952690000000  0.5380650000000 1.0
C      1  0.4654700000000  0.5247350000000  0.4894590000000 1.0
C      1  0.5217490000000  0.5732950000000  0.5115150000000 1.0
C      1  0.4995000000000  0.5021420000000  0.5678950000000 1.0
C      1  0.5208960000000  0.4878550000000  0.5793000000000 1.0
C      1  0.5449860000000  0.4978360000000  0.5264340000000 1.0
C      1  0.4674050000000  0.4780370000000  0.4725950000000 1.0
C      1  0.4646820000000  0.5342750000000  0.5571110000000 1.0
C      1  0.5223150000000  0.4361200000000  0.5569860000000 1.0
C      1  0.5557510000000  0.4936700000000  0.5536880000000 1.0
C      1  0.5370670000000  0.5303410000000  0.4942210000000 1.0
C      1  0.4325900000000  0.4469320000000  0.4857970000000 1.0
C      1  0.4933370000000  0.4371600000000  0.4543660000000 1.0
C      1  0.4520340000000  0.5684310000000  0.4952520000000 1.0
C      1  0.5678990000000  0.4982010000000  0.5066770000000 1.0
C      1  0.5107090000000  0.4160170000000  0.4996000000000 1.0
C      1  0.5082640000000  0.4752750000000  0.4968630000000 1.0
C      1  0.5352100000000  0.5656030000000  0.4639440000000 1.0
C      1  0.4893490000000  0.5603000000000  0.4369440000000 1.0
C      1  0.4881130000000  0.4846700000000  0.4517210000000 1.0
C      1  0.5137080000000  0.4257900000000  0.4715880000000 1.0
C      1  0.5738800000000  0.4745490000000  0.4930440000000 1.0
C      1  0.4400340000000  0.5558220000000  0.5184360000000 1.0
C      1  0.5027840000000  0.5842250000000  0.4936920000000 1.0
C      1  0.4652710000000  0.4349490000000  0.4605720000000 1.0
C      1  0.5019570000000  0.4612520000000  0.4406450000000 1.0
C      1  0.4503080000000  0.5113130000000  0.5495180000000 1.0
C      1  0.4827090000000  0.4633370000000  0.4937520000000 1.0
C      1  0.4267840000000  0.5104600000000  0.5314100000000 1.0
C      1  0.5362590000000  0.4189330000000  0.5114060000000 1.0
C      1  0.4648260000000  0.5478750000000  0.4453290000000 1.0
C      1  0.4908720000000  0.5308270000000  0.5685600000000 1.0
C      1  0.4585890000000  0.5572220000000  0.5408600000000 1.0
C      1  0.4618820000000  0.4583170000000  0.5478830000000 1.0
C      1  0.5316920000000  0.4608550000000  0.5700690000000 1.0
C      1  0.4760790000000  0.5815260000000  0.5051240000000 1.0
C      1  0.5655460000000  0.5205940000000  0.4879150000000 1.0
C      1  0.5485640000000  0.4599100000000  0.4526990000000 1.0
C      1  0.5691850000000  0.4507360000000  0.5078760000000 1.0
C      1  0.4265580000000  0.5327310000000  0.4667250000000 1.0
C      1  0.4325950000000  0.4834070000000  0.4476040000000 1.0
C      1  0.4296260000000  0.4575600000000  0.5126660000000 1.0
C      1  0.5427220000000  0.5598320000000  0.4916120000000 1.0
C      1  0.5538320000000  0.4319200000000  0.4932810000000 1.0
C      1  0.5074450000000  0.5156570000000  0.4224470000000 1.0
C      1  0.5659300000000  0.5074170000000  0.4611550000000 1.0
C      1  0.5360530000000  0.5450150000000  0.4431880000000 1.0
C      1  0.5525650000000  0.5411890000000  0.5396850000000 1.0
C      1  0.4624030000000  0.4232090000000  0.5124010000000 1.0
C      1  0.5114840000000  0.5814770000000  0.4656780000000 1.0
C      1  0.4918770000000  0.5256430000000  0.4978220000000 1.0
C      1  0.4803520000000  0.5737980000000  0.5324800000000 1.0
C      1  0.5077620000000  0.5680730000000  0.5379830000000 1.0
C      1  0.4660580000000  0.4872160000000  0.5396270000000 1.0
C      1  0.4478550000000  0.4416120000000  0.5288240000000 1.0
END
