TITL C-25843-2510-3 -0.000299109068650353 125000 -506.400483827033 0 0 72 (C1) n - 1
REM
REM in /rds/project/t2_vol4/rds-t2-cs072/BORA/CARBON/from-Arr/AIRSS/Generating-Clusters/GAP-ML-2020/Higher-Symm/SD-CG/HFTN-CG
REM
REM
REM
REM
REM
REM ./C.cell (b20cbc046b6831c77cfcea5457e17084)
REM AIRSS Version 0.9.1 bugfix July 2018 build 013d7b7c2542+ Fri, 06 Jul 2018 19:26:36 +0100
REM compiler GCC version 9.3.0
REM options -cpp -mtune=generic -march=x86-64 -g -O0
REM seed -410461293 1260053254 829923267 75503374 1799605690 1475710643 -477919626 -112136359 1195688530 1388385028 620887598 152615112 -6337847 1576494874 1365830107 -1418903445 -219204318 -100386801 1045393011 2073020473 515828567 1141767286 -13035851 -531715576 -1556346037 1796378309 1678627487 -1286534517 167951765 1408405980 503986495 1782382517 243278727
REM
CELL 1.54180   50.00000   50.00000   50.00000   90.00000   90.00000   90.00000
LATT -1
SFAC C  
C      1  0.5460980000000  0.4459630000000  0.4911430000000 1.0
C      1  0.5463900000000  0.4569090000000  0.4635410000000 1.0
C      1  0.5464370000000  0.4789140000000  0.4456580000000 1.0
C      1  0.5459790000000  0.5071450000000  0.4449040000000 1.0
C      1  0.5478940000000  0.5350590000000  0.4566490000000 1.0
C      1  0.5482490000000  0.5521160000000  0.4786240000000 1.0
C      1  0.5467990000000  0.5549030000000  0.5087930000000 1.0
C      1  0.5477010000000  0.5450100000000  0.5346140000000 1.0
C      1  0.5467790000000  0.5210480000000  0.5524520000000 1.0
C      1  0.5455370000000  0.4929860000000  0.5501180000000 1.0
C      1  0.5516510000000  0.4793140000000  0.5270550000000 1.0
C      1  0.5444830000000  0.4542880000000  0.5183960000000 1.0
C      1  0.4645060000000  0.4743380000000  0.5789070000000 1.0
C      1  0.4605510000000  0.4294800000000  0.5530120000000 1.0
C      1  0.4675310000000  0.4209060000000  0.5039810000000 1.0
C      1  0.4660960000000  0.4235080000000  0.4753140000000 1.0
C      1  0.4676180000000  0.4566590000000  0.4304840000000 1.0
C      1  0.4679120000000  0.4839420000000  0.4205150000000 1.0
C      1  0.4682980000000  0.5410260000000  0.4378250000000 1.0
C      1  0.4728590000000  0.5658000000000  0.4507870000000 1.0
C      1  0.4681500000000  0.5708450000000  0.4782380000000 1.0
C      1  0.4670800000000  0.5714280000000  0.5375550000000 1.0
C      1  0.4654730000000  0.5549590000000  0.5613730000000 1.0
C      1  0.4676830000000  0.5027990000000  0.5807610000000 1.0
C      1  0.5326470000000  0.5184350000000  0.4216890000000 1.0
C      1  0.5359140000000  0.5453600000000  0.4312350000000 1.0
C      1  0.5359360000000  0.5791670000000  0.4764120000000 1.0
C      1  0.5326120000000  0.5804720000000  0.5048170000000 1.0
C      1  0.5344780000000  0.5601780000000  0.5567260000000 1.0
C      1  0.5329240000000  0.5360620000000  0.5727860000000 1.0
C      1  0.5317060000000  0.4765340000000  0.5706830000000 1.0
C      1  0.5263430000000  0.4494430000000  0.5642600000000 1.0
C      1  0.5295570000000  0.4379990000000  0.5386770000000 1.0
C      1  0.5338400000000  0.4215640000000  0.4815510000000 1.0
C      1  0.5327270000000  0.4326500000000  0.4545240000000 1.0
C      1  0.5368470000000  0.4674080000000  0.4187260000000 1.0
C      1  0.4990180000000  0.5762680000000  0.4431800000000 1.0
C      1  0.4910560000000  0.5867630000000  0.4866800000000 1.0
C      1  0.4937610000000  0.5811110000000  0.5352850000000 1.0
C      1  0.4913000000000  0.5553750000000  0.5730060000000 1.0
C      1  0.4946750000000  0.5087750000000  0.5873220000000 1.0
C      1  0.4894650000000  0.4635200000000  0.5874310000000 1.0
C      1  0.4871890000000  0.4251230000000  0.5571040000000 1.0
C      1  0.4942280000000  0.4135310000000  0.5111000000000 1.0
C      1  0.4913080000000  0.4162410000000  0.4652070000000 1.0
C      1  0.4936760000000  0.4461240000000  0.4267800000000 1.0
C      1  0.4940020000000  0.4894720000000  0.4109590000000 1.0
C      1  0.4912370000000  0.5376870000000  0.4201850000000 1.0
C      1  0.5009740000000  0.4410620000000  0.5757830000000 1.0
C      1  0.5056850000000  0.4214230000000  0.5349250000000 1.0
C      1  0.5085720000000  0.4107870000000  0.4870450000000 1.0
C      1  0.5061190000000  0.4290350000000  0.4448930000000 1.0
C      1  0.5100130000000  0.4659970000000  0.4141410000000 1.0
C      1  0.5055720000000  0.5144840000000  0.4131810000000 1.0
C      1  0.5110730000000  0.5577810000000  0.4263280000000 1.0
C      1  0.5108960000000  0.5871020000000  0.4657210000000 1.0
C      1  0.5054230000000  0.5866300000000  0.5108720000000 1.0
C      1  0.5085970000000  0.5716020000000  0.5572070000000 1.0
C      1  0.5062300000000  0.5333640000000  0.5822080000000 1.0
C      1  0.5092040000000  0.4846130000000  0.5872800000000 1.0
C      1  0.4527220000000  0.4537550000000  0.5356710000000 1.0
C      1  0.4537940000000  0.4459590000000  0.5085510000000 1.0
C      1  0.4528430000000  0.4498870000000  0.4780070000000 1.0
C      1  0.4531640000000  0.4655280000000  0.4549770000000 1.0
C      1  0.4539510000000  0.4932050000000  0.4439160000000 1.0
C      1  0.4547230000000  0.5196710000000  0.4537120000000 1.0
C      1  0.4488210000000  0.5263510000000  0.4798320000000 1.0
C      1  0.4546070000000  0.5493610000000  0.4939440000000 1.0
C      1  0.4535470000000  0.5511990000000  0.5220290000000 1.0
C      1  0.4525110000000  0.5330210000000  0.5456770000000 1.0
C      1  0.4538080000000  0.5068770000000  0.5549150000000 1.0
C      1  0.4529460000000  0.4766960000000  0.5521640000000 1.0
END
