TITL C-25004-9944-9 36.491222125812 125000 -1018.7118815564 0 0 145 (C5) n - 1
REM
REM in /rds/project/t2_vol4/rds-t2-cs072/BORA/CARBON/from-Arr/AIRSS/Generating-Clusters/GAP-ML-2020/Higher-Symm/SD-CG/HFTN-CG
REM
REM
REM
REM
REM
REM ./C.cell (b20cbc046b6831c77cfcea5457e17084)
REM AIRSS Version 0.9.1 bugfix July 2018 build 013d7b7c2542+ Fri, 06 Jul 2018 19:26:36 +0100
REM compiler GCC version 9.3.0
REM options -cpp -mtune=generic -march=x86-64 -g -O0
REM seed -1980318782 -150740616 216181389 1569927077 -924305381 -1057770797 -825030800 694861889 -906425819 934314050 -781264876 1017128945 -1201824049 1804356369 -1439539990 -537670397 2067356854 506279670 60968422 152655412 -398762995 -1097479374 1945457556 -1132165129 -362939164 1260290749 1676269239 1130542807 1542617015 -1313174942 1650385684 -1167522466 -746560306
REM
CELL 1.54180   50.00000   50.00000   50.00000   90.00000   90.00000   90.00000
LATT -1
SFAC C  
C      1  0.5179410000000  0.4242900000000  0.4553640000000 1.0
C      1  0.4631020000000  0.4242770000000  0.4691630000000 1.0
C      1  0.4592800000000  0.4242790000000  0.5255830000000 1.0
C      1  0.5117570000000  0.4242920000000  0.5466520000000 1.0
C      1  0.5480110000000  0.4242990000000  0.5032540000000 1.0
C      1  0.5167700000000  0.5792980000000  0.4553630000000 1.0
C      1  0.4627210000000  0.5792860000000  0.4702380000000 1.0
C      1  0.4601650000000  0.5792880000000  0.5262380000000 1.0
C      1  0.5126340000000  0.5793010000000  0.5459740000000 1.0
C      1  0.5476180000000  0.5793070000000  0.5021710000000 1.0
C      1  0.4862650000000  0.4367180000000  0.5882850000000 1.0
C      1  0.5797270000000  0.4367380000000  0.5403610000000 1.0
C      1  0.5630310000000  0.4367300000000  0.4366630000000 1.0
C      1  0.4592490000000  0.4367050000000  0.4204980000000 1.0
C      1  0.4118040000000  0.4366980000000  0.5142060000000 1.0
C      1  0.4916190000000  0.5674270000000  0.5890520000000 1.0
C      1  0.5820950000000  0.5674460000000  0.5354720000000 1.0
C      1  0.5590970000000  0.5674360000000  0.4328670000000 1.0
C      1  0.4544070000000  0.5674110000000  0.4230330000000 1.0
C      1  0.4127030000000  0.5674050000000  0.5195610000000 1.0
C      1  0.5146770000000  0.5181910000000  0.4779200000000 1.0
C      1  0.4835340000000  0.5181840000000  0.4792140000000 1.0
C      1  0.4751410000000  0.5181830000000  0.5092320000000 1.0
C      1  0.5010960000000  0.5181900000000  0.5264910000000 1.0
C      1  0.5255310000000  0.5181950000000  0.5071390000000 1.0
C      1  0.5150370000000  0.4835660000000  0.4779700000000 1.0
C      1  0.4836970000000  0.4835580000000  0.4788950000000 1.0
C      1  0.4748930000000  0.4835580000000  0.5089870000000 1.0
C      1  0.5007910000000  0.4835650000000  0.5266600000000 1.0
C      1  0.5256020000000  0.4835700000000  0.5074900000000 1.0
C      1  0.6134810000000  0.5023080000000  0.4877670000000 1.0
C      1  0.5234340000000  0.5022820000000  0.3882920000000 1.0
C      1  0.4010010000000  0.5022560000000  0.4431930000000 1.0
C      1  0.4153810000000  0.5022650000000  0.5765990000000 1.0
C      1  0.5467010000000  0.5022970000000  0.6041480000000 1.0
C      1  0.6262050000000  0.4772970000000  0.4942090000000 1.0
C      1  0.5334950000000  0.4772710000000  0.3781880000000 1.0
C      1  0.3945040000000  0.4772400000000  0.4305080000000 1.0
C      1  0.4013120000000  0.4772480000000  0.5788650000000 1.0
C      1  0.5445110000000  0.4772840000000  0.6182350000000 1.0
C      1  0.5700880000000  0.4857940000000  0.5352080000000 1.0
C      1  0.5551450000000  0.4857870000000  0.4442260000000 1.0
C      1  0.4639990000000  0.4857650000000  0.4303230000000 1.0
C      1  0.4226100000000  0.4857590000000  0.5127120000000 1.0
C      1  0.4881760000000  0.4857770000000  0.5775350000000 1.0
C      1  0.5699840000000  0.5166750000000  0.5344320000000 1.0
C      1  0.5543720000000  0.5166680000000  0.4440770000000 1.0
C      1  0.4636140000000  0.5166460000000  0.4310040000000 1.0
C      1  0.4231350000000  0.5166400000000  0.5132800000000 1.0
C      1  0.4888760000000  0.5166580000000  0.5772030000000 1.0
C      1  0.3933630000000  0.5539710000000  0.5293090000000 1.0
C      1  0.4949150000000  0.5539990000000  0.6104610000000 1.0
C      1  0.6034770000000  0.5540210000000  0.5389570000000 1.0
C      1  0.5690200000000  0.5540080000000  0.4136130000000 1.0
C      1  0.4391620000000  0.5539770000000  0.4076490000000 1.0
C      1  0.3891630000000  0.4466010000000  0.5193690000000 1.0
C      1  0.4841770000000  0.4466280000000  0.6114120000000 1.0
C      1  0.6010760000000  0.4466530000000  0.5494900000000 1.0
C      1  0.5783080000000  0.4466420000000  0.4191780000000 1.0
C      1  0.4473390000000  0.4466100000000  0.4005620000000 1.0
C      1  0.5422010000000  0.5643130000000  0.4554140000000 1.0
C      1  0.4706290000000  0.5642960000000  0.4460700000000 1.0
C      1  0.4396260000000  0.5642910000000  0.5112520000000 1.0
C      1  0.4920370000000  0.5643060000000  0.5608800000000 1.0
C      1  0.5554320000000  0.5643190000000  0.5263700000000 1.0
C      1  0.5433270000000  0.4394210000000  0.4565760000000 1.0
C      1  0.4720980000000  0.4394030000000  0.4453910000000 1.0
C      1  0.4394490000000  0.4393980000000  0.5096770000000 1.0
C      1  0.4904990000000  0.4394130000000  0.5605930000000 1.0
C      1  0.5546990000000  0.4394260000000  0.5277760000000 1.0
C      1  0.4601690000000  0.5240470000000  0.5708660000000 1.0
C      1  0.5550860000000  0.5240690000000  0.5597740000000 1.0
C      1  0.5738680000000  0.5240690000000  0.4660760000000 1.0
C      1  0.4905600000000  0.5240480000000  0.4192580000000 1.0
C      1  0.4202890000000  0.5240340000000  0.4840220000000 1.0
C      1  0.4589840000000  0.4803480000000  0.5696220000000 1.0
C      1  0.5535430000000  0.4803700000000  0.5605280000000 1.0
C      1  0.5741130000000  0.4803710000000  0.4677870000000 1.0
C      1  0.4922680000000  0.4803500000000  0.4195650000000 1.0
C      1  0.4211150000000  0.4803360000000  0.4825020000000 1.0
C      1  0.4798760000000  0.5937220000000  0.5137790000000 1.0
C      1  0.5068750000000  0.5937290000000  0.5233730000000 1.0
C      1  0.5243420000000  0.5937320000000  0.5006610000000 1.0
C      1  0.5081390000000  0.5937270000000  0.4770300000000 1.0
C      1  0.4806580000000  0.5937210000000  0.4851380000000 1.0
C      1  0.4797680000000  0.4107840000000  0.5133040000000 1.0
C      1  0.5064120000000  0.4107910000000  0.5233750000000 1.0
C      1  0.5242240000000  0.4107940000000  0.5011480000000 1.0
C      1  0.5085880000000  0.4107890000000  0.4773390000000 1.0
C      1  0.4811130000000  0.4107830000000  0.4848520000000 1.0
C      1  0.4660520000000  0.5652500000000  0.5490790000000 1.0
C      1  0.5361790000000  0.5652660000000  0.5474360000000 1.0
C      1  0.5562860000000  0.5652680000000  0.4802340000000 1.0
C      1  0.4985870000000  0.5652530000000  0.4403440000000 1.0
C      1  0.4428190000000  0.5652420000000  0.4828930000000 1.0
C      1  0.4647830000000  0.4383960000000  0.5485010000000 1.0
C      1  0.5352520000000  0.4384120000000  0.5484960000000 1.0
C      1  0.5570240000000  0.4384150000000  0.4814750000000 1.0
C      1  0.5000110000000  0.4383990000000  0.4400580000000 1.0
C      1  0.4430030000000  0.4383880000000  0.4814830000000 1.0
C      1  0.3910310000000  0.4824830000000  0.5522090000000 1.0
C      1  0.5159820000000  0.4825150000000  0.6197730000000 1.0
C      1  0.6188520000000  0.4825350000000  0.5218160000000 1.0
C      1  0.5574780000000  0.4825160000000  0.3937110000000 1.0
C      1  0.4166770000000  0.4824830000000  0.4124940000000 1.0
C      1  0.3984640000000  0.5107090000000  0.5541440000000 1.0
C      1  0.5201160000000  0.5107400000000  0.6132950000000 1.0
C      1  0.6139650000000  0.5107580000000  0.5158760000000 1.0
C      1  0.5503150000000  0.5107380000000  0.3965160000000 1.0
C      1  0.4171280000000  0.5107080000000  0.4201670000000 1.0
C      1  0.4383320000000  0.5407920000000  0.4711650000000 1.0
C      1  0.4535140000000  0.5407990000000  0.5497290000000 1.0
C      1  0.5329250000000  0.5408180000000  0.5595670000000 1.0
C      1  0.5668210000000  0.5408230000000  0.4870830000000 1.0
C      1  0.5083590000000  0.5408070000000  0.4324470000000 1.0
C      1  0.4383460000000  0.4630330000000  0.4691280000000 1.0
C      1  0.4515910000000  0.4630390000000  0.5491060000000 1.0
C      1  0.5317480000000  0.4630590000000  0.5612240000000 1.0
C      1  0.5680420000000  0.4630640000000  0.4887350000000 1.0
C      1  0.5103170000000  0.4630480000000  0.4318160000000 1.0
C      1  0.5300890000000  0.4708190000000  0.4525550000000 1.0
C      1  0.4641780000000  0.4708040000000  0.4567300000000 1.0
C      1  0.4477820000000  0.4708020000000  0.5207050000000 1.0
C      1  0.5035590000000  0.4708170000000  0.5560680000000 1.0
C      1  0.5544270000000  0.4708270000000  0.5139490000000 1.0
C      1  0.5287570000000  0.5317270000000  0.4529130000000 1.0
C      1  0.4641000000000  0.5317120000000  0.4580910000000 1.0
C      1  0.4490450000000  0.5317110000000  0.5211840000000 1.0
C      1  0.5043980000000  0.5317250000000  0.5549990000000 1.0
C      1  0.5536630000000  0.5317350000000  0.5128050000000 1.0
C      1  0.3987500000000  0.4721880000000  0.5271550000000 1.0
C      1  0.4945420000000  0.4722140000000  0.6046930000000 1.0
C      1  0.5978860000000  0.4722350000000  0.5375500000000 1.0
C      1  0.5659640000000  0.4722230000000  0.4185160000000 1.0
C      1  0.4428920000000  0.4721930000000  0.4120910000000 1.0
C      1  0.4013370000000  0.5270240000000  0.5325040000000 1.0
C      1  0.5004220000000  0.5270510000000  0.6038710000000 1.0
C      1  0.5989150000000  0.5270710000000  0.5316900000000 1.0
C      1  0.5607020000000  0.5270570000000  0.4157130000000 1.0
C      1  0.4385930000000  0.5270280000000  0.4162160000000 1.0
C      1  0.5903620000000  0.5025490000000  0.4717440000000 1.0
C      1  0.5010500000000  0.5025250000000  0.4053290000000 1.0
C      1  0.4102870000000  0.5025070000000  0.4697450000000 1.0
C      1  0.5547960000000  0.5025450000000  0.5772080000000 1.0
C      1  0.4435030000000  0.5025190000000  0.5759730000000 1.0
END
