TITL C-26999-9981-5 0.0695622725852709 125000 -649.385153564481 0 0 96 (C1) n - 1
REM
REM in /rds/project/t2_vol4/rds-t2-cs072/BORA/CARBON/from-Arr/AIRSS/Generating-Clusters/GAP-ML-2020/Higher-Symm/SD-CG/HFTN-CG
REM
REM
REM
REM
REM
REM ./C.cell (b20cbc046b6831c77cfcea5457e17084)
REM AIRSS Version 0.9.1 bugfix July 2018 build 013d7b7c2542+ Fri, 06 Jul 2018 19:26:36 +0100
REM compiler GCC version 9.3.0
REM options -cpp -mtune=generic -march=x86-64 -g -O0
REM seed -913819987 -808125312 -644669578 1036911701 1783564686 -1615032776 -1155774029 -1122346840 1855014585 464858913 2010824956 387994837 -1377795637 -1860707099 -2085922498 -1902747739 480832903 499335445 -814349690 -593055083 888248269 -1796554125 -209229629 1140909529 -865303130 -1189225594 -1375442729 -936949917 418662658 112813002 1706036403 -894989328 1413561489
REM
CELL 1.54180   50.00000   50.00000   50.00000   90.00000   90.00000   90.00000
LATT -1
SFAC C  
C      1  0.4251440000000  0.4727740000000  0.4793140000000 1.0
C      1  0.4911590000000  0.4826740000000  0.4148250000000 1.0
C      1  0.4799650000000  0.4231480000000  0.4896060000000 1.0
C      1  0.5590790000000  0.4920250000000  0.5163710000000 1.0
C      1  0.5697290000000  0.5265540000000  0.4820030000000 1.0
C      1  0.4323510000000  0.5113690000000  0.5084580000000 1.0
C      1  0.5463640000000  0.4863790000000  0.5815350000000 1.0
C      1  0.5103970000000  0.5120890000000  0.4341160000000 1.0
C      1  0.4732320000000  0.5158850000000  0.5912220000000 1.0
C      1  0.5128400000000  0.4360230000000  0.5225710000000 1.0
C      1  0.5071550000000  0.5755950000000  0.4821360000000 1.0
C      1  0.4902620000000  0.5595100000000  0.5230010000000 1.0
C      1  0.4304580000000  0.5250810000000  0.4837880000000 1.0
C      1  0.4909670000000  0.5116960000000  0.4121830000000 1.0
C      1  0.4796930000000  0.5760800000000  0.4749010000000 1.0
C      1  0.5721060000000  0.5182980000000  0.5083890000000 1.0
C      1  0.5622430000000  0.4764270000000  0.4905690000000 1.0
C      1  0.4221870000000  0.4848000000000  0.5056250000000 1.0
C      1  0.5425170000000  0.5135420000000  0.5744140000000 1.0
C      1  0.5148250000000  0.4809580000000  0.4335130000000 1.0
C      1  0.4728720000000  0.4837660000000  0.5951460000000 1.0
C      1  0.5128180000000  0.5608690000000  0.5062150000000 1.0
C      1  0.5040830000000  0.4289480000000  0.4743810000000 1.0
C      1  0.4884820000000  0.4215940000000  0.5161300000000 1.0
C      1  0.5276740000000  0.4876320000000  0.5215200000000 1.0
C      1  0.5003750000000  0.5119210000000  0.5843690000000 1.0
C      1  0.5195240000000  0.5258010000000  0.4816210000000 1.0
C      1  0.4469350000000  0.4839090000000  0.4645870000000 1.0
C      1  0.4578090000000  0.5203060000000  0.5251980000000 1.0
C      1  0.5448160000000  0.5154980000000  0.4735010000000 1.0
C      1  0.4984630000000  0.5167240000000  0.4636100000000 1.0
C      1  0.5237000000000  0.4684740000000  0.5844430000000 1.0
C      1  0.4959980000000  0.4891430000000  0.4716540000000 1.0
C      1  0.4669970000000  0.5474040000000  0.5115280000000 1.0
C      1  0.4741980000000  0.4775530000000  0.4841880000000 1.0
C      1  0.5122170000000  0.4635390000000  0.5110040000000 1.0
C      1  0.5103710000000  0.5111540000000  0.5311340000000 1.0
C      1  0.5008900000000  0.4832000000000  0.5912750000000 1.0
C      1  0.5170010000000  0.4519760000000  0.4840640000000 1.0
C      1  0.4471790000000  0.5120570000000  0.4656300000000 1.0
C      1  0.4814520000000  0.5001910000000  0.5273130000000 1.0
C      1  0.5448850000000  0.4885830000000  0.4721060000000 1.0
C      1  0.5194040000000  0.4745860000000  0.4648400000000 1.0
C      1  0.5164180000000  0.5194350000000  0.5625890000000 1.0
C      1  0.4719510000000  0.5278900000000  0.4648690000000 1.0
C      1  0.4827720000000  0.4774590000000  0.5106060000000 1.0
C      1  0.4655710000000  0.5513030000000  0.4821830000000 1.0
C      1  0.5159900000000  0.5326910000000  0.5089670000000 1.0
C      1  0.4307460000000  0.5718770000000  0.5022490000000 1.0
C      1  0.5389760000000  0.5141870000000  0.4231410000000 1.0
C      1  0.5102650000000  0.4323100000000  0.5514200000000 1.0
C      1  0.5667210000000  0.5551500000000  0.4895590000000 1.0
C      1  0.5710100000000  0.4341480000000  0.5066520000000 1.0
C      1  0.4336630000000  0.4467760000000  0.4891740000000 1.0
C      1  0.4499750000000  0.5138190000000  0.5741800000000 1.0
C      1  0.4631170000000  0.4852850000000  0.4202580000000 1.0
C      1  0.5648650000000  0.4755480000000  0.5630790000000 1.0
C      1  0.4874350000000  0.4345500000000  0.4396950000000 1.0
C      1  0.4865190000000  0.5687180000000  0.5491680000000 1.0
C      1  0.5138590000000  0.5728120000000  0.4531680000000 1.0
C      1  0.4275860000000  0.4575960000000  0.5154220000000 1.0
C      1  0.5425070000000  0.4846120000000  0.4223190000000 1.0
C      1  0.5123360000000  0.5736620000000  0.5603880000000 1.0
C      1  0.5696110000000  0.4503460000000  0.4837400000000 1.0
C      1  0.5683800000000  0.5458250000000  0.5178030000000 1.0
C      1  0.4355750000000  0.5532950000000  0.4779700000000 1.0
C      1  0.4499820000000  0.4842840000000  0.5781490000000 1.0
C      1  0.4627710000000  0.5155660000000  0.4163540000000 1.0
C      1  0.5712110000000  0.4962100000000  0.5441920000000 1.0
C      1  0.4857100000000  0.5759590000000  0.4459640000000 1.0
C      1  0.4825500000000  0.4248840000000  0.5448760000000 1.0
C      1  0.5125280000000  0.4260880000000  0.4464420000000 1.0
C      1  0.5397880000000  0.5606930000000  0.4464980000000 1.0
C      1  0.5654100000000  0.4374760000000  0.5314920000000 1.0
C      1  0.4513260000000  0.5315880000000  0.5529130000000 1.0
C      1  0.4578570000000  0.5595510000000  0.5517920000000 1.0
C      1  0.4632530000000  0.4433660000000  0.4488370000000 1.0
C      1  0.5288620000000  0.4453210000000  0.5676030000000 1.0
C      1  0.4555910000000  0.4338720000000  0.4764190000000 1.0
C      1  0.4454420000000  0.5659250000000  0.5233710000000 1.0
C      1  0.5563680000000  0.5688420000000  0.4696350000000 1.0
C      1  0.5474650000000  0.5388350000000  0.4299370000000 1.0
C      1  0.5557450000000  0.4492070000000  0.5547780000000 1.0
C      1  0.4525370000000  0.4690330000000  0.4403640000000 1.0
C      1  0.5394060000000  0.4362490000000  0.4410410000000 1.0
C      1  0.5577780000000  0.5484900000000  0.5446850000000 1.0
C      1  0.4464420000000  0.4614050000000  0.5633220000000 1.0
C      1  0.4596880000000  0.4388530000000  0.5534630000000 1.0
C      1  0.4630030000000  0.5650690000000  0.4336810000000 1.0
C      1  0.5360720000000  0.5645170000000  0.5549780000000 1.0
C      1  0.4400240000000  0.5559260000000  0.4462760000000 1.0
C      1  0.4367810000000  0.4491620000000  0.5402220000000 1.0
C      1  0.5607640000000  0.4455560000000  0.4558440000000 1.0
C      1  0.5550770000000  0.4609150000000  0.4328780000000 1.0
C      1  0.5631320000000  0.5219490000000  0.5568440000000 1.0
C      1  0.4507700000000  0.5401760000000  0.4245550000000 1.0
END
