TITL C-26989-9824-2 -0.13519226040573 125000 -748.034535712287 0 0 107 (C1) n - 1
REM
REM in /rds/project/t2_vol4/rds-t2-cs072/BORA/CARBON/from-Arr/AIRSS/Generating-Clusters/GAP-ML-2020/Higher-Symm/SD-CG/HFTN-CG
REM
REM
REM
REM
REM
REM ./C.cell (b20cbc046b6831c77cfcea5457e17084)
REM AIRSS Version 0.9.1 bugfix July 2018 build 013d7b7c2542+ Fri, 06 Jul 2018 19:26:36 +0100
REM compiler GCC version 9.3.0
REM options -cpp -mtune=generic -march=x86-64 -g -O0
REM seed -425202102 1759538779 244478894 -879742134 -422362984 -1536142067 254693296 1202631034 -1495529680 89065887 -1642925441 -1896967855 2137176521 1567238575 395705745 -1092513324 1679567855 1767824986 1967781276 375164939 -373740194 -135954902 1901635683 -1275054784 293605495 -1179664135 1858961845 -2110420009 924666640 2065516764 -2115596374 1516272593 1308722528
REM
CELL 1.54180   50.00000   50.00000   50.00000   90.00000   90.00000   90.00000
LATT -1
SFAC C  
C      1  0.4350050000000  0.5187480000000  0.4561630000000 1.0
C      1  0.5344450000000  0.4340100000000  0.4335260000000 1.0
C      1  0.5365490000000  0.4534540000000  0.4768870000000 1.0
C      1  0.5631000000000  0.4755280000000  0.4400550000000 1.0
C      1  0.4715470000000  0.5249140000000  0.4266820000000 1.0
C      1  0.5553630000000  0.5291280000000  0.5490270000000 1.0
C      1  0.5427860000000  0.5475690000000  0.4775340000000 1.0
C      1  0.4986800000000  0.4561260000000  0.4156270000000 1.0
C      1  0.4906390000000  0.5874710000000  0.4994120000000 1.0
C      1  0.5249590000000  0.4608160000000  0.5235800000000 1.0
C      1  0.5784300000000  0.4866670000000  0.5243570000000 1.0
C      1  0.5875530000000  0.4702380000000  0.4819320000000 1.0
C      1  0.4625580000000  0.5183380000000  0.5770990000000 1.0
C      1  0.4926360000000  0.4916690000000  0.5221920000000 1.0
C      1  0.4362920000000  0.4617320000000  0.5574260000000 1.0
C      1  0.5104240000000  0.4723280000000  0.4743050000000 1.0
C      1  0.4860460000000  0.5015190000000  0.5793170000000 1.0
C      1  0.4953830000000  0.5393150000000  0.4203260000000 1.0
C      1  0.5027020000000  0.4345770000000  0.5507170000000 1.0
C      1  0.4614720000000  0.4976390000000  0.4229670000000 1.0
C      1  0.4910070000000  0.4204830000000  0.4516800000000 1.0
C      1  0.5103870000000  0.4164920000000  0.4731900000000 1.0
C      1  0.4082890000000  0.4783690000000  0.5094400000000 1.0
C      1  0.4129160000000  0.5234170000000  0.5280450000000 1.0
C      1  0.4768220000000  0.4713440000000  0.4291130000000 1.0
C      1  0.4610860000000  0.4307530000000  0.5259780000000 1.0
C      1  0.4910450000000  0.4288350000000  0.5235330000000 1.0
C      1  0.5188450000000  0.5638660000000  0.4619950000000 1.0
C      1  0.4455340000000  0.5544640000000  0.5509640000000 1.0
C      1  0.5462530000000  0.4588690000000  0.4235390000000 1.0
C      1  0.4265860000000  0.5334810000000  0.5511380000000 1.0
C      1  0.5120410000000  0.4214190000000  0.5015340000000 1.0
C      1  0.5231230000000  0.5333030000000  0.4220510000000 1.0
C      1  0.4922290000000  0.5580340000000  0.5665290000000 1.0
C      1  0.5084930000000  0.5151290000000  0.5357050000000 1.0
C      1  0.5659110000000  0.5041890000000  0.4385460000000 1.0
C      1  0.4682780000000  0.4885750000000  0.4857490000000 1.0
C      1  0.5600600000000  0.4717770000000  0.4691740000000 1.0
C      1  0.5344360000000  0.4866550000000  0.5132020000000 1.0
C      1  0.5165450000000  0.5930710000000  0.5055760000000 1.0
C      1  0.5422530000000  0.5493960000000  0.5683860000000 1.0
C      1  0.5178560000000  0.4952980000000  0.4289010000000 1.0
C      1  0.5344830000000  0.5200810000000  0.4685120000000 1.0
C      1  0.5820390000000  0.4630390000000  0.5087190000000 1.0
C      1  0.5206540000000  0.4709740000000  0.5726140000000 1.0
C      1  0.4376080000000  0.4963120000000  0.4384290000000 1.0
C      1  0.5026630000000  0.5418770000000  0.4973340000000 1.0
C      1  0.4334640000000  0.4694730000000  0.4478040000000 1.0
C      1  0.4906990000000  0.5367300000000  0.5236680000000 1.0
C      1  0.4454730000000  0.5667950000000  0.4805080000000 1.0
C      1  0.4180680000000  0.5356810000000  0.5029450000000 1.0
C      1  0.5578300000000  0.4528170000000  0.5471240000000 1.0
C      1  0.5802570000000  0.5466930000000  0.5048480000000 1.0
C      1  0.4493460000000  0.5693740000000  0.5270380000000 1.0
C      1  0.4101820000000  0.4948580000000  0.5320990000000 1.0
C      1  0.5696600000000  0.4790100000000  0.5503160000000 1.0
C      1  0.4668480000000  0.5462730000000  0.5688410000000 1.0
C      1  0.5377300000000  0.5235550000000  0.5250310000000 1.0
C      1  0.5328600000000  0.4961000000000  0.5732310000000 1.0
C      1  0.4871010000000  0.4656680000000  0.4888520000000 1.0
C      1  0.5334320000000  0.4290580000000  0.4607400000000 1.0
C      1  0.4979360000000  0.4863760000000  0.4491780000000 1.0
C      1  0.4186520000000  0.4678710000000  0.4713650000000 1.0
C      1  0.4209290000000  0.4540170000000  0.4970470000000 1.0
C      1  0.4633490000000  0.4292010000000  0.4553090000000 1.0
C      1  0.5380890000000  0.5140000000000  0.4383000000000 1.0
C      1  0.4497370000000  0.4240220000000  0.4784370000000 1.0
C      1  0.5633570000000  0.4443980000000  0.5195750000000 1.0
C      1  0.4082990000000  0.4920110000000  0.4839250000000 1.0
C      1  0.4667710000000  0.5581190000000  0.4672550000000 1.0
C      1  0.4826470000000  0.4484620000000  0.5648490000000 1.0
C      1  0.4625710000000  0.5312660000000  0.4544150000000 1.0
C      1  0.5523100000000  0.5730620000000  0.5394820000000 1.0
C      1  0.4568790000000  0.4449340000000  0.5513510000000 1.0
C      1  0.5303650000000  0.5473880000000  0.5060630000000 1.0
C      1  0.4939130000000  0.5652260000000  0.4792140000000 1.0
C      1  0.5561110000000  0.5021570000000  0.4800980000000 1.0
C      1  0.4660330000000  0.4995670000000  0.5124950000000 1.0
C      1  0.4756970000000  0.5799000000000  0.5234040000000 1.0
C      1  0.5155370000000  0.5431610000000  0.5748970000000 1.0
C      1  0.4928040000000  0.4730320000000  0.5773570000000 1.0
C      1  0.4420420000000  0.4331150000000  0.5031300000000 1.0
C      1  0.5125050000000  0.4938420000000  0.4965000000000 1.0
C      1  0.5232950000000  0.4716440000000  0.4138370000000 1.0
C      1  0.4335690000000  0.5602070000000  0.5038890000000 1.0
C      1  0.4826020000000  0.5076980000000  0.4663240000000 1.0
C      1  0.4257130000000  0.4868820000000  0.5557510000000 1.0
C      1  0.4950010000000  0.4614970000000  0.5176800000000 1.0
C      1  0.5795830000000  0.5145100000000  0.4643410000000 1.0
C      1  0.5070160000000  0.5177250000000  0.4808690000000 1.0
C      1  0.5128460000000  0.5564060000000  0.4356300000000 1.0
C      1  0.5360640000000  0.4405540000000  0.5048000000000 1.0
C      1  0.5576450000000  0.5018710000000  0.5618990000000 1.0
C      1  0.5256210000000  0.5722550000000  0.5237360000000 1.0
C      1  0.4563560000000  0.4539110000000  0.4416650000000 1.0
C      1  0.4173120000000  0.5184370000000  0.4790750000000 1.0
C      1  0.5533490000000  0.5750210000000  0.5667220000000 1.0
C      1  0.4359420000000  0.5119080000000  0.5671570000000 1.0
C      1  0.5976560000000  0.4952340000000  0.4743280000000 1.0
C      1  0.4649070000000  0.5255550000000  0.5193110000000 1.0
C      1  0.5106810000000  0.5151770000000  0.5692310000000 1.0
C      1  0.5055070000000  0.4320330000000  0.4286410000000 1.0
C      1  0.5736730000000  0.5424340000000  0.4786910000000 1.0
C      1  0.5706710000000  0.5506410000000  0.5299230000000 1.0
C      1  0.4968320000000  0.5654260000000  0.5384640000000 1.0
C      1  0.5565970000000  0.5031360000000  0.5101220000000 1.0
C      1  0.5280690000000  0.4513360000000  0.5525150000000 1.0
END
