TITL C-26983-9914-5 -22.0369872020176 125000 -726.390790011516 0 0 104 (C1) n - 1
REM
REM in /rds/project/t2_vol4/rds-t2-cs072/BORA/CARBON/from-Arr/AIRSS/Generating-Clusters/GAP-ML-2020/Higher-Symm/SD-CG/HFTN-CG
REM
REM
REM
REM
REM
REM ./C.cell (b20cbc046b6831c77cfcea5457e17084)
REM AIRSS Version 0.9.1 bugfix July 2018 build 013d7b7c2542+ Fri, 06 Jul 2018 19:26:36 +0100
REM compiler GCC version 9.3.0
REM options -cpp -mtune=generic -march=x86-64 -g -O0
REM seed -893234326 -753987187 -177343795 -1826788193 -925039854 1120517371 -1775017909 -1825144584 -1983807576 -2109735190 1008307236 -683767498 -241709933 2010413946 -2130412645 1495121604 862226887 1592744768 -980080112 -928343377 1230796936 792380127 -1805773478 -949604950 -480644098 -1694781461 -1650817036 -548777156 -1257109871 -652528874 1100467567 -2028959036 490143929
REM
CELL 1.54180   50.00000   50.00000   50.00000   90.00000   90.00000   90.00000
LATT -1
SFAC C  
C      1  0.4912650000000  0.5812890000000  0.4991370000000 1.0
C      1  0.4268080000000  0.4775200000000  0.5270830000000 1.0
C      1  0.5675330000000  0.5718200000000  0.4820790000000 1.0
C      1  0.5243320000000  0.5647810000000  0.5322030000000 1.0
C      1  0.5397170000000  0.4301480000000  0.4557150000000 1.0
C      1  0.4588560000000  0.5715260000000  0.4575670000000 1.0
C      1  0.4661680000000  0.5497080000000  0.4125180000000 1.0
C      1  0.5245630000000  0.4827940000000  0.4653900000000 1.0
C      1  0.4991070000000  0.4960810000000  0.4563840000000 1.0
C      1  0.5454030000000  0.4516810000000  0.4981710000000 1.0
C      1  0.4469620000000  0.5469960000000  0.4961920000000 1.0
C      1  0.4731670000000  0.5296840000000  0.5781130000000 1.0
C      1  0.5339650000000  0.3983100000000  0.4931420000000 1.0
C      1  0.4981780000000  0.5422890000000  0.5713380000000 1.0
C      1  0.5395580000000  0.4741660000000  0.4359980000000 1.0
C      1  0.5256450000000  0.5437040000000  0.4316060000000 1.0
C      1  0.5467190000000  0.5466020000000  0.5373550000000 1.0
C      1  0.4811130000000  0.4367150000000  0.4607720000000 1.0
C      1  0.4395670000000  0.5176590000000  0.5025780000000 1.0
C      1  0.4714860000000  0.4026720000000  0.5117690000000 1.0
C      1  0.5441810000000  0.5285310000000  0.5590260000000 1.0
C      1  0.5309100000000  0.4608370000000  0.5702260000000 1.0
C      1  0.4965430000000  0.5168250000000  0.4331780000000 1.0
C      1  0.4517310000000  0.5933910000000  0.5023250000000 1.0
C      1  0.5530140000000  0.5005200000000  0.5578620000000 1.0
C      1  0.4273350000000  0.5726030000000  0.5362370000000 1.0
C      1  0.4746700000000  0.5927650000000  0.5208980000000 1.0
C      1  0.4755830000000  0.5624820000000  0.4356670000000 1.0
C      1  0.5050130000000  0.4699580000000  0.5096370000000 1.0
C      1  0.4908800000000  0.5389280000000  0.4741500000000 1.0
C      1  0.4414200000000  0.4653780000000  0.4579050000000 1.0
C      1  0.5253930000000  0.4474810000000  0.4384830000000 1.0
C      1  0.5697400000000  0.5341970000000  0.4549520000000 1.0
C      1  0.4652260000000  0.4484630000000  0.5122670000000 1.0
C      1  0.4986370000000  0.4989120000000  0.5422310000000 1.0
C      1  0.4452310000000  0.4101580000000  0.5061740000000 1.0
C      1  0.4429480000000  0.5488740000000  0.4669330000000 1.0
C      1  0.4502170000000  0.5383860000000  0.5637990000000 1.0
C      1  0.5857450000000  0.4790890000000  0.4925380000000 1.0
C      1  0.4677260000000  0.5881690000000  0.4786650000000 1.0
C      1  0.4255770000000  0.4631450000000  0.5021400000000 1.0
C      1  0.4270330000000  0.5066410000000  0.4786160000000 1.0
C      1  0.4348570000000  0.5720390000000  0.5098610000000 1.0
C      1  0.4988970000000  0.5461530000000  0.4459250000000 1.0
C      1  0.4495280000000  0.5642250000000  0.5514920000000 1.0
C      1  0.5220650000000  0.5177460000000  0.4187850000000 1.0
C      1  0.5595540000000  0.4421990000000  0.4739320000000 1.0
C      1  0.4253490000000  0.4783650000000  0.4780660000000 1.0
C      1  0.5596040000000  0.5346860000000  0.5136740000000 1.0
C      1  0.5483530000000  0.4826290000000  0.5329170000000 1.0
C      1  0.4876690000000  0.4290020000000  0.5083100000000 1.0
C      1  0.5023680000000  0.4608100000000  0.5742460000000 1.0
C      1  0.5180220000000  0.4930970000000  0.5229410000000 1.0
C      1  0.4754160000000  0.5759560000000  0.5438280000000 1.0
C      1  0.4798720000000  0.5522050000000  0.4981190000000 1.0
C      1  0.5212190000000  0.5282370000000  0.5773580000000 1.0
C      1  0.4430970000000  0.4691430000000  0.5501680000000 1.0
C      1  0.4785440000000  0.5128910000000  0.5286260000000 1.0
C      1  0.4891370000000  0.4479700000000  0.5528530000000 1.0
C      1  0.5811370000000  0.5470160000000  0.4780310000000 1.0
C      1  0.4898790000000  0.3819690000000  0.5162800000000 1.0
C      1  0.4773450000000  0.4741610000000  0.5018480000000 1.0
C      1  0.4540990000000  0.4426080000000  0.4679830000000 1.0
C      1  0.4842120000000  0.4748530000000  0.4408460000000 1.0
C      1  0.5187390000000  0.5019730000000  0.5890570000000 1.0
C      1  0.4917360000000  0.5117680000000  0.4821190000000 1.0
C      1  0.5399050000000  0.5248480000000  0.4943370000000 1.0
C      1  0.4706760000000  0.5008360000000  0.5826500000000 1.0
C      1  0.5233790000000  0.4144130000000  0.4730120000000 1.0
C      1  0.5178700000000  0.4596030000000  0.4858670000000 1.0
C      1  0.5585170000000  0.4779480000000  0.5043460000000 1.0
C      1  0.4962420000000  0.4495650000000  0.4407860000000 1.0
C      1  0.5356580000000  0.4363650000000  0.5249290000000 1.0
C      1  0.5145140000000  0.5180870000000  0.5043070000000 1.0
C      1  0.4563800000000  0.4811440000000  0.4400350000000 1.0
C      1  0.5858770000000  0.5301070000000  0.5006440000000 1.0
C      1  0.5371940000000  0.4070560000000  0.5209120000000 1.0
C      1  0.4948100000000  0.4863680000000  0.5872310000000 1.0
C      1  0.5469550000000  0.5741370000000  0.4620280000000 1.0
C      1  0.4697170000000  0.5221690000000  0.4209110000000 1.0
C      1  0.4359760000000  0.5145090000000  0.5548030000000 1.0
C      1  0.5400330000000  0.4867500000000  0.5785170000000 1.0
C      1  0.5010160000000  0.4321110000000  0.4816210000000 1.0
C      1  0.5054470000000  0.4425290000000  0.5278420000000 1.0
C      1  0.5459680000000  0.4994400000000  0.4805900000000 1.0
C      1  0.4926990000000  0.5368150000000  0.5205390000000 1.0
C      1  0.5490080000000  0.5515910000000  0.4445540000000 1.0
C      1  0.5675490000000  0.4795220000000  0.4466570000000 1.0
C      1  0.5155990000000  0.3901170000000  0.5138140000000 1.0
C      1  0.4633260000000  0.4513960000000  0.5422530000000 1.0
C      1  0.4500580000000  0.5085260000000  0.4360750000000 1.0
C      1  0.5435310000000  0.4552610000000  0.5455860000000 1.0
C      1  0.4361910000000  0.5228640000000  0.4568710000000 1.0
C      1  0.5344950000000  0.4941630000000  0.4161400000000 1.0
C      1  0.4477170000000  0.4920220000000  0.5675660000000 1.0
C      1  0.5651130000000  0.5061630000000  0.4584120000000 1.0
C      1  0.5772090000000  0.4627480000000  0.4672140000000 1.0
C      1  0.4276010000000  0.5060100000000  0.5280990000000 1.0
C      1  0.4698520000000  0.5019700000000  0.5018880000000 1.0
C      1  0.5419680000000  0.5810150000000  0.4888850000000 1.0
C      1  0.4983800000000  0.5573560000000  0.5452540000000 1.0
C      1  0.5944160000000  0.5045200000000  0.4951840000000 1.0
C      1  0.4428890000000  0.4380440000000  0.4960520000000 1.0
C      1  0.5207040000000  0.5783330000000  0.5073010000000 1.0
END
