TITL C-26995-9959-8 -238.491294229695 125000 -685.125282151961 0 0 96 (C1) n - 1
REM
REM in /rds/project/t2_vol4/rds-t2-cs072/BORA/CARBON/from-Arr/AIRSS/Generating-Clusters/GAP-ML-2020/Higher-Symm/SD-CG/HFTN-CG
REM
REM
REM
REM
REM
REM ./C.cell (b20cbc046b6831c77cfcea5457e17084)
REM AIRSS Version 0.9.1 bugfix July 2018 build 013d7b7c2542+ Fri, 06 Jul 2018 19:26:36 +0100
REM compiler GCC version 9.3.0
REM options -cpp -mtune=generic -march=x86-64 -g -O0
REM seed -978407733 -1437532835 327373581 -79614675 1845712479 197512709 -1987798612 675244307 1531674747 1174760356 1850792247 -384804610 693275107 1143013410 -269973559 2015607437 -22380620 -1137322500 -1152291907 617352087 1745633911 1990304006 691797194 1926564061 1462576801 -512254837 612968244 2146724255 -2120403320 1612446294 233847160 -434487837 -280923566
REM
CELL 1.54180   50.00000   50.00000   50.00000   90.00000   90.00000   90.00000
LATT -1
SFAC C  
C      1  0.5038130000000  0.4247710000000  0.5283060000000 1.0
C      1  0.5149840000000  0.4927950000000  0.4157940000000 1.0
C      1  0.4340580000000  0.4666630000000  0.4538980000000 1.0
C      1  0.4967420000000  0.5889240000000  0.4988650000000 1.0
C      1  0.5025160000000  0.5326280000000  0.5806310000000 1.0
C      1  0.4154280000000  0.5163730000000  0.5460060000000 1.0
C      1  0.4652390000000  0.4602980000000  0.5494800000000 1.0
C      1  0.5323020000000  0.4752500000000  0.4841060000000 1.0
C      1  0.4213540000000  0.4652650000000  0.4797100000000 1.0
C      1  0.5446870000000  0.4349410000000  0.4582320000000 1.0
C      1  0.4599570000000  0.5032440000000  0.5235110000000 1.0
C      1  0.4777380000000  0.4241410000000  0.5187250000000 1.0
C      1  0.4659240000000  0.5529230000000  0.4939060000000 1.0
C      1  0.5728500000000  0.4715450000000  0.4553350000000 1.0
C      1  0.4772930000000  0.4201840000000  0.4900420000000 1.0
C      1  0.4100040000000  0.5126160000000  0.4968440000000 1.0
C      1  0.4869330000000  0.4991130000000  0.4157980000000 1.0
C      1  0.5288370000000  0.4963770000000  0.5688280000000 1.0
C      1  0.4598090000000  0.5329450000000  0.4556710000000 1.0
C      1  0.4923740000000  0.4621180000000  0.5582840000000 1.0
C      1  0.5740390000000  0.4999860000000  0.4564290000000 1.0
C      1  0.5037330000000  0.4479290000000  0.4385450000000 1.0
C      1  0.4698710000000  0.5517970000000  0.5230260000000 1.0
C      1  0.4651480000000  0.5269280000000  0.5364920000000 1.0
C      1  0.4460250000000  0.4835450000000  0.5433460000000 1.0
C      1  0.4976790000000  0.5513030000000  0.5294350000000 1.0
C      1  0.5162700000000  0.4290690000000  0.4572080000000 1.0
C      1  0.4926580000000  0.5280450000000  0.4217250000000 1.0
C      1  0.4849390000000  0.4806690000000  0.4865790000000 1.0
C      1  0.5121950000000  0.4430480000000  0.5486080000000 1.0
C      1  0.5788960000000  0.5175020000000  0.4787280000000 1.0
C      1  0.5241500000000  0.5821770000000  0.4923440000000 1.0
C      1  0.4812350000000  0.5730810000000  0.4807020000000 1.0
C      1  0.4673390000000  0.4816100000000  0.4258330000000 1.0
C      1  0.4171760000000  0.5190480000000  0.4713140000000 1.0
C      1  0.4860580000000  0.5088560000000  0.5778640000000 1.0
C      1  0.4249620000000  0.4714520000000  0.5251630000000 1.0
C      1  0.4426210000000  0.4898040000000  0.4394010000000 1.0
C      1  0.5496020000000  0.5065790000000  0.4455860000000 1.0
C      1  0.4143070000000  0.4837640000000  0.5009870000000 1.0
C      1  0.5411670000000  0.5321210000000  0.4387880000000 1.0
C      1  0.4338400000000  0.5769040000000  0.5321150000000 1.0
C      1  0.5052280000000  0.5777430000000  0.5440920000000 1.0
C      1  0.5478850000000  0.4784790000000  0.5581410000000 1.0
C      1  0.5590290000000  0.4432460000000  0.5293450000000 1.0
C      1  0.5010060000000  0.5211380000000  0.4810810000000 1.0
C      1  0.4182940000000  0.5572360000000  0.5265960000000 1.0
C      1  0.4807480000000  0.5457880000000  0.4408460000000 1.0
C      1  0.5041310000000  0.4173520000000  0.4808120000000 1.0
C      1  0.4360600000000  0.5165680000000  0.4514010000000 1.0
C      1  0.4958500000000  0.5644840000000  0.4580440000000 1.0
C      1  0.5242690000000  0.5686940000000  0.4667110000000 1.0
C      1  0.5545910000000  0.4249150000000  0.5069010000000 1.0
C      1  0.4100570000000  0.5296890000000  0.5225800000000 1.0
C      1  0.5079270000000  0.4710160000000  0.4996440000000 1.0
C      1  0.5858420000000  0.5028330000000  0.5018490000000 1.0
C      1  0.5707420000000  0.4866380000000  0.5426240000000 1.0
C      1  0.5166130000000  0.5164410000000  0.5046970000000 1.0
C      1  0.5209420000000  0.5220360000000  0.4213920000000 1.0
C      1  0.5409510000000  0.5425510000000  0.5473250000000 1.0
C      1  0.5019280000000  0.4865360000000  0.5699610000000 1.0
C      1  0.5871750000000  0.4737460000000  0.5011910000000 1.0
C      1  0.4631920000000  0.5237110000000  0.5656740000000 1.0
C      1  0.5427040000000  0.3986320000000  0.5095240000000 1.0
C      1  0.4581570000000  0.4392580000000  0.5320620000000 1.0
C      1  0.5196610000000  0.4138900000000  0.5059730000000 1.0
C      1  0.5622430000000  0.4353430000000  0.4810360000000 1.0
C      1  0.5267660000000  0.4904990000000  0.5065510000000 1.0
C      1  0.4996620000000  0.4972910000000  0.4652590000000 1.0
C      1  0.5285680000000  0.5260460000000  0.5694510000000 1.0
C      1  0.5457310000000  0.5513650000000  0.4599970000000 1.0
C      1  0.5775280000000  0.4645330000000  0.5260560000000 1.0
C      1  0.5647960000000  0.5430460000000  0.4807770000000 1.0
C      1  0.5512860000000  0.4570790000000  0.4418880000000 1.0
C      1  0.4759860000000  0.4548950000000  0.4346950000000 1.0
C      1  0.5263140000000  0.4877530000000  0.4580020000000 1.0
C      1  0.4362600000000  0.5072520000000  0.5607190000000 1.0
C      1  0.4876320000000  0.5932870000000  0.5249580000000 1.0
C      1  0.5649170000000  0.5365950000000  0.5310640000000 1.0
C      1  0.4544980000000  0.4306650000000  0.4760380000000 1.0
C      1  0.5615800000000  0.5534600000000  0.5071990000000 1.0
C      1  0.4628620000000  0.5787450000000  0.5367040000000 1.0
C      1  0.5396710000000  0.4515730000000  0.5489400000000 1.0
C      1  0.5771990000000  0.5112100000000  0.5282150000000 1.0
C      1  0.4342310000000  0.4456390000000  0.5185210000000 1.0
C      1  0.5797780000000  0.4579640000000  0.4788100000000 1.0
C      1  0.4543470000000  0.4460020000000  0.4516380000000 1.0
C      1  0.4707850000000  0.5272240000000  0.4830330000000 1.0
C      1  0.5420910000000  0.5735920000000  0.5130290000000 1.0
C      1  0.5338350000000  0.5713650000000  0.5406480000000 1.0
C      1  0.4667660000000  0.4995110000000  0.4973300000000 1.0
C      1  0.5168980000000  0.5326420000000  0.5264160000000 1.0
C      1  0.4796880000000  0.5499730000000  0.5759530000000 1.0
C      1  0.5243740000000  0.4692260000000  0.4331130000000 1.0
C      1  0.4809890000000  0.5735840000000  0.5621250000000 1.0
C      1  0.4329820000000  0.4416920000000  0.4911800000000 1.0
END
