TITL C-26995-9959-6 0.0234965942581661 125000 -395.265741303648 0 0 59 (C1) n - 1
REM
REM in /rds/project/t2_vol4/rds-t2-cs072/BORA/CARBON/from-Arr/AIRSS/Generating-Clusters/GAP-ML-2020/Higher-Symm/SD-CG/HFTN-CG
REM
REM
REM
REM
REM
REM ./C.cell (b20cbc046b6831c77cfcea5457e17084)
REM AIRSS Version 0.9.1 bugfix July 2018 build 013d7b7c2542+ Fri, 06 Jul 2018 19:26:36 +0100
REM compiler GCC version 9.3.0
REM options -cpp -mtune=generic -march=x86-64 -g -O0
REM seed 1894260187 1659852703 -2056096629 -1816941859 -1290709553 -924117950 2041419080 -773669482 1990917332 -374353151 1722760989 1137982223 1207532373 -2062012582 -1738393600 -1507259387 -1660276397 -2144552762 -252471593 -1734438608 1813014338 -1047413738 63550603 -768393935 -775254071 733259660 815593370 589527091 1692137721 1326271871 1944897429 1373846201 -14211151
REM
CELL 1.54180   50.00000   50.00000   50.00000   90.00000   90.00000   90.00000
LATT -1
SFAC C  
C      1  0.5048960000000  0.4596780000000  0.4291390000000 1.0
C      1  0.4919170000000  0.4137410000000  0.5164050000000 1.0
C      1  0.4946810000000  0.4999010000000  0.5822560000000 1.0
C      1  0.4941000000000  0.5756710000000  0.5346370000000 1.0
C      1  0.5081320000000  0.5425000000000  0.4360220000000 1.0
C      1  0.4768370000000  0.5066630000000  0.5631570000000 1.0
C      1  0.4741010000000  0.5640070000000  0.5180530000000 1.0
C      1  0.4849420000000  0.5390770000000  0.4484210000000 1.0
C      1  0.4850420000000  0.4686570000000  0.4446680000000 1.0
C      1  0.4800040000000  0.4279410000000  0.4982990000000 1.0
C      1  0.4730510000000  0.4725670000000  0.5281570000000 1.0
C      1  0.4826760000000  0.5221300000000  0.5399130000000 1.0
C      1  0.4852590000000  0.5598280000000  0.4920610000000 1.0
C      1  0.4928480000000  0.5120110000000  0.4518130000000 1.0
C      1  0.4781920000000  0.4705790000000  0.4741820000000 1.0
C      1  0.5648880000000  0.4877610000000  0.4665650000000 1.0
C      1  0.5570500000000  0.4466960000000  0.5004770000000 1.0
C      1  0.5533090000000  0.4760390000000  0.5436580000000 1.0
C      1  0.5562680000000  0.5426130000000  0.5196710000000 1.0
C      1  0.5706760000000  0.5420880000000  0.4741680000000 1.0
C      1  0.5358770000000  0.5452690000000  0.5392410000000 1.0
C      1  0.5499840000000  0.5565820000000  0.4576190000000 1.0
C      1  0.5436590000000  0.4872740000000  0.4459950000000 1.0
C      1  0.5310540000000  0.4336630000000  0.4928410000000 1.0
C      1  0.5267000000000  0.4707940000000  0.5572040000000 1.0
C      1  0.4561050000000  0.5217500000000  0.4827070000000 1.0
C      1  0.4630460000000  0.4973810000000  0.4691130000000 1.0
C      1  0.4525780000000  0.4599350000000  0.5127950000000 1.0
C      1  0.4395710000000  0.5002610000000  0.5270040000000 1.0
C      1  0.4472330000000  0.5224850000000  0.5104120000000 1.0
C      1  0.5017640000000  0.4801850000000  0.5177390000000 1.0
C      1  0.5061490000000  0.5102290000000  0.5251230000000 1.0
C      1  0.5144350000000  0.5539130000000  0.4972360000000 1.0
C      1  0.5115690000000  0.5061640000000  0.4759740000000 1.0
C      1  0.5045340000000  0.4786430000000  0.4869700000000 1.0
C      1  0.5389450000000  0.5662970000000  0.4832730000000 1.0
C      1  0.5357600000000  0.5117780000000  0.4590010000000 1.0
C      1  0.5253130000000  0.4580610000000  0.4757530000000 1.0
C      1  0.5182680000000  0.4574280000000  0.5311670000000 1.0
C      1  0.5285640000000  0.5161220000000  0.5460230000000 1.0
C      1  0.5513060000000  0.5021480000000  0.5342920000000 1.0
C      1  0.5624790000000  0.5580100000000  0.4977950000000 1.0
C      1  0.5624340000000  0.5145850000000  0.4795840000000 1.0
C      1  0.5549420000000  0.4661460000000  0.4799990000000 1.0
C      1  0.5495770000000  0.4562550000000  0.5247750000000 1.0
C      1  0.4729430000000  0.4949650000000  0.4428200000000 1.0
C      1  0.4647410000000  0.4486820000000  0.4891700000000 1.0
C      1  0.4610000000000  0.4919510000000  0.5442020000000 1.0
C      1  0.4634260000000  0.5392920000000  0.5266470000000 1.0
C      1  0.4704170000000  0.5450290000000  0.4728500000000 1.0
C      1  0.5141480000000  0.4313590000000  0.5164750000000 1.0
C      1  0.5163230000000  0.4956060000000  0.5661060000000 1.0
C      1  0.5162490000000  0.5620630000000  0.5281210000000 1.0
C      1  0.5340500000000  0.5373090000000  0.4434400000000 1.0
C      1  0.5250690000000  0.4650850000000  0.4467730000000 1.0
C      1  0.4274910000000  0.4748310000000  0.5173510000000 1.0
C      1  0.5179510000000  0.5227680000000  0.5003030000000 1.0
C      1  0.4021190000000  0.4683550000000  0.5173460000000 1.0
C      1  0.5514450000000  0.5160090000000  0.5077850000000 1.0
END
