TITL C-26982-9960-6 0.230397909935886 125000 -945.6693399142 0 0 137 (C1) n - 1
REM
REM in /rds/project/t2_vol4/rds-t2-cs072/BORA/CARBON/from-Arr/AIRSS/Generating-Clusters/GAP-ML-2020/Higher-Symm/SD-CG/HFTN-CG
REM
REM
REM
REM
REM
REM ./C.cell (b20cbc046b6831c77cfcea5457e17084)
REM AIRSS Version 0.9.1 bugfix July 2018 build 013d7b7c2542+ Fri, 06 Jul 2018 19:26:36 +0100
REM compiler GCC version 9.3.0
REM options -cpp -mtune=generic -march=x86-64 -g -O0
REM seed 1530329297 953608600 429346407 -652024619 429612143 -1870892560 610533265 -1309060937 1603659316 241519820 949203282 -224068411 315663384 -630093504 481931033 1460501605 -213239486 1807757156 1536062025 1961362016 -892818499 -916509379 -741692824 -994664230 -1066563933 -1374773456 -1568899999 1498230461 -1731636689 -679537910 814036610 -51163345 -516778324
REM
CELL 1.54180   50.00000   50.00000   50.00000   90.00000   90.00000   90.00000
LATT -1
SFAC C  
C      1  0.5569550000000  0.5367820000000  0.4816660000000 1.0
C      1  0.5376370000000  0.5172630000000  0.5344210000000 1.0
C      1  0.5305020000000  0.4676610000000  0.5212940000000 1.0
C      1  0.5561160000000  0.4855940000000  0.4572970000000 1.0
C      1  0.5483030000000  0.5394530000000  0.5138880000000 1.0
C      1  0.5445800000000  0.5162230000000  0.4593210000000 1.0
C      1  0.5400880000000  0.4664810000000  0.4740180000000 1.0
C      1  0.5375710000000  0.4880600000000  0.5408840000000 1.0
C      1  0.5205050000000  0.4435650000000  0.4057250000000 1.0
C      1  0.5184220000000  0.5889610000000  0.4431030000000 1.0
C      1  0.5228270000000  0.5543770000000  0.5883200000000 1.0
C      1  0.5218840000000  0.4102120000000  0.5560210000000 1.0
C      1  0.5223710000000  0.4449460000000  0.5942740000000 1.0
C      1  0.5255050000000  0.5959020000000  0.5536580000000 1.0
C      1  0.5197610000000  0.5539890000000  0.4019600000000 1.0
C      1  0.5229280000000  0.4073950000000  0.4438720000000 1.0
C      1  0.4598960000000  0.5162070000000  0.3982930000000 1.0
C      1  0.4630660000000  0.6032980000000  0.5192780000000 1.0
C      1  0.4604380000000  0.4834840000000  0.6012120000000 1.0
C      1  0.4610300000000  0.3988730000000  0.4863480000000 1.0
C      1  0.4599580000000  0.5134180000000  0.6022800000000 1.0
C      1  0.4603520000000  0.6006140000000  0.4893090000000 1.0
C      1  0.4572140000000  0.4870060000000  0.3986510000000 1.0
C      1  0.4606050000000  0.3986420000000  0.5158390000000 1.0
C      1  0.4726710000000  0.5426680000000  0.4900850000000 1.0
C      1  0.4702430000000  0.5134810000000  0.5529790000000 1.0
C      1  0.4783000000000  0.4519220000000  0.5108940000000 1.0
C      1  0.4753970000000  0.4900160000000  0.4502400000000 1.0
C      1  0.4708510000000  0.5553130000000  0.5150260000000 1.0
C      1  0.4750330000000  0.5186620000000  0.4392900000000 1.0
C      1  0.4711210000000  0.4456700000000  0.4819360000000 1.0
C      1  0.4764110000000  0.4859870000000  0.5441630000000 1.0
C      1  0.4420980000000  0.5627480000000  0.5188130000000 1.0
C      1  0.4330520000000  0.4840220000000  0.5646550000000 1.0
C      1  0.4302860000000  0.4381110000000  0.4865350000000 1.0
C      1  0.4296910000000  0.5147570000000  0.4390740000000 1.0
C      1  0.4347580000000  0.5648180000000  0.4900350000000 1.0
C      1  0.4315620000000  0.4867840000000  0.4368560000000 1.0
C      1  0.4333590000000  0.4369520000000  0.5140320000000 1.0
C      1  0.4328810000000  0.5122730000000  0.5655730000000 1.0
C      1  0.4413260000000  0.4226270000000  0.5585270000000 1.0
C      1  0.4563310000000  0.4478340000000  0.4288710000000 1.0
C      1  0.4417370000000  0.5770030000000  0.4452350000000 1.0
C      1  0.4440260000000  0.5573790000000  0.5800000000000 1.0
C      1  0.4476500000000  0.4275620000000  0.4436510000000 1.0
C      1  0.4414690000000  0.4398010000000  0.5771870000000 1.0
C      1  0.4457560000000  0.5771890000000  0.5638010000000 1.0
C      1  0.4435590000000  0.5584350000000  0.4282760000000 1.0
C      1  0.5177010000000  0.6035710000000  0.5267840000000 1.0
C      1  0.5073730000000  0.4677530000000  0.5816220000000 1.0
C      1  0.5078660000000  0.4150080000000  0.4691050000000 1.0
C      1  0.5123370000000  0.5269260000000  0.3949850000000 1.0
C      1  0.5061090000000  0.5853200000000  0.4701890000000 1.0
C      1  0.5028590000000  0.4675930000000  0.4116520000000 1.0
C      1  0.5086780000000  0.4156970000000  0.5299750000000 1.0
C      1  0.5080390000000  0.5288780000000  0.5828740000000 1.0
C      1  0.5508940000000  0.5262130000000  0.5619870000000 1.0
C      1  0.5480770000000  0.4412030000000  0.5302550000000 1.0
C      1  0.5483820000000  0.4734750000000  0.4307920000000 1.0
C      1  0.5486850000000  0.5635650000000  0.4702760000000 1.0
C      1  0.5453090000000  0.5261100000000  0.4301350000000 1.0
C      1  0.5477860000000  0.4377430000000  0.4694940000000 1.0
C      1  0.5572070000000  0.4706710000000  0.5737060000000 1.0
C      1  0.5506900000000  0.5683650000000  0.5244200000000 1.0
C      1  0.5089860000000  0.5966220000000  0.4186390000000 1.0
C      1  0.5142760000000  0.5790710000000  0.5962480000000 1.0
C      1  0.5120120000000  0.4029690000000  0.5807990000000 1.0
C      1  0.5143120000000  0.4173680000000  0.3989130000000 1.0
C      1  0.5133100000000  0.5978690000000  0.5782610000000 1.0
C      1  0.5069900000000  0.5783290000000  0.4000210000000 1.0
C      1  0.5153940000000  0.4001750000000  0.4185140000000 1.0
C      1  0.5115980000000  0.4204530000000  0.6001260000000 1.0
C      1  0.4934310000000  0.5524180000000  0.5321810000000 1.0
C      1  0.4913290000000  0.4619020000000  0.5554230000000 1.0
C      1  0.4941660000000  0.4462220000000  0.4629100000000 1.0
C      1  0.4973640000000  0.5354270000000  0.4452400000000 1.0
C      1  0.4925600000000  0.5556160000000  0.4662940000000 1.0
C      1  0.4835130000000  0.4593950000000  0.4364780000000 1.0
C      1  0.4916240000000  0.4416580000000  0.5351530000000 1.0
C      1  0.4930480000000  0.5313850000000  0.5530160000000 1.0
C      1  0.5272170000000  0.4850860000000  0.4169360000000 1.0
C      1  0.5327370000000  0.5824440000000  0.4842200000000 1.0
C      1  0.5323830000000  0.5123430000000  0.5792210000000 1.0
C      1  0.5333870000000  0.4219790000000  0.5135140000000 1.0
C      1  0.5314140000000  0.4850840000000  0.5719120000000 1.0
C      1  0.5368640000000  0.5892400000000  0.5104000000000 1.0
C      1  0.5300380000000  0.5114860000000  0.4115310000000 1.0
C      1  0.5327470000000  0.4207780000000  0.4863620000000 1.0
C      1  0.4888390000000  0.6031720000000  0.4864950000000 1.0
C      1  0.4895510000000  0.5132600000000  0.6010720000000 1.0
C      1  0.4903620000000  0.3974780000000  0.5144250000000 1.0
C      1  0.4857980000000  0.4842810000000  0.3934070000000 1.0
C      1  0.4925380000000  0.6088200000000  0.5149510000000 1.0
C      1  0.4885270000000  0.5130670000000  0.3895630000000 1.0
C      1  0.4904830000000  0.3973680000000  0.4858290000000 1.0
C      1  0.4895770000000  0.4844600000000  0.6003420000000 1.0
C      1  0.5411640000000  0.5524150000000  0.4226900000000 1.0
C      1  0.5459790000000  0.5743110000000  0.5512340000000 1.0
C      1  0.5487620000000  0.4444770000000  0.5796550000000 1.0
C      1  0.5447640000000  0.4272950000000  0.4438900000000 1.0
C      1  0.5457300000000  0.5535460000000  0.5699500000000 1.0
C      1  0.5413250000000  0.5702850000000  0.4436780000000 1.0
C      1  0.5441500000000  0.4462680000000  0.4237120000000 1.0
C      1  0.5446450000000  0.4284530000000  0.5564210000000 1.0
C      1  0.5095190000000  0.4682980000000  0.4772060000000 1.0
C      1  0.5133670000000  0.5168270000000  0.4654220000000 1.0
C      1  0.5117610000000  0.5397390000000  0.5123790000000 1.0
C      1  0.4925270000000  0.4937100000000  0.5209500000000 1.0
C      1  0.5026910000000  0.4691890000000  0.5075940000000 1.0
C      1  0.5091910000000  0.5160310000000  0.5297190000000 1.0
C      1  0.5006950000000  0.5350560000000  0.4865210000000 1.0
C      1  0.4997480000000  0.4919620000000  0.4649140000000 1.0
C      1  0.5743870000000  0.5116680000000  0.5474630000000 1.0
C      1  0.5738580000000  0.4601780000000  0.5281470000000 1.0
C      1  0.5830220000000  0.4829670000000  0.4759640000000 1.0
C      1  0.5831340000000  0.5256160000000  0.4942880000000 1.0
C      1  0.5968340000000  0.5054430000000  0.4811920000000 1.0
C      1  0.5750320000000  0.4703790000000  0.5020880000000 1.0
C      1  0.5692490000000  0.4810950000000  0.5489430000000 1.0
C      1  0.5761220000000  0.5260940000000  0.5218170000000 1.0
C      1  0.4503690000000  0.5299840000000  0.4232800000000 1.0
C      1  0.4462280000000  0.5862980000000  0.5373400000000 1.0
C      1  0.4422490000000  0.4669110000000  0.5854500000000 1.0
C      1  0.4496260000000  0.4215400000000  0.4715640000000 1.0
C      1  0.4410890000000  0.5302750000000  0.5874320000000 1.0
C      1  0.4424070000000  0.5850360000000  0.4727350000000 1.0
C      1  0.4426780000000  0.4711300000000  0.4164880000000 1.0
C      1  0.4422100000000  0.4152820000000  0.5312190000000 1.0
C      1  0.4453620000000  0.4822780000000  0.5367940000000 1.0
C      1  0.4455830000000  0.4646420000000  0.4838870000000 1.0
C      1  0.4337110000000  0.5144270000000  0.4680340000000 1.0
C      1  0.4360050000000  0.5332010000000  0.5169600000000 1.0
C      1  0.4457740000000  0.4867660000000  0.4648130000000 1.0
C      1  0.4479900000000  0.4631560000000  0.5153120000000 1.0
C      1  0.4427550000000  0.5145630000000  0.5372640000000 1.0
C      1  0.4418840000000  0.5344580000000  0.4870320000000 1.0
C      1  0.5479450000000  0.4752660000000  0.4995560000000 1.0
END
