TITL C-26994-9982-2 -99.6941746153846 125000 -584.563967001331 0 0 85 (C1) n - 1
REM
REM in /rds/project/t2_vol4/rds-t2-cs072/BORA/CARBON/from-Arr/AIRSS/Generating-Clusters/GAP-ML-2020/Higher-Symm/SD-CG/HFTN-CG
REM
REM
REM
REM
REM
REM ./C.cell (b20cbc046b6831c77cfcea5457e17084)
REM AIRSS Version 0.9.1 bugfix July 2018 build 013d7b7c2542+ Fri, 06 Jul 2018 19:26:36 +0100
REM compiler GCC version 9.3.0
REM options -cpp -mtune=generic -march=x86-64 -g -O0
REM seed 1743533203 -1766052902 1856213480 1944303731 1075054346 -2130777239 904048153 697001179 1446378863 774576598 1346589106 -1237739878 1171579710 2133991399 -1762056581 2101386473 2032981729 -1445121453 -1700168039 1332882757 -1524678394 -2068953822 1459244035 -154124697 -1362577329 846234236 1400674870 1633160015 -356809378 -810129585 -1965052110 -1442999514 1937222228
REM
CELL 1.54180   50.00000   50.00000   50.00000   90.00000   90.00000   90.00000
LATT -1
SFAC C  
C      1  0.5192560000000  0.5665710000000  0.4419420000000 1.0
C      1  0.4780300000000  0.5508800000000  0.4494250000000 1.0
C      1  0.4303970000000  0.5232510000000  0.4468290000000 1.0
C      1  0.4612060000000  0.4570180000000  0.4550870000000 1.0
C      1  0.5130930000000  0.4415100000000  0.4552840000000 1.0
C      1  0.5670900000000  0.4558380000000  0.4486510000000 1.0
C      1  0.5729990000000  0.5161240000000  0.4410050000000 1.0
C      1  0.5569150000000  0.4805780000000  0.4809490000000 1.0
C      1  0.5401900000000  0.5251890000000  0.4752780000000 1.0
C      1  0.5148190000000  0.5842890000000  0.4882850000000 1.0
C      1  0.4547320000000  0.5453020000000  0.4846730000000 1.0
C      1  0.4348490000000  0.4975530000000  0.4817280000000 1.0
C      1  0.4589340000000  0.4339540000000  0.4734420000000 1.0
C      1  0.5254160000000  0.4352580000000  0.4836370000000 1.0
C      1  0.5275350000000  0.5770830000000  0.5129440000000 1.0
C      1  0.4613860000000  0.5668550000000  0.5360810000000 1.0
C      1  0.4133770000000  0.5107100000000  0.5254650000000 1.0
C      1  0.4363860000000  0.4416720000000  0.5222990000000 1.0
C      1  0.5048420000000  0.4232420000000  0.5327650000000 1.0
C      1  0.5751900000000  0.4513150000000  0.5227940000000 1.0
C      1  0.5804900000000  0.5232490000000  0.5273690000000 1.0
C      1  0.5694120000000  0.4361510000000  0.4652510000000 1.0
C      1  0.5881680000000  0.5095220000000  0.4603710000000 1.0
C      1  0.5292290000000  0.5726590000000  0.4663370000000 1.0
C      1  0.4719140000000  0.5666290000000  0.4733470000000 1.0
C      1  0.4173610000000  0.5216070000000  0.4745050000000 1.0
C      1  0.4383310000000  0.4520330000000  0.4707100000000 1.0
C      1  0.5022970000000  0.4224990000000  0.4718250000000 1.0
C      1  0.4468260000000  0.5082530000000  0.5695330000000 1.0
C      1  0.4550790000000  0.4670970000000  0.5669240000000 1.0
C      1  0.4977530000000  0.4416980000000  0.5548910000000 1.0
C      1  0.5345970000000  0.4802800000000  0.5591320000000 1.0
C      1  0.5670450000000  0.5146350000000  0.5519380000000 1.0
C      1  0.5227360000000  0.5313950000000  0.5595390000000 1.0
C      1  0.4750130000000  0.5510040000000  0.5572140000000 1.0
C      1  0.4714800000000  0.4828860000000  0.4486770000000 1.0
C      1  0.5183700000000  0.4685560000000  0.4489830000000 1.0
C      1  0.5451440000000  0.4791580000000  0.4534800000000 1.0
C      1  0.5428300000000  0.5102570000000  0.4487430000000 1.0
C      1  0.5040990000000  0.5438960000000  0.4384970000000 1.0
C      1  0.4553240000000  0.5329680000000  0.4541200000000 1.0
C      1  0.4503720000000  0.5017290000000  0.4546080000000 1.0
C      1  0.4811780000000  0.4191780000000  0.5166980000000 1.0
C      1  0.5562020000000  0.4333140000000  0.5163730000000 1.0
C      1  0.5854570000000  0.4998080000000  0.5120290000000 1.0
C      1  0.5508940000000  0.5618880000000  0.5064630000000 1.0
C      1  0.4817010000000  0.5787010000000  0.5203080000000 1.0
C      1  0.4204550000000  0.5365670000000  0.5202140000000 1.0
C      1  0.4221580000000  0.4635300000000  0.5151270000000 1.0
C      1  0.4587670000000  0.5020540000000  0.5065950000000 1.0
C      1  0.4776170000000  0.4841470000000  0.5159090000000 1.0
C      1  0.5167160000000  0.4624660000000  0.4987280000000 1.0
C      1  0.5341060000000  0.4840300000000  0.4986900000000 1.0
C      1  0.5244030000000  0.5107360000000  0.4960530000000 1.0
C      1  0.5000790000000  0.5201810000000  0.5035870000000 1.0
C      1  0.4735690000000  0.5244830000000  0.4997800000000 1.0
C      1  0.5608260000000  0.4876220000000  0.5510820000000 1.0
C      1  0.5487750000000  0.5361840000000  0.5506440000000 1.0
C      1  0.5033110000000  0.5518940000000  0.5539210000000 1.0
C      1  0.4508090000000  0.5347030000000  0.5609210000000 1.0
C      1  0.4332400000000  0.4847200000000  0.5585170000000 1.0
C      1  0.4694420000000  0.4451980000000  0.5557510000000 1.0
C      1  0.5246750000000  0.4537060000000  0.5543220000000 1.0
C      1  0.5776940000000  0.4770720000000  0.5294070000000 1.0
C      1  0.5630550000000  0.5467430000000  0.5265550000000 1.0
C      1  0.5068540000000  0.5724490000000  0.5329690000000 1.0
C      1  0.4378460000000  0.5496120000000  0.5390840000000 1.0
C      1  0.4172340000000  0.4854740000000  0.5343610000000 1.0
C      1  0.4592720000000  0.4316760000000  0.5320880000000 1.0
C      1  0.5330050000000  0.4326660000000  0.5345920000000 1.0
C      1  0.4864720000000  0.5824320000000  0.4915230000000 1.0
C      1  0.4259600000000  0.5415790000000  0.4923990000000 1.0
C      1  0.4247490000000  0.4708230000000  0.4871140000000 1.0
C      1  0.4789780000000  0.4193660000000  0.4874260000000 1.0
C      1  0.5524630000000  0.4280770000000  0.4877950000000 1.0
C      1  0.5801060000000  0.4965990000000  0.4841260000000 1.0
C      1  0.5470910000000  0.5534820000000  0.4789190000000 1.0
C      1  0.5015670000000  0.4880850000000  0.3900980000000 1.0
C      1  0.5174420000000  0.5030580000000  0.5671830000000 1.0
C      1  0.4945810000000  0.4967810000000  0.5807110000000 1.0
C      1  0.4691730000000  0.4909350000000  0.5779360000000 1.0
C      1  0.5106380000000  0.5031700000000  0.4079000000000 1.0
C      1  0.5143450000000  0.5140980000000  0.4343810000000 1.0
C      1  0.4992610000000  0.4885830000000  0.4443810000000 1.0
C      1  0.4903920000000  0.4665350000000  0.5019680000000 1.0
END
