TITL C-26996-9923-5 -92.6978121690851 125000 -657.663167291878 0 0 96 (C4) n - 1
REM
REM in /rds/project/t2_vol4/rds-t2-cs072/BORA/CARBON/from-Arr/AIRSS/Generating-Clusters/GAP-ML-2020/Higher-Symm/SD-CG/HFTN-CG
REM
REM
REM
REM
REM
REM ./C.cell (b20cbc046b6831c77cfcea5457e17084)
REM AIRSS Version 0.9.1 bugfix July 2018 build 013d7b7c2542+ Fri, 06 Jul 2018 19:26:36 +0100
REM compiler GCC version 9.3.0
REM options -cpp -mtune=generic -march=x86-64 -g -O0
REM seed 1849617762 1130159674 -1159695130 85735724 1478824472 -2039958025 -381600052 -2045946256 1837561189 384457506 -21901463 -967676348 1885053020 -2041681153 2037743832 -1447448913 1533080770 -1021715008 -306160407 2093649542 -1882169880 561711748 553705224 -655945934 802990369 -1455553682 -2102613944 1445408325 -1156784377 386098490 -240047148 464659620 107016927
REM
CELL 1.54180   50.00000   50.00000   50.00000   90.00000   90.00000   90.00000
LATT -1
SFAC C  
C      1  0.4616560000000  0.5164860000000  0.5116270000000 1.0
C      1  0.4614330000000  0.5098310000000  0.4828780000000 1.0
C      1  0.4624480000000  0.4810970000000  0.4895210000000 1.0
C      1  0.4626710000000  0.4877510000000  0.5182700000000 1.0
C      1  0.5001300000000  0.4480620000000  0.4377110000000 1.0
C      1  0.5021870000000  0.4377330000000  0.5519190000000 1.0
C      1  0.4987070000000  0.5519010000000  0.5623070000000 1.0
C      1  0.4966500000000  0.5622300000000  0.4480990000000 1.0
C      1  0.5831930000000  0.4637860000000  0.5030200000000 1.0
C      1  0.5823440000000  0.5068850000000  0.5376010000000 1.0
C      1  0.5805910000000  0.5414310000000  0.4945020000000 1.0
C      1  0.5814410000000  0.4983320000000  0.4599210000000 1.0
C      1  0.4967480000000  0.4180320000000  0.5032360000000 1.0
C      1  0.4952320000000  0.5029970000000  0.5819030000000 1.0
C      1  0.4914430000000  0.5815920000000  0.4969430000000 1.0
C      1  0.4929590000000  0.4966270000000  0.4182760000000 1.0
C      1  0.5260260000000  0.5214110000000  0.4997080000000 1.0
C      1  0.5263650000000  0.5009510000000  0.4790270000000 1.0
C      1  0.5273330000000  0.4802880000000  0.4994850000000 1.0
C      1  0.5269940000000  0.5007480000000  0.5201660000000 1.0
C      1  0.5207730000000  0.4983430000000  0.5668740000000 1.0
C      1  0.5175800000000  0.5677740000000  0.5020190000000 1.0
C      1  0.5185950000000  0.5029110000000  0.4325300000000 1.0
C      1  0.5217880000000  0.4334800000000  0.4973850000000 1.0
C      1  0.4785150000000  0.5810860000000  0.5230710000000 1.0
C      1  0.4788120000000  0.5221190000000  0.4185710000000 1.0
C      1  0.4830300000000  0.4176890000000  0.4775110000000 1.0
C      1  0.4827330000000  0.4766560000000  0.5820110000000 1.0
C      1  0.4972680000000  0.5752250000000  0.5435490000000 1.0
C      1  0.4964830000000  0.5434490000000  0.4247500000000 1.0
C      1  0.5007450000000  0.4247120000000  0.4564810000000 1.0
C      1  0.5015300000000  0.4564880000000  0.5752800000000 1.0
C      1  0.6044560000000  0.4996850000000  0.4776280000000 1.0
C      1  0.6053720000000  0.4825550000000  0.5020560000000 1.0
C      1  0.6048530000000  0.5069820000000  0.5192050000000 1.0
C      1  0.6039380000000  0.5241120000000  0.4947770000000 1.0
C      1  0.4817230000000  0.5364030000000  0.5185000000000 1.0
C      1  0.4814850000000  0.5176580000000  0.4633010000000 1.0
C      1  0.4835250000000  0.4624900000000  0.4820260000000 1.0
C      1  0.4837630000000  0.4812350000000  0.5372250000000 1.0
C      1  0.5581170000000  0.5023430000000  0.5202170000000 1.0
C      1  0.5571350000000  0.5229250000000  0.4986330000000 1.0
C      1  0.5575110000000  0.5013400000000  0.4780340000000 1.0
C      1  0.5584930000000  0.4807580000000  0.4996170000000 1.0
C      1  0.5225520000000  0.5683460000000  0.5326320000000 1.0
C      1  0.5221340000000  0.5337240000000  0.4320480000000 1.0
C      1  0.5258590000000  0.4331960000000  0.4666350000000 1.0
C      1  0.5262780000000  0.4678180000000  0.5672190000000 1.0
C      1  0.4441010000000  0.4372390000000  0.5031930000000 1.0
C      1  0.4429730000000  0.5005030000000  0.5618180000000 1.0
C      1  0.4401510000000  0.5590750000000  0.4985580000000 1.0
C      1  0.4412790000000  0.4958100000000  0.4399330000000 1.0
C      1  0.4805800000000  0.4714320000000  0.4291350000000 1.0
C      1  0.4834540000000  0.4282730000000  0.5282230000000 1.0
C      1  0.4809520000000  0.5273430000000  0.5714470000000 1.0
C      1  0.4780790000000  0.5705020000000  0.4723580000000 1.0
C      1  0.4557620000000  0.4350860000000  0.5289980000000 1.0
C      1  0.4533720000000  0.5268250000000  0.5641720000000 1.0
C      1  0.4508650000000  0.5619400000000  0.4724140000000 1.0
C      1  0.4532550000000  0.4702010000000  0.4372410000000 1.0
C      1  0.5065520000000  0.4592340000000  0.5012640000000 1.0
C      1  0.5058040000000  0.5015280000000  0.5408700000000 1.0
C      1  0.5039040000000  0.5410990000000  0.4985780000000 1.0
C      1  0.5046520000000  0.4988050000000  0.4589720000000 1.0
C      1  0.5236270000000  0.5528210000000  0.4558630000000 1.0
C      1  0.5265520000000  0.4570740000000  0.4475710000000 1.0
C      1  0.5282630000000  0.4488310000000  0.5433520000000 1.0
C      1  0.5253390000000  0.5445790000000  0.5516440000000 1.0
C      1  0.5432910000000  0.4379460000000  0.5204150000000 1.0
C      1  0.5412430000000  0.5223610000000  0.5627740000000 1.0
C      1  0.5386180000000  0.5646630000000  0.4783460000000 1.0
C      1  0.5406670000000  0.4802480000000  0.4359870000000 1.0
C      1  0.5692740000000  0.4444920000000  0.5144220000000 1.0
C      1  0.5675840000000  0.5176010000000  0.5566620000000 1.0
C      1  0.5651340000000  0.5597890000000  0.4835450000000 1.0
C      1  0.5668240000000  0.4866800000000  0.4413040000000 1.0
C      1  0.4246350000000  0.4993540000000  0.5400090000000 1.0
C      1  0.4228400000000  0.5364280000000  0.4993950000000 1.0
C      1  0.4235730000000  0.4958110000000  0.4622870000000 1.0
C      1  0.4253680000000  0.4587370000000  0.5029020000000 1.0
C      1  0.4931430000000  0.5431930000000  0.4712780000000 1.0
C      1  0.4952210000000  0.4710320000000  0.4566920000000 1.0
C      1  0.4967760000000  0.4564860000000  0.5288740000000 1.0
C      1  0.4946980000000  0.5286470000000  0.5434610000000 1.0
C      1  0.4459790000000  0.4563700000000  0.5459180000000 1.0
C      1  0.4431630000000  0.5432880000000  0.5427310000000 1.0
C      1  0.4419500000000  0.5400610000000  0.4557770000000 1.0
C      1  0.4447670000000  0.4531420000000  0.4589640000000 1.0
C      1  0.4284670000000  0.5253090000000  0.5256060000000 1.0
C      1  0.4277760000000  0.5222460000000  0.4735050000000 1.0
C      1  0.4294810000000  0.4701670000000  0.4765430000000 1.0
C      1  0.4301720000000  0.4732290000000  0.5286440000000 1.0
C      1  0.4579280000000  0.5206430000000  0.4388490000000 1.0
C      1  0.4611950000000  0.4369630000000  0.4786420000000 1.0
C      1  0.4611930000000  0.4767800000000  0.5623750000000 1.0
C      1  0.4579260000000  0.5604610000000  0.5225820000000 1.0
END
