TITL C-26996-9923-3 -27.9237663696285 125000 -774.890670173445 0 0 110 (C1) n - 1
REM
REM in /rds/project/t2_vol4/rds-t2-cs072/BORA/CARBON/from-Arr/AIRSS/Generating-Clusters/GAP-ML-2020/Higher-Symm/SD-CG/HFTN-CG
REM
REM
REM
REM
REM
REM ./C.cell (b20cbc046b6831c77cfcea5457e17084)
REM AIRSS Version 0.9.1 bugfix July 2018 build 013d7b7c2542+ Fri, 06 Jul 2018 19:26:36 +0100
REM compiler GCC version 9.3.0
REM options -cpp -mtune=generic -march=x86-64 -g -O0
REM seed 2116879285 351384355 459290107 868362261 2099311506 -1684435856 -1114452879 1727585494 -99778394 76825679 37803396 -1150095269 903430548 -1804332233 -1662759556 1923768639 1788405858 -353523654 108742181 152673509 -58158251 -798454639 -1260326870 1292610737 1965018532 -415764158 -669474984 916007547 -10635632 -785816434 2077629997 -1391797742 -1996864221
REM
CELL 1.54180   50.00000   50.00000   50.00000   90.00000   90.00000   90.00000
LATT -1
SFAC C  
C      1  0.5624390000000  0.5283370000000  0.4357150000000 1.0
C      1  0.5161210000000  0.4758750000000  0.4140050000000 1.0
C      1  0.5405020000000  0.5723850000000  0.5220040000000 1.0
C      1  0.5177510000000  0.5259890000000  0.4159270000000 1.0
C      1  0.5356330000000  0.5805940000000  0.4944760000000 1.0
C      1  0.4625840000000  0.5799430000000  0.5081430000000 1.0
C      1  0.4706530000000  0.4921870000000  0.5077070000000 1.0
C      1  0.4641130000000  0.5165140000000  0.5713730000000 1.0
C      1  0.5323590000000  0.5001530000000  0.4143410000000 1.0
C      1  0.4301780000000  0.5081260000000  0.5225940000000 1.0
C      1  0.4203030000000  0.4819170000000  0.4777890000000 1.0
C      1  0.4314940000000  0.5604090000000  0.4759700000000 1.0
C      1  0.4383060000000  0.4676790000000  0.4605180000000 1.0
C      1  0.4410910000000  0.5216830000000  0.4998070000000 1.0
C      1  0.4515340000000  0.5585920000000  0.4558660000000 1.0
C      1  0.4686520000000  0.4736670000000  0.4645190000000 1.0
C      1  0.4394900000000  0.4816500000000  0.5236030000000 1.0
C      1  0.4773760000000  0.5029800000000  0.4616830000000 1.0
C      1  0.5601290000000  0.5531570000000  0.5299200000000 1.0
C      1  0.4420250000000  0.5342770000000  0.5635350000000 1.0
C      1  0.4903020000000  0.5364300000000  0.5010460000000 1.0
C      1  0.4230760000000  0.4685050000000  0.5035660000000 1.0
C      1  0.4848490000000  0.5015680000000  0.5321400000000 1.0
C      1  0.5759060000000  0.5141100000000  0.5500970000000 1.0
C      1  0.5261350000000  0.4409000000000  0.5660560000000 1.0
C      1  0.5442060000000  0.4574410000000  0.4488800000000 1.0
C      1  0.5333860000000  0.4282020000000  0.4937770000000 1.0
C      1  0.5352800000000  0.5083460000000  0.5915050000000 1.0
C      1  0.5608260000000  0.5373350000000  0.5549930000000 1.0
C      1  0.4989710000000  0.4150070000000  0.5383270000000 1.0
C      1  0.5388350000000  0.5319200000000  0.5744210000000 1.0
C      1  0.4480450000000  0.4285020000000  0.5191630000000 1.0
C      1  0.4321980000000  0.4421280000000  0.4998760000000 1.0
C      1  0.4917380000000  0.5630710000000  0.5414770000000 1.0
C      1  0.4657760000000  0.4130490000000  0.5031210000000 1.0
C      1  0.5320760000000  0.5665140000000  0.4469550000000 1.0
C      1  0.4154970000000  0.5248800000000  0.5599330000000 1.0
C      1  0.4645090000000  0.4210920000000  0.4753830000000 1.0
C      1  0.4648520000000  0.4740680000000  0.4203940000000 1.0
C      1  0.5052240000000  0.4987750000000  0.5908680000000 1.0
C      1  0.4571500000000  0.4407050000000  0.5440370000000 1.0
C      1  0.4425100000000  0.5584580000000  0.5446850000000 1.0
C      1  0.5571220000000  0.5010560000000  0.4272660000000 1.0
C      1  0.4752880000000  0.5231820000000  0.4358380000000 1.0
C      1  0.4183590000000  0.5096700000000  0.4690990000000 1.0
C      1  0.4691840000000  0.5165510000000  0.4903520000000 1.0
C      1  0.5399360000000  0.4551310000000  0.4789030000000 1.0
C      1  0.5731500000000  0.5431450000000  0.5060210000000 1.0
C      1  0.4849360000000  0.4714590000000  0.4908840000000 1.0
C      1  0.5816140000000  0.5152480000000  0.5041070000000 1.0
C      1  0.4365820000000  0.5743520000000  0.5004380000000 1.0
C      1  0.5522910000000  0.5043080000000  0.5366270000000 1.0
C      1  0.4899530000000  0.4531140000000  0.5104170000000 1.0
C      1  0.5879620000000  0.4747260000000  0.5345110000000 1.0
C      1  0.5218550000000  0.4533720000000  0.4317370000000 1.0
C      1  0.4983380000000  0.4397570000000  0.4423100000000 1.0
C      1  0.5433370000000  0.4248700000000  0.5212580000000 1.0
C      1  0.5279520000000  0.5001300000000  0.5496970000000 1.0
C      1  0.5850680000000  0.5100460000000  0.4753130000000 1.0
C      1  0.5393180000000  0.4869680000000  0.5747900000000 1.0
C      1  0.4932070000000  0.5329860000000  0.5323600000000 1.0
C      1  0.5144670000000  0.4789730000000  0.4817280000000 1.0
C      1  0.4907610000000  0.4758130000000  0.5784550000000 1.0
C      1  0.4060610000000  0.5424600000000  0.5137900000000 1.0
C      1  0.5078500000000  0.5850220000000  0.5012420000000 1.0
C      1  0.5653840000000  0.4402310000000  0.5283720000000 1.0
C      1  0.5117890000000  0.4893740000000  0.5283450000000 1.0
C      1  0.5156330000000  0.5260820000000  0.4907490000000 1.0
C      1  0.4918710000000  0.4220620000000  0.4648770000000 1.0
C      1  0.5684890000000  0.5525240000000  0.4787920000000 1.0
C      1  0.4918920000000  0.5212220000000  0.5793520000000 1.0
C      1  0.4509690000000  0.4683910000000  0.5471260000000 1.0
C      1  0.4889990000000  0.4850770000000  0.4096280000000 1.0
C      1  0.5761730000000  0.4842590000000  0.4683110000000 1.0
C      1  0.5064940000000  0.4973950000000  0.4608050000000 1.0
C      1  0.5542330000000  0.4978990000000  0.5081310000000 1.0
C      1  0.5409760000000  0.5452340000000  0.4285960000000 1.0
C      1  0.5252950000000  0.5000130000000  0.5021710000000 1.0
C      1  0.4783390000000  0.5709890000000  0.4619590000000 1.0
C      1  0.5027450000000  0.5664210000000  0.4466940000000 1.0
C      1  0.4844550000000  0.5711730000000  0.4908840000000 1.0
C      1  0.5805560000000  0.4581260000000  0.5120230000000 1.0
C      1  0.4819790000000  0.4318660000000  0.5548520000000 1.0
C      1  0.5626200000000  0.4787210000000  0.4442440000000 1.0
C      1  0.5693620000000  0.4578010000000  0.5510600000000 1.0
C      1  0.5099230000000  0.4617090000000  0.5259410000000 1.0
C      1  0.4417200000000  0.4390770000000  0.4729810000000 1.0
C      1  0.4318470000000  0.5111390000000  0.4437220000000 1.0
C      1  0.4237210000000  0.5618910000000  0.5230120000000 1.0
C      1  0.4180150000000  0.5354790000000  0.4856050000000 1.0
C      1  0.4489750000000  0.5347130000000  0.4396690000000 1.0
C      1  0.5006660000000  0.5385540000000  0.4411770000000 1.0
C      1  0.5256790000000  0.4215830000000  0.5440300000000 1.0
C      1  0.4985790000000  0.4488920000000  0.5714920000000 1.0
C      1  0.5930790000000  0.5028000000000  0.5302360000000 1.0
C      1  0.4899000000000  0.5132100000000  0.4120040000000 1.0
C      1  0.5472740000000  0.4600790000000  0.5694200000000 1.0
C      1  0.5125370000000  0.5773200000000  0.5288100000000 1.0
C      1  0.4657270000000  0.5716340000000  0.5352670000000 1.0
C      1  0.4764700000000  0.4572450000000  0.4396150000000 1.0
C      1  0.4075790000000  0.5213290000000  0.5340240000000 1.0
C      1  0.5480070000000  0.5711390000000  0.4707080000000 1.0
C      1  0.5178810000000  0.5225610000000  0.4632560000000 1.0
C      1  0.5133260000000  0.5268540000000  0.5587120000000 1.0
C      1  0.4410430000000  0.4845200000000  0.4349800000000 1.0
C      1  0.4921590000000  0.4078910000000  0.5113130000000 1.0
C      1  0.5090720000000  0.4151860000000  0.4878440000000 1.0
C      1  0.5759870000000  0.5321590000000  0.4606220000000 1.0
C      1  0.5642290000000  0.4705130000000  0.4912340000000 1.0
C      1  0.4696740000000  0.4882020000000  0.5600150000000 1.0
END
