TITL C-26987-9801-9 14.6582982625385 125000 -124.554043982865 0 0 20 (C2v) n - 1
REM
REM in /rds/project/t2_vol4/rds-t2-cs072/BORA/CARBON/from-Arr/AIRSS/Generating-Clusters/GAP-ML-2020/Higher-Symm/SD-CG/HFTN-CG
REM
REM
REM
REM
REM
REM ./C.cell (b20cbc046b6831c77cfcea5457e17084)
REM AIRSS Version 0.9.1 bugfix July 2018 build 013d7b7c2542+ Fri, 06 Jul 2018 19:26:36 +0100
REM compiler GCC version 9.3.0
REM options -cpp -mtune=generic -march=x86-64 -g -O0
REM seed -1129848009 -1973679208 1468341064 1629073224 1343738264 -1991061429 -497748422 1079534142 1551820991 1147657407 1470927033 1560218580 -1414117433 58304510 1875745640 522732993 1738446182 2024606500 1969361385 -627011561 112224953 1799363852 1108382933 -570031748 -1247462921 1327925084 -650246137 1502304811 573810711 -848558278 -1981401466 1353959195 1915365680
REM
CELL 1.54180   50.00000   50.00000   50.00000   90.00000   90.00000   90.00000
LATT -1
SFAC C  
C      1  0.5248100000000  0.4998490000000  0.4746590000000 1.0
C      1  0.5249300000000  0.5231120000000  0.4919620000000 1.0
C      1  0.5250760000000  0.5140720000000  0.5193910000000 1.0
C      1  0.5249310000000  0.4851910000000  0.5194790000000 1.0
C      1  0.5248100000000  0.4759560000000  0.4919970000000 1.0
C      1  0.4780720000000  0.4998460000000  0.4746560000000 1.0
C      1  0.4780720000000  0.4759530000000  0.4919940000000 1.0
C      1  0.4779470000000  0.4851870000000  0.5194760000000 1.0
C      1  0.4777970000000  0.5140680000000  0.5193880000000 1.0
C      1  0.4779460000000  0.5231090000000  0.4919590000000 1.0
C      1  0.5014430000000  0.5055790000000  0.4282380000000 1.0
C      1  0.5014320000000  0.5412280000000  0.5568150000000 1.0
C      1  0.5014380000000  0.4599590000000  0.5583560000000 1.0
C      1  0.5014350000000  0.5678970000000  0.4800310000000 1.0
C      1  0.5014460000000  0.4300460000000  0.4830490000000 1.0
C      1  0.5014370000000  0.5428070000000  0.4860650000000 1.0
C      1  0.5014430000000  0.4557620000000  0.4864300000000 1.0
C      1  0.5014390000000  0.4734770000000  0.5363750000000 1.0
C      1  0.5014350000000  0.5260830000000  0.5359450000000 1.0
C      1  0.5014420000000  0.5008180000000  0.4537350000000 1.0
END
