TITL C-26986-9896-10 -44.2412874690769 125000 -206.89446009868 0 0 32 (C3) n - 1
REM
REM in /rds/project/t2_vol4/rds-t2-cs072/BORA/CARBON/from-Arr/AIRSS/Generating-Clusters/GAP-ML-2020/Higher-Symm/SD-CG/HFTN-CG
REM
REM
REM
REM
REM
REM ./C.cell (b20cbc046b6831c77cfcea5457e17084)
REM AIRSS Version 0.9.1 bugfix July 2018 build 013d7b7c2542+ Fri, 06 Jul 2018 19:26:36 +0100
REM compiler GCC version 9.3.0
REM options -cpp -mtune=generic -march=x86-64 -g -O0
REM seed 341965541 -367392730 -1861822516 839287801 -4996060 -1206684976 1854681043 -1248556726 831882694 -1213604509 916211640 -438432523 -759375702 -1286266672 -566035570 -2142183362 -1650648986 -1711459458 -433264453 -1444945679 1219860183 -424745150 1013705156 973823041 1634249669 711270964 1914683579 262382320 67384230 1770546109 -1671370191 -137542237 -341836557
REM
CELL 1.54180   50.00000   50.00000   50.00000   90.00000   90.00000   90.00000
LATT -1
SFAC C  
C      1  0.4867620000000  0.4965360000000  0.4326370000000 1.0
C      1  0.4885470000000  0.5579930000000  0.5315240000000 1.0
C      1  0.4938480000000  0.4417280000000  0.5351290000000 1.0
C      1  0.5252300000000  0.5050020000000  0.5400760000000 1.0
C      1  0.5244730000000  0.4616300000000  0.4813440000000 1.0
C      1  0.5209030000000  0.5341070000000  0.4732530000000 1.0
C      1  0.4965250000000  0.4802950000000  0.5213140000000 1.0
C      1  0.4938970000000  0.4894180000000  0.4724350000000 1.0
C      1  0.4937030000000  0.5272050000000  0.5048600000000 1.0
C      1  0.5372810000000  0.4738460000000  0.5034970000000 1.0
C      1  0.5342600000000  0.5091630000000  0.4714070000000 1.0
C      1  0.5359340000000  0.5193590000000  0.5180910000000 1.0
C      1  0.5106760000000  0.5630270000000  0.5180080000000 1.0
C      1  0.5167780000000  0.4515380000000  0.5438310000000 1.0
C      1  0.5103280000000  0.4847240000000  0.4343280000000 1.0
C      1  0.4787760000000  0.4640940000000  0.4738950000000 1.0
C      1  0.4759610000000  0.5381240000000  0.4839290000000 1.0
C      1  0.4806640000000  0.4925470000000  0.5430030000000 1.0
C      1  0.4996820000000  0.5127240000000  0.5496040000000 1.0
C      1  0.4996090000000  0.4488470000000  0.4859730000000 1.0
C      1  0.4947030000000  0.5357830000000  0.4625830000000 1.0
C      1  0.4825950000000  0.5297540000000  0.5318560000000 1.0
C      1  0.4849470000000  0.4553180000000  0.5112740000000 1.0
C      1  0.4800570000000  0.5102320000000  0.4571420000000 1.0
C      1  0.5213840000000  0.5408600000000  0.5036830000000 1.0
C      1  0.5255120000000  0.4752660000000  0.5307210000000 1.0
C      1  0.5219000000000  0.4845330000000  0.4603520000000 1.0
C      1  0.4622750000000  0.5081740000000  0.5275640000000 1.0
C      1  0.4626030000000  0.4692260000000  0.4969790000000 1.0
C      1  0.4597390000000  0.5151210000000  0.4785960000000 1.0
C      1  0.5427700000000  0.5010960000000  0.4973490000000 1.0
C      1  0.4579020000000  0.4973460000000  0.5012120000000 1.0
END
