TITL C-26981-9902-8 -84.3995344883377 125000 -197.484523987987 0 0 30 (C1) n - 1
REM
REM in /rds/project/t2_vol4/rds-t2-cs072/BORA/CARBON/from-Arr/AIRSS/Generating-Clusters/GAP-ML-2020/Higher-Symm/SD-CG/HFTN-CG
REM
REM
REM
REM
REM
REM ./C.cell (b20cbc046b6831c77cfcea5457e17084)
REM AIRSS Version 0.9.1 bugfix July 2018 build 013d7b7c2542+ Fri, 06 Jul 2018 19:26:36 +0100
REM compiler GCC version 9.3.0
REM options -cpp -mtune=generic -march=x86-64 -g -O0
REM seed 1868476131 664216696 851858334 -1610755112 763925337 -1690785285 1388267349 -347307594 -1191134665 1031773857 1551318389 1664268128 1767824502 -1902334920 -1414539649 2049031237 -1890641340 1707743726 1554863605 1636563016 1978667292 -462160878 -1268144281 690400959 4059227 804645269 865985448 1124065114 -1662860176 -1194560586 -111100917 1585721960 1894112881
REM
CELL 1.54180   50.00000   50.00000   50.00000   90.00000   90.00000   90.00000
LATT -1
SFAC C  
C      1  0.5178850000000  0.4813700000000  0.4671790000000 1.0
C      1  0.5081500000000  0.4882700000000  0.5435430000000 1.0
C      1  0.5420710000000  0.4940840000000  0.5051250000000 1.0
C      1  0.5108300000000  0.4557490000000  0.4805680000000 1.0
C      1  0.4628510000000  0.4682280000000  0.4730140000000 1.0
C      1  0.4808010000000  0.5232380000000  0.5461740000000 1.0
C      1  0.5104040000000  0.4610980000000  0.5401020000000 1.0
C      1  0.4722950000000  0.5204210000000  0.5170240000000 1.0
C      1  0.4261780000000  0.5015510000000  0.5040480000000 1.0
C      1  0.4481730000000  0.5157170000000  0.5001430000000 1.0
C      1  0.5360280000000  0.5005750000000  0.4778320000000 1.0
C      1  0.4801190000000  0.5506980000000  0.5138420000000 1.0
C      1  0.5540540000000  0.4703290000000  0.5084920000000 1.0
C      1  0.4945670000000  0.5071570000000  0.5030710000000 1.0
C      1  0.5190330000000  0.5040230000000  0.5207280000000 1.0
C      1  0.4926340000000  0.5542510000000  0.4889340000000 1.0
C      1  0.4828060000000  0.4543640000000  0.4808330000000 1.0
C      1  0.5200620000000  0.5444750000000  0.4941750000000 1.0
C      1  0.4899010000000  0.5022530000000  0.5604560000000 1.0
C      1  0.5540220000000  0.4448070000000  0.5032700000000 1.0
C      1  0.5255680000000  0.4432600000000  0.5019470000000 1.0
C      1  0.4702950000000  0.4931940000000  0.4618560000000 1.0
C      1  0.5037230000000  0.5245260000000  0.4558800000000 1.0
C      1  0.4976640000000  0.4965240000000  0.4534330000000 1.0
C      1  0.5130790000000  0.4390090000000  0.5278300000000 1.0
C      1  0.5266690000000  0.5268080000000  0.4727310000000 1.0
C      1  0.5193730000000  0.5336510000000  0.5210960000000 1.0
C      1  0.4614770000000  0.5178840000000  0.4728020000000 1.0
C      1  0.4976370000000  0.5447540000000  0.5362540000000 1.0
C      1  0.4816530000000  0.5377330000000  0.4676190000000 1.0
END
