TITL C-26982-9960-2 -0.0818249316547251 125000 -177.282011425151 0 0 27 (C2v) n - 1
REM
REM in /rds/project/t2_vol4/rds-t2-cs072/BORA/CARBON/from-Arr/AIRSS/Generating-Clusters/GAP-ML-2020/Higher-Symm/SD-CG/HFTN-CG
REM
REM
REM
REM
REM
REM ./C.cell (b20cbc046b6831c77cfcea5457e17084)
REM AIRSS Version 0.9.1 bugfix July 2018 build 013d7b7c2542+ Fri, 06 Jul 2018 19:26:36 +0100
REM compiler GCC version 9.3.0
REM options -cpp -mtune=generic -march=x86-64 -g -O0
REM seed 1374126033 100841298 -25890391 -2047157703 -706400492 868559 35959687 1442677386 -1210151947 252025468 15647658 -1298578443 643543275 1794069389 2081467956 1525066422 1758706987 12661135 1971891136 552122938 -993051807 1090905738 -1695300135 709051693 -2097151157 112915251 1134882598 1554603028 -247012835 316384621 -1328186377 -1516869301 -499308220
REM
CELL 1.54180   50.00000   50.00000   50.00000   90.00000   90.00000   90.00000
LATT -1
SFAC C  
C      1  0.5401660000000  0.4767010000000  0.5145650000000 1.0
C      1  0.5393980000000  0.4750280000000  0.4864880000000 1.0
C      1  0.5194930000000  0.4737260000000  0.4641100000000 1.0
C      1  0.4916550000000  0.4735280000000  0.4600270000000 1.0
C      1  0.4662660000000  0.4745180000000  0.4753730000000 1.0
C      1  0.4580090000000  0.4759030000000  0.5021730000000 1.0
C      1  0.4710770000000  0.4751280000000  0.5271730000000 1.0
C      1  0.4942700000000  0.4782740000000  0.5429400000000 1.0
C      1  0.5218930000000  0.4781550000000  0.5379120000000 1.0
C      1  0.5391730000000  0.5237320000000  0.4838550000000 1.0
C      1  0.5192680000000  0.5224300000000  0.4614770000000 1.0
C      1  0.4914310000000  0.5219300000000  0.4574100000000 1.0
C      1  0.4660450000000  0.5223670000000  0.4727870000000 1.0
C      1  0.4577870000000  0.5238030000000  0.4995830000000 1.0
C      1  0.4708360000000  0.5273880000000  0.5243480000000 1.0
C      1  0.4940490000000  0.5261750000000  0.5403510000000 1.0
C      1  0.5216720000000  0.5260050000000  0.5353250000000 1.0
C      1  0.5399420000000  0.5251030000000  0.5119480000000 1.0
C      1  0.5529020000000  0.5015600000000  0.5243330000000 1.0
C      1  0.5512400000000  0.4987980000000  0.4733920000000 1.0
C      1  0.5325050000000  0.4975730000000  0.4523290000000 1.0
C      1  0.4820440000000  0.4969260000000  0.4446710000000 1.0
C      1  0.4577520000000  0.4976100000000  0.4594050000000 1.0
C      1  0.4442900000000  0.5003660000000  0.5115330000000 1.0
C      1  0.4594940000000  0.5017550000000  0.5359270000000 1.0
C      1  0.4819590000000  0.5028290000000  0.5538820000000 1.0
C      1  0.5353850000000  0.5026870000000  0.5466830000000 1.0
END
