TITL C-27003-112-6 -12.6277187890294 125000 -850.248377590898 0 0 125 (C1) n - 1
REM
REM in /rds/project/t2_vol4/rds-t2-cs072/BORA/CARBON/from-Arr/AIRSS/Generating-Clusters/GAP-ML-2020/Higher-Symm/SD-CG/HFTN-CG
REM
REM
REM
REM
REM
REM ./C.cell (b20cbc046b6831c77cfcea5457e17084)
REM AIRSS Version 0.9.1 bugfix July 2018 build 013d7b7c2542+ Fri, 06 Jul 2018 19:26:36 +0100
REM compiler GCC version 9.3.0
REM options -cpp -mtune=generic -march=x86-64 -g -O0
REM seed -270735096 -540671096 -1032315247 -2140863998 1343276181 2108089803 -1140719093 -1293181675 279883829 -988240739 559706331 -1683190155 -2080426657 83327332 57477009 -384619025 2088605416 -1204990212 408564081 -1669043547 1182570777 -309087146 333285709 1266031008 1452682641 -1433279261 849540799 -1498182953 -446188652 -953955789 -221244687 416052255 -643804350
REM
CELL 1.54180   50.00000   50.00000   50.00000   90.00000   90.00000   90.00000
LATT -1
SFAC C  
C      1  0.4755160000000  0.5918320000000  0.4719350000000 1.0
C      1  0.5876460000000  0.4654080000000  0.4811640000000 1.0
C      1  0.4678040000000  0.4805360000000  0.5968740000000 1.0
C      1  0.5171720000000  0.4167240000000  0.4685200000000 1.0
C      1  0.4776610000000  0.4051750000000  0.5318320000000 1.0
C      1  0.5169030000000  0.5879600000000  0.5356250000000 1.0
C      1  0.4106880000000  0.5286880000000  0.4847490000000 1.0
C      1  0.5868480000000  0.5324000000000  0.5194620000000 1.0
C      1  0.4098760000000  0.4634160000000  0.5248390000000 1.0
C      1  0.5292020000000  0.5337020000000  0.5969510000000 1.0
C      1  0.4920320000000  0.5266230000000  0.4091420000000 1.0
C      1  0.5410790000000  0.4717750000000  0.4088390000000 1.0
C      1  0.5116030000000  0.5955630000000  0.5085420000000 1.0
C      1  0.5877190000000  0.5027080000000  0.5079160000000 1.0
C      1  0.5004590000000  0.5251050000000  0.6036450000000 1.0
C      1  0.4858510000000  0.4035390000000  0.5036690000000 1.0
C      1  0.5128060000000  0.4073470000000  0.4953540000000 1.0
C      1  0.4858690000000  0.5856940000000  0.4986340000000 1.0
C      1  0.4114720000000  0.4918200000000  0.5164720000000 1.0
C      1  0.5978310000000  0.4912490000000  0.4828240000000 1.0
C      1  0.4018330000000  0.5019920000000  0.4908450000000 1.0
C      1  0.4909660000000  0.4978830000000  0.6042560000000 1.0
C      1  0.5138490000000  0.4859410000000  0.4068730000000 1.0
C      1  0.5138650000000  0.5135990000000  0.3960250000000 1.0
C      1  0.4426850000000  0.4248340000000  0.5069180000000 1.0
C      1  0.4230050000000  0.4956660000000  0.4484800000000 1.0
C      1  0.5057210000000  0.4433180000000  0.4246930000000 1.0
C      1  0.5531020000000  0.5732640000000  0.5049420000000 1.0
C      1  0.4410710000000  0.5692190000000  0.4992180000000 1.0
C      1  0.5502840000000  0.4356300000000  0.4976060000000 1.0
C      1  0.5852490000000  0.4832390000000  0.4349980000000 1.0
C      1  0.4275800000000  0.4945380000000  0.5609720000000 1.0
C      1  0.5701650000000  0.5093680000000  0.5657190000000 1.0
C      1  0.4878970000000  0.5677470000000  0.4325250000000 1.0
C      1  0.4964290000000  0.5683710000000  0.5804060000000 1.0
C      1  0.4971730000000  0.4388920000000  0.5713400000000 1.0
C      1  0.4592300000000  0.4496380000000  0.5099430000000 1.0
C      1  0.4560620000000  0.5215650000000  0.4734490000000 1.0
C      1  0.5080150000000  0.4652730000000  0.4465870000000 1.0
C      1  0.5295420000000  0.5412360000000  0.5285420000000 1.0
C      1  0.4709450000000  0.5463480000000  0.4717160000000 1.0
C      1  0.5379400000000  0.4558720000000  0.4518720000000 1.0
C      1  0.5495690000000  0.4811980000000  0.4609040000000 1.0
C      1  0.4520530000000  0.4681270000000  0.5326740000000 1.0
C      1  0.5480000000000  0.5178690000000  0.5264750000000 1.0
C      1  0.4913730000000  0.5431190000000  0.4498830000000 1.0
C      1  0.5152110000000  0.5378230000000  0.5541260000000 1.0
C      1  0.4748820000000  0.4710440000000  0.5506100000000 1.0
C      1  0.4902080000000  0.5146890000000  0.4374640000000 1.0
C      1  0.4973280000000  0.4666890000000  0.4896300000000 1.0
C      1  0.4440700000000  0.4882760000000  0.5098070000000 1.0
C      1  0.5116230000000  0.4941100000000  0.4370940000000 1.0
C      1  0.5003480000000  0.4977460000000  0.5767360000000 1.0
C      1  0.5228650000000  0.5106650000000  0.5641800000000 1.0
C      1  0.4947870000000  0.5544630000000  0.4894090000000 1.0
C      1  0.5043030000000  0.5362000000000  0.5096710000000 1.0
C      1  0.4889270000000  0.4505570000000  0.5111500000000 1.0
C      1  0.5593040000000  0.5083730000000  0.4999090000000 1.0
C      1  0.4580120000000  0.5116080000000  0.5028870000000 1.0
C      1  0.5469120000000  0.4835050000000  0.4900080000000 1.0
C      1  0.5443250000000  0.4704890000000  0.5532720000000 1.0
C      1  0.4747400000000  0.5696810000000  0.5397160000000 1.0
C      1  0.5811100000000  0.5248710000000  0.4593050000000 1.0
C      1  0.4601590000000  0.5312090000000  0.5771460000000 1.0
C      1  0.5529430000000  0.5139700000000  0.4203280000000 1.0
C      1  0.4636080000000  0.4744180000000  0.4150970000000 1.0
C      1  0.5231530000000  0.4232830000000  0.5400860000000 1.0
C      1  0.4775300000000  0.4285210000000  0.4635210000000 1.0
C      1  0.5219510000000  0.5807290000000  0.4635900000000 1.0
C      1  0.4210820000000  0.4589300000000  0.4810100000000 1.0
C      1  0.5794210000000  0.4780350000000  0.5252310000000 1.0
C      1  0.4248880000000  0.5353630000000  0.5286320000000 1.0
C      1  0.4203150000000  0.5488240000000  0.5039400000000 1.0
C      1  0.5643680000000  0.4883720000000  0.4157390000000 1.0
C      1  0.4966900000000  0.4170430000000  0.5508180000000 1.0
C      1  0.5665630000000  0.4609700000000  0.5022710000000 1.0
C      1  0.4169820000000  0.4440900000000  0.5048990000000 1.0
C      1  0.5712530000000  0.5509520000000  0.5006390000000 1.0
C      1  0.4474600000000  0.4888570000000  0.4328120000000 1.0
C      1  0.5466250000000  0.5162940000000  0.5816120000000 1.0
C      1  0.4513630000000  0.5004160000000  0.5791060000000 1.0
C      1  0.4946160000000  0.5829420000000  0.5547560000000 1.0
C      1  0.4955230000000  0.5876730000000  0.4526110000000 1.0
C      1  0.4989290000000  0.4212720000000  0.4464350000000 1.0
C      1  0.4671880000000  0.5014810000000  0.4528660000000 1.0
C      1  0.4870030000000  0.4576190000000  0.4647230000000 1.0
C      1  0.4483800000000  0.4682680000000  0.4884040000000 1.0
C      1  0.5370820000000  0.5058730000000  0.4474060000000 1.0
C      1  0.4762040000000  0.4983470000000  0.5598720000000 1.0
C      1  0.5328320000000  0.4961400000000  0.5411210000000 1.0
C      1  0.5159270000000  0.5519550000000  0.4653450000000 1.0
C      1  0.4887200000000  0.5414740000000  0.5371600000000 1.0
C      1  0.4994820000000  0.4642180000000  0.5354370000000 1.0
C      1  0.5620490000000  0.5312850000000  0.4795860000000 1.0
C      1  0.4519650000000  0.5265500000000  0.5260030000000 1.0
C      1  0.5169560000000  0.4875700000000  0.4967430000000 1.0
C      1  0.4814340000000  0.5442910000000  0.5903720000000 1.0
C      1  0.5330220000000  0.5880180000000  0.4894580000000 1.0
C      1  0.5707900000000  0.4801380000000  0.5524180000000 1.0
C      1  0.5230870000000  0.4498990000000  0.5534120000000 1.0
C      1  0.4893620000000  0.4651960000000  0.4107800000000 1.0
C      1  0.5396110000000  0.5231860000000  0.3977160000000 1.0
C      1  0.4660760000000  0.4156670000000  0.4859690000000 1.0
C      1  0.5325400000000  0.4187140000000  0.5135280000000 1.0
C      1  0.4625680000000  0.5789690000000  0.5159160000000 1.0
C      1  0.4166150000000  0.5103800000000  0.5397760000000 1.0
C      1  0.5955220000000  0.5030500000000  0.4548360000000 1.0
C      1  0.4086210000000  0.4819320000000  0.4693500000000 1.0
C      1  0.4845860000000  0.5535290000000  0.4106340000000 1.0
C      1  0.5394520000000  0.4342140000000  0.4707430000000 1.0
C      1  0.4272080000000  0.4683170000000  0.5480190000000 1.0
C      1  0.5351380000000  0.4485100000000  0.4226760000000 1.0
C      1  0.4766340000000  0.4577130000000  0.5783960000000 1.0
C      1  0.5209730000000  0.5550930000000  0.5787230000000 1.0
C      1  0.4542930000000  0.5709030000000  0.4738410000000 1.0
C      1  0.5381090000000  0.5694310000000  0.5292160000000 1.0
C      1  0.4503750000000  0.4080280000000  0.5290100000000 1.0
C      1  0.5719650000000  0.5262270000000  0.5428840000000 1.0
C      1  0.4280120000000  0.5217580000000  0.4627680000000 1.0
C      1  0.5759570000000  0.4664200000000  0.4551430000000 1.0
C      1  0.5119400000000  0.4879910000000  0.5249010000000 1.0
C      1  0.5327280000000  0.5273540000000  0.4692330000000 1.0
C      1  0.4689720000000  0.5247660000000  0.5481390000000 1.0
C      1  0.4691160000000  0.4777130000000  0.4706720000000 1.0
C      1  0.5135080000000  0.5155260000000  0.4897350000000 1.0
END
