TITL C-27001-9855-4 -0.0444519077217139 125000 -158.606126491759 0 0 25 (C1) n - 1
REM
REM in /rds/project/t2_vol4/rds-t2-cs072/BORA/CARBON/from-Arr/AIRSS/Generating-Clusters/GAP-ML-2020/Higher-Symm/SD-CG/HFTN-CG
REM
REM
REM
REM
REM
REM ./C.cell (b20cbc046b6831c77cfcea5457e17084)
REM AIRSS Version 0.9.1 bugfix July 2018 build 013d7b7c2542+ Fri, 06 Jul 2018 19:26:36 +0100
REM compiler GCC version 9.3.0
REM options -cpp -mtune=generic -march=x86-64 -g -O0
REM seed -1129385979 -1418372545 2085776873 -645058332 1446520822 68157661 -1755719393 1615557646 -2144123053 -2128497061 -724692807 -1937013973 -1924329530 -1378867164 1027182106 -1489309217 1996698462 113123124 -2114360240 1990766678 -93011443 -645250533 -1354872475 1152329508 1361331728 229214874 1107358898 -1757014059 -758800466 -2079694926 1994366970 -1404137476 887009932
REM
CELL 1.54180   50.00000   50.00000   50.00000   90.00000   90.00000   90.00000
LATT -1
SFAC C  
C      1  0.4698860000000  0.4975700000000  0.5419220000000 1.0
C      1  0.5003620000000  0.4640260000000  0.5381470000000 1.0
C      1  0.5305780000000  0.4983560000000  0.5408720000000 1.0
C      1  0.4996450000000  0.5367080000000  0.5294090000000 1.0
C      1  0.5412010000000  0.5017910000000  0.4643010000000 1.0
C      1  0.4995560000000  0.4708120000000  0.4601640000000 1.0
C      1  0.4573320000000  0.5002960000000  0.4659540000000 1.0
C      1  0.4985510000000  0.5297390000000  0.4549360000000 1.0
C      1  0.5140580000000  0.5205530000000  0.5502350000000 1.0
C      1  0.4865530000000  0.5203680000000  0.5492020000000 1.0
C      1  0.4778860000000  0.4731770000000  0.5527850000000 1.0
C      1  0.5233580000000  0.4735530000000  0.5514820000000 1.0
C      1  0.4754660000000  0.5129430000000  0.4483560000000 1.0
C      1  0.5214360000000  0.5135110000000  0.4482240000000 1.0
C      1  0.5220700000000  0.4855070000000  0.4496670000000 1.0
C      1  0.4759730000000  0.4849060000000  0.4499620000000 1.0
C      1  0.4560750000000  0.5000370000000  0.5182740000000 1.0
C      1  0.4995980000000  0.4539350000000  0.5107670000000 1.0
C      1  0.5430480000000  0.5015730000000  0.5160850000000 1.0
C      1  0.5001110000000  0.5515380000000  0.5067880000000 1.0
C      1  0.5444080000000  0.5035060000000  0.4910920000000 1.0
C      1  0.4997950000000  0.4576390000000  0.4856310000000 1.0
C      1  0.4659520000000  0.5033460000000  0.4939650000000 1.0
C      1  0.4991350000000  0.5367860000000  0.4836250000000 1.0
C      1  0.4942820000000  0.5101340000000  0.4905790000000 1.0
END
