TITL C-27007-978-4 233.775851201831 125000 -510.456058152755 0 0 74 (C1) n - 1
REM
REM in /rds/project/t2_vol4/rds-t2-cs072/BORA/CARBON/from-Arr/AIRSS/Generating-Clusters/GAP-ML-2020/Higher-Symm/SD-CG/HFTN-CG
REM
REM
REM
REM
REM
REM ./C.cell (b20cbc046b6831c77cfcea5457e17084)
REM AIRSS Version 0.9.1 bugfix July 2018 build 013d7b7c2542+ Fri, 06 Jul 2018 19:26:36 +0100
REM compiler GCC version 9.3.0
REM options -cpp -mtune=generic -march=x86-64 -g -O0
REM seed 232577936 -1365870610 2137075621 182147344 -857210170 467673012 -581757715 -589078358 -1411651460 224808622 1672086760 -515053127 -1274360400 -1045473738 60115934 1304580725 2054984608 -1066668519 -920309209 1196748941 1894425387 1558352151 -617480243 767865840 1390118398 1426660558 893681651 430069371 -983003795 -1775150055 1976205021 612985862 -1908712546
REM
CELL 1.54180   50.00000   50.00000   50.00000   90.00000   90.00000   90.00000
LATT -1
SFAC C  
C      1  0.5444230000000  0.4816370000000  0.4306070000000 1.0
C      1  0.5678070000000  0.4932880000000  0.5137840000000 1.0
C      1  0.5033260000000  0.4830260000000  0.5786150000000 1.0
C      1  0.4288050000000  0.4866760000000  0.5254660000000 1.0
C      1  0.4523780000000  0.4873900000000  0.4438000000000 1.0
C      1  0.4551610000000  0.5118820000000  0.4388910000000 1.0
C      1  0.4254340000000  0.5107520000000  0.5189210000000 1.0
C      1  0.4924150000000  0.5034780000000  0.5640830000000 1.0
C      1  0.5769710000000  0.5136670000000  0.5292220000000 1.0
C      1  0.5458900000000  0.5015820000000  0.4489620000000 1.0
C      1  0.5313200000000  0.4588550000000  0.4403130000000 1.0
C      1  0.5623340000000  0.4646460000000  0.5092280000000 1.0
C      1  0.5093880000000  0.4602230000000  0.5641930000000 1.0
C      1  0.4431970000000  0.4620630000000  0.5276030000000 1.0
C      1  0.4558440000000  0.4614400000000  0.4533070000000 1.0
C      1  0.4690000000000  0.5353870000000  0.4444170000000 1.0
C      1  0.4330150000000  0.5364970000000  0.5106160000000 1.0
C      1  0.4903770000000  0.5319930000000  0.5594020000000 1.0
C      1  0.5607790000000  0.5365210000000  0.5293570000000 1.0
C      1  0.5445080000000  0.5303910000000  0.4556970000000 1.0
C      1  0.4753710000000  0.4086400000000  0.5161870000000 1.0
C      1  0.4587910000000  0.4107100000000  0.4722460000000 1.0
C      1  0.5066450000000  0.4096880000000  0.4774730000000 1.0
C      1  0.5504920000000  0.4113000000000  0.4973560000000 1.0
C      1  0.5152290000000  0.4097610000000  0.5266390000000 1.0
C      1  0.5180440000000  0.5856910000000  0.5136060000000 1.0
C      1  0.5420430000000  0.5839580000000  0.4718360000000 1.0
C      1  0.4962810000000  0.5860020000000  0.4687990000000 1.0
C      1  0.4699620000000  0.5881050000000  0.5005930000000 1.0
C      1  0.4822910000000  0.5848390000000  0.5453270000000 1.0
C      1  0.5134480000000  0.5472430000000  0.5499910000000 1.0
C      1  0.4500880000000  0.5519820000000  0.5300800000000 1.0
C      1  0.4572730000000  0.5513400000000  0.4664150000000 1.0
C      1  0.5206360000000  0.5459750000000  0.4491560000000 1.0
C      1  0.5569300000000  0.5514670000000  0.5030820000000 1.0
C      1  0.4861650000000  0.4450990000000  0.5521230000000 1.0
C      1  0.5473360000000  0.4489750000000  0.5287910000000 1.0
C      1  0.5442560000000  0.4437950000000  0.4633380000000 1.0
C      1  0.4815780000000  0.4468650000000  0.4491130000000 1.0
C      1  0.4429680000000  0.4446300000000  0.5025230000000 1.0
C      1  0.5343390000000  0.4196630000000  0.4757520000000 1.0
C      1  0.5410480000000  0.4213150000000  0.5218440000000 1.0
C      1  0.4903510000000  0.4202560000000  0.5387510000000 1.0
C      1  0.4548460000000  0.4190340000000  0.4995420000000 1.0
C      1  0.4831790000000  0.4211110000000  0.4626140000000 1.0
C      1  0.4686620000000  0.5764220000000  0.4736120000000 1.0
C      1  0.4626150000000  0.5775730000000  0.5258420000000 1.0
C      1  0.5074450000000  0.5738120000000  0.5390070000000 1.0
C      1  0.5416510000000  0.5757310000000  0.4988220000000 1.0
C      1  0.5197280000000  0.5737390000000  0.4578210000000 1.0
C      1  0.4963820000000  0.5304630000000  0.4520270000000 1.0
C      1  0.5553950000000  0.5316050000000  0.4828020000000 1.0
C      1  0.5340210000000  0.5301440000000  0.5379530000000 1.0
C      1  0.4674670000000  0.5331680000000  0.5414810000000 1.0
C      1  0.4475250000000  0.5323200000000  0.4859510000000 1.0
C      1  0.5045940000000  0.4647150000000  0.4488540000000 1.0
C      1  0.4480720000000  0.4625020000000  0.4809920000000 1.0
C      1  0.4678360000000  0.4649170000000  0.5428360000000 1.0
C      1  0.5264320000000  0.4643470000000  0.5413260000000 1.0
C      1  0.5550550000000  0.4633900000000  0.4808260000000 1.0
C      1  0.5403940000000  0.4882400000000  0.4751870000000 1.0
C      1  0.5104060000000  0.4827770000000  0.5235110000000 1.0
C      1  0.4841380000000  0.4908360000000  0.5386050000000 1.0
C      1  0.4662010000000  0.4812020000000  0.4930930000000 1.0
C      1  0.5083270000000  0.4837400000000  0.4729790000000 1.0
C      1  0.4664340000000  0.5098640000000  0.4911460000000 1.0
C      1  0.4761440000000  0.5135470000000  0.5210650000000 1.0
C      1  0.5242320000000  0.5103030000000  0.5169360000000 1.0
C      1  0.5475590000000  0.5064630000000  0.4961310000000 1.0
C      1  0.4949820000000  0.5123490000000  0.4760880000000 1.0
C      1  0.4960800000000  0.4732290000000  0.4975270000000 1.0
C      1  0.5014340000000  0.5219820000000  0.5037520000000 1.0
C      1  0.5001300000000  0.3996460000000  0.5034590000000 1.0
C      1  0.4977780000000  0.5963630000000  0.4963600000000 1.0
END
