TITL C-27006-9853-3 -2.1059731700969 125000 -234.689160784215 0 0 37 (D2) n - 1
REM
REM in /rds/project/t2_vol4/rds-t2-cs072/BORA/CARBON/from-Arr/AIRSS/Generating-Clusters/GAP-ML-2020/Higher-Symm/SD-CG/HFTN-CG
REM
REM
REM
REM
REM
REM ./C.cell (b20cbc046b6831c77cfcea5457e17084)
REM AIRSS Version 0.9.1 bugfix July 2018 build 013d7b7c2542+ Fri, 06 Jul 2018 19:26:36 +0100
REM compiler GCC version 9.3.0
REM options -cpp -mtune=generic -march=x86-64 -g -O0
REM seed 602353627 -804075884 -475830768 -165903650 732144089 -1825236119 -1123998791 1776879025 1001190171 -1512212648 1320588199 1578851147 570425967 -1503201371 -1005886492 -1582276699 -92760138 -1154887470 656236284 263083237 2129192954 -401178142 829584046 532414236 -197031656 1826832325 -1932362450 163677168 -1287375160 -1760481683 -1769491556 -1098794397 -970938042
REM
CELL 1.54180   50.00000   50.00000   50.00000   90.00000   90.00000   90.00000
LATT -1
SFAC C  
C      1  0.5245800000000  0.4486860000000  0.5259590000000 1.0
C      1  0.4753460000000  0.5519370000000  0.5259590000000 1.0
C      1  0.5245640000000  0.5519570000000  0.4748880000000 1.0
C      1  0.4753850000000  0.4486790000000  0.4748650000000 1.0
C      1  0.5162680000000  0.4868370000000  0.4829620000000 1.0
C      1  0.4836770000000  0.5137960000000  0.4829580000000 1.0
C      1  0.5162530000000  0.5138010000000  0.5178800000000 1.0
C      1  0.4836770000000  0.4868240000000  0.5178700000000 1.0
C      1  0.5171970000000  0.5320260000000  0.4560370000000 1.0
C      1  0.4827610000000  0.4686130000000  0.4560220000000 1.0
C      1  0.5171940000000  0.4686120000000  0.5448060000000 1.0
C      1  0.4827230000000  0.5320070000000  0.5448050000000 1.0
C      1  0.5520760000000  0.4848530000000  0.4614990000000 1.0
C      1  0.4478800000000  0.5157850000000  0.4614790000000 1.0
C      1  0.5520490000000  0.5158040000000  0.5393600000000 1.0
C      1  0.4478700000000  0.4848160000000  0.5393320000000 1.0
C      1  0.5344290000000  0.5268630000000  0.4767630000000 1.0
C      1  0.4655190000000  0.4737710000000  0.4767420000000 1.0
C      1  0.5344330000000  0.4737850000000  0.5240880000000 1.0
C      1  0.4654940000000  0.5268390000000  0.5240780000000 1.0
C      1  0.4907250000000  0.5663070000000  0.5087530000000 1.0
C      1  0.5092090000000  0.4343200000000  0.5087420000000 1.0
C      1  0.4907640000000  0.4343170000000  0.4920780000000 1.0
C      1  0.5091770000000  0.5663140000000  0.4920970000000 1.0
C      1  0.4944600000000  0.5139770000000  0.4544620000000 1.0
C      1  0.5054990000000  0.4866630000000  0.4544620000000 1.0
C      1  0.4944460000000  0.4866490000000  0.5463700000000 1.0
C      1  0.5054710000000  0.5139700000000  0.5463760000000 1.0
C      1  0.4569610000000  0.4995880000000  0.4854340000000 1.0
C      1  0.5429830000000  0.5010450000000  0.4854540000000 1.0
C      1  0.4569540000000  0.5010180000000  0.5153810000000 1.0
C      1  0.5429770000000  0.4996070000000  0.5154010000000 1.0
C      1  0.4669800000000  0.4806010000000  0.5562300000000 1.0
C      1  0.5329320000000  0.5200150000000  0.5562490000000 1.0
C      1  0.4669940000000  0.5200100000000  0.4445900000000 1.0
C      1  0.5329690000000  0.4806320000000  0.4446010000000 1.0
C      1  0.4999690000000  0.5003150000000  0.5004180000000 1.0
END
