TITL C-28428-6703-3 -557.048187770752 125000 -1297.50842170428 0 0 183 (C1) n - 1
REM
REM in /rds/project/t2_vol4/rds-t2-cs072/BORA/CARBON/from-Arr/AIRSS/Generating-Clusters/GAP-ML-2020/Higher-Symm/SD-CG/HFTN-CG/C160-200
REM
REM
REM
REM
REM
REM ./C.cell (6b4489405718ea1b717e0baf1da4c2d9)
REM AIRSS Version 0.9.1 bugfix July 2018 build 013d7b7c2542+ Fri, 06 Jul 2018 19:26:36 +0100
REM compiler GCC version 9.3.0
REM options -cpp -mtune=generic -march=x86-64 -g -O0
REM seed 887024191 917248831 -1407431152 -171879034 -761587999 124825526 -930052678 -1995025857 1237903279 545860068 350025291 -1968043665 1060620519 -618732771 1175804498 -598414470 -1350286696 -1053257103 -20144782 -210857505 -672602349 1983271849 -523652292 -2092729529 442132379 -542091341 -496467026 -639500009 1809526463 -1512886685 -496748583 -625340274 215129586
REM
CELL 1.54180   50.00000   50.00000   50.00000   90.00000   90.00000   90.00000
LATT -1
SFAC C  
C      1  0.4617160000000  0.6137210000000  0.4988730000000 1.0
C      1  0.4677010000000  0.3911350000000  0.5019490000000 1.0
C      1  0.5467960000000  0.6057320000000  0.4924600000000 1.0
C      1  0.5359550000000  0.3930760000000  0.5007200000000 1.0
C      1  0.5149100000000  0.5028420000000  0.5467060000000 1.0
C      1  0.5154330000000  0.4995550000000  0.4442770000000 1.0
C      1  0.4863400000000  0.5026370000000  0.5456490000000 1.0
C      1  0.4842370000000  0.4978890000000  0.4436240000000 1.0
C      1  0.4715420000000  0.4366150000000  0.4329860000000 1.0
C      1  0.4751710000000  0.5669330000000  0.5631510000000 1.0
C      1  0.5257820000000  0.4357250000000  0.4301290000000 1.0
C      1  0.5308790000000  0.5682340000000  0.5671370000000 1.0
C      1  0.4368340000000  0.5626420000000  0.4344530000000 1.0
C      1  0.4413570000000  0.4385600000000  0.5645830000000 1.0
C      1  0.5597690000000  0.5647750000000  0.4388870000000 1.0
C      1  0.5613130000000  0.4387930000000  0.5658290000000 1.0
C      1  0.3956930000000  0.5097630000000  0.4891130000000 1.0
C      1  0.3990210000000  0.4903420000000  0.5101210000000 1.0
C      1  0.6036010000000  0.5085890000000  0.4927170000000 1.0
C      1  0.6051840000000  0.4894660000000  0.5144400000000 1.0
C      1  0.5813150000000  0.5754310000000  0.5333840000000 1.0
C      1  0.5819880000000  0.4092060000000  0.4820360000000 1.0
C      1  0.4284280000000  0.5792230000000  0.5275720000000 1.0
C      1  0.4183110000000  0.4065540000000  0.4823490000000 1.0
C      1  0.5141940000000  0.4918760000000  0.4109180000000 1.0
C      1  0.5148750000000  0.5200210000000  0.6164770000000 1.0
C      1  0.4843200000000  0.4912690000000  0.4106830000000 1.0
C      1  0.4865950000000  0.5204700000000  0.6155730000000 1.0
C      1  0.4893050000000  0.6138120000000  0.5415590000000 1.0
C      1  0.4863780000000  0.3913810000000  0.4546370000000 1.0
C      1  0.5187770000000  0.6115840000000  0.5400810000000 1.0
C      1  0.5155080000000  0.3918620000000  0.4539210000000 1.0
C      1  0.4456440000000  0.4435920000000  0.4856160000000 1.0
C      1  0.4449280000000  0.5406900000000  0.4975250000000 1.0
C      1  0.5551630000000  0.4460460000000  0.4893310000000 1.0
C      1  0.5469380000000  0.5424190000000  0.5091380000000 1.0
C      1  0.4901340000000  0.4642820000000  0.5168120000000 1.0
C      1  0.4863070000000  0.5304010000000  0.4782400000000 1.0
C      1  0.5192910000000  0.4604840000000  0.5194610000000 1.0
C      1  0.5143540000000  0.5384320000000  0.4771660000000 1.0
C      1  0.4235180000000  0.5810790000000  0.4987890000000 1.0
C      1  0.4299690000000  0.4228040000000  0.5038820000000 1.0
C      1  0.5870360000000  0.5769690000000  0.5045780000000 1.0
C      1  0.5732750000000  0.4237920000000  0.5049670000000 1.0
C      1  0.4841270000000  0.5446930000000  0.4287550000000 1.0
C      1  0.4882720000000  0.4604020000000  0.5645740000000 1.0
C      1  0.5147900000000  0.5459460000000  0.4279300000000 1.0
C      1  0.5148890000000  0.4674110000000  0.5681900000000 1.0
C      1  0.5370890000000  0.5840750000000  0.4447290000000 1.0
C      1  0.5388260000000  0.4195810000000  0.5642170000000 1.0
C      1  0.4580790000000  0.5821340000000  0.4388490000000 1.0
C      1  0.4636410000000  0.4193970000000  0.5633590000000 1.0
C      1  0.5303850000000  0.5257150000000  0.5438690000000 1.0
C      1  0.5268900000000  0.4805730000000  0.4629980000000 1.0
C      1  0.4742510000000  0.5229820000000  0.5293550000000 1.0
C      1  0.4738870000000  0.4787920000000  0.4629720000000 1.0
C      1  0.5556550000000  0.4759370000000  0.5345610000000 1.0
C      1  0.5549560000000  0.5274060000000  0.4634200000000 1.0
C      1  0.4478580000000  0.4722160000000  0.5314280000000 1.0
C      1  0.4441020000000  0.5232180000000  0.4576750000000 1.0
C      1  0.4853600000000  0.5640980000000  0.5097940000000 1.0
C      1  0.4724620000000  0.4342080000000  0.4804730000000 1.0
C      1  0.5296820000000  0.5654970000000  0.5161680000000 1.0
C      1  0.5295740000000  0.4337460000000  0.4810080000000 1.0
C      1  0.4840690000000  0.4443170000000  0.4077390000000 1.0
C      1  0.4883860000000  0.5606440000000  0.5889500000000 1.0
C      1  0.5117070000000  0.4449040000000  0.4067920000000 1.0
C      1  0.5158380000000  0.5612820000000  0.5912940000000 1.0
C      1  0.5637620000000  0.4086710000000  0.4617030000000 1.0
C      1  0.5649180000000  0.5986540000000  0.5302830000000 1.0
C      1  0.4394660000000  0.4010100000000  0.4653370000000 1.0
C      1  0.4443940000000  0.5986810000000  0.5362350000000 1.0
C      1  0.4711370000000  0.4976620000000  0.6101540000000 1.0
C      1  0.4680180000000  0.5101810000000  0.3954380000000 1.0
C      1  0.5302340000000  0.4970470000000  0.6116760000000 1.0
C      1  0.5313590000000  0.5106120000000  0.3964380000000 1.0
C      1  0.4312210000000  0.5539170000000  0.5431290000000 1.0
C      1  0.4191900000000  0.4197070000000  0.4578840000000 1.0
C      1  0.5746860000000  0.5521040000000  0.5481430000000 1.0
C      1  0.5700140000000  0.4336140000000  0.4457000000000 1.0
C      1  0.5732890000000  0.6015240000000  0.5011210000000 1.0
C      1  0.5563660000000  0.4025050000000  0.5178250000000 1.0
C      1  0.4402750000000  0.5998190000000  0.4854570000000 1.0
C      1  0.4472940000000  0.4030880000000  0.5176990000000 1.0
C      1  0.4739940000000  0.4553340000000  0.5917870000000 1.0
C      1  0.4679240000000  0.5406180000000  0.4041530000000 1.0
C      1  0.5273450000000  0.4540430000000  0.5923730000000 1.0
C      1  0.5317090000000  0.5404380000000  0.4045700000000 1.0
C      1  0.4737300000000  0.5249150000000  0.4508480000000 1.0
C      1  0.4764190000000  0.4741340000000  0.5403920000000 1.0
C      1  0.5256540000000  0.5283200000000  0.4501160000000 1.0
C      1  0.5274300000000  0.4760410000000  0.5441800000000 1.0
C      1  0.4399160000000  0.5444360000000  0.4129930000000 1.0
C      1  0.4461300000000  0.4578400000000  0.5843340000000 1.0
C      1  0.5585100000000  0.5449180000000  0.4172840000000 1.0
C      1  0.5562670000000  0.4568030000000  0.5866060000000 1.0
C      1  0.6000700000000  0.4641910000000  0.5040730000000 1.0
C      1  0.5961520000000  0.5330950000000  0.5028490000000 1.0
C      1  0.4115430000000  0.4673220000000  0.4996190000000 1.0
C      1  0.4029980000000  0.5340450000000  0.5009260000000 1.0
C      1  0.5175150000000  0.5520650000000  0.5417020000000 1.0
C      1  0.5164770000000  0.4522380000000  0.4601730000000 1.0
C      1  0.4874160000000  0.5509380000000  0.5363270000000 1.0
C      1  0.4852660000000  0.4515710000000  0.4599010000000 1.0
C      1  0.5584800000000  0.5539990000000  0.5722600000000 1.0
C      1  0.5549120000000  0.4442410000000  0.4246440000000 1.0
C      1  0.4471140000000  0.5544880000000  0.5676940000000 1.0
C      1  0.4434350000000  0.4505340000000  0.4316850000000 1.0
C      1  0.5149980000000  0.4732840000000  0.6100980000000 1.0
C      1  0.5141530000000  0.5303330000000  0.3822890000000 1.0
C      1  0.4860730000000  0.4737590000000  0.6095670000000 1.0
C      1  0.4854420000000  0.5305820000000  0.3823160000000 1.0
C      1  0.4711880000000  0.4672070000000  0.4006290000000 1.0
C      1  0.4738070000000  0.5417650000000  0.6026440000000 1.0
C      1  0.5260380000000  0.4676420000000  0.4002780000000 1.0
C      1  0.5290100000000  0.5413230000000  0.6051050000000 1.0
C      1  0.4358100000000  0.4839050000000  0.5779390000000 1.0
C      1  0.4255630000000  0.5192450000000  0.4171220000000 1.0
C      1  0.5669500000000  0.4828550000000  0.5815620000000 1.0
C      1  0.5714180000000  0.5181230000000  0.4224090000000 1.0
C      1  0.5542630000000  0.5040870000000  0.5961970000000 1.0
C      1  0.5578320000000  0.4983450000000  0.4067910000000 1.0
C      1  0.4479020000000  0.5049880000000  0.5929910000000 1.0
C      1  0.4411380000000  0.4990520000000  0.4041460000000 1.0
C      1  0.4897610000000  0.5945390000000  0.5630640000000 1.0
C      1  0.4848480000000  0.4092270000000  0.4317330000000 1.0
C      1  0.5186040000000  0.5950270000000  0.5639460000000 1.0
C      1  0.5131620000000  0.4092180000000  0.4308260000000 1.0
C      1  0.4257280000000  0.4827190000000  0.5499850000000 1.0
C      1  0.4177840000000  0.5173450000000  0.4452730000000 1.0
C      1  0.5791370000000  0.4824130000000  0.5543190000000 1.0
C      1  0.5779990000000  0.5139830000000  0.4507120000000 1.0
C      1  0.4442710000000  0.5344440000000  0.5259430000000 1.0
C      1  0.4272120000000  0.4486800000000  0.4573970000000 1.0
C      1  0.5577130000000  0.5313640000000  0.5327230000000 1.0
C      1  0.5751990000000  0.4516330000000  0.4663100000000 1.0
C      1  0.4800930000000  0.6082310000000  0.4767290000000 1.0
C      1  0.4865250000000  0.3921920000000  0.5238210000000 1.0
C      1  0.5061800000000  0.5958350000000  0.4798680000000 1.0
C      1  0.5151870000000  0.4027530000000  0.5205800000000 1.0
C      1  0.5451350000000  0.4709070000000  0.5054550000000 1.0
C      1  0.5384860000000  0.5226210000000  0.4888410000000 1.0
C      1  0.4439450000000  0.4697720000000  0.5017730000000 1.0
C      1  0.4443750000000  0.5136620000000  0.4842160000000 1.0
C      1  0.4099300000000  0.4705770000000  0.4698180000000 1.0
C      1  0.4144850000000  0.5273910000000  0.5280850000000 1.0
C      1  0.5947360000000  0.4692250000000  0.4747870000000 1.0
C      1  0.5871320000000  0.5269320000000  0.5312400000000 1.0
C      1  0.5954270000000  0.4974210000000  0.4677190000000 1.0
C      1  0.5960600000000  0.5004410000000  0.5387540000000 1.0
C      1  0.4034020000000  0.4980430000000  0.4634030000000 1.0
C      1  0.4083840000000  0.5006190000000  0.5348110000000 1.0
C      1  0.5139800000000  0.4320700000000  0.5068740000000 1.0
C      1  0.5101450000000  0.5673860000000  0.4941640000000 1.0
C      1  0.4851640000000  0.4389700000000  0.5054070000000 1.0
C      1  0.4704060000000  0.5516660000000  0.4899890000000 1.0
C      1  0.5131940000000  0.5754340000000  0.4330940000000 1.0
C      1  0.5168620000000  0.4290050000000  0.5807140000000 1.0
C      1  0.4841890000000  0.5742360000000  0.4326260000000 1.0
C      1  0.4867730000000  0.4320110000000  0.5766490000000 1.0
C      1  0.5530640000000  0.5335040000000  0.5917740000000 1.0
C      1  0.5529970000000  0.4690720000000  0.4093060000000 1.0
C      1  0.4503620000000  0.5342440000000  0.5880510000000 1.0
C      1  0.4450260000000  0.4704590000000  0.4104530000000 1.0
C      1  0.5321650000000  0.6002270000000  0.4686380000000 1.0
C      1  0.5378480000000  0.4040470000000  0.5407630000000 1.0
C      1  0.4572770000000  0.5989620000000  0.4609440000000 1.0
C      1  0.4648830000000  0.4019350000000  0.5413800000000 1.0
C      1  0.4673790000000  0.4012020000000  0.4747000000000 1.0
C      1  0.4646790000000  0.6142640000000  0.5268020000000 1.0
C      1  0.5360480000000  0.4030140000000  0.4728080000000 1.0
C      1  0.5367840000000  0.5987260000000  0.5208010000000 1.0
C      1  0.5894610000000  0.4436330000000  0.5205470000000 1.0
C      1  0.5890400000000  0.5554390000000  0.4863930000000 1.0
C      1  0.4147630000000  0.4429500000000  0.5183320000000 1.0
C      1  0.4195980000000  0.5542150000000  0.4862730000000 1.0
C      1  0.4248630000000  0.5478760000000  0.4566490000000 1.0
C      1  0.4271690000000  0.4519780000000  0.5427050000000 1.0
C      1  0.5722420000000  0.5514100000000  0.4619760000000 1.0
C      1  0.5754580000000  0.4530500000000  0.5441180000000 1.0
C      1  0.5360930000000  0.4920180000000  0.4872550000000 1.0
C      1  0.4610850000000  0.4904240000000  0.4875390000000 1.0
C      1  0.4793240000000  0.5101680000000  0.5003030000000 1.0
END
