TITL C-28401-6694-3 412.759737886033 125000 -1223.7445293871 0 0 178 (C1) n - 1
REM
REM in /rds/project/t2_vol4/rds-t2-cs072/BORA/CARBON/from-Arr/AIRSS/Generating-Clusters/GAP-ML-2020/Higher-Symm/SD-CG/HFTN-CG/C160-200
REM
REM
REM
REM
REM
REM ./C.cell (6b4489405718ea1b717e0baf1da4c2d9)
REM AIRSS Version 0.9.1 bugfix July 2018 build 013d7b7c2542+ Fri, 06 Jul 2018 19:26:36 +0100
REM compiler GCC version 9.3.0
REM options -cpp -mtune=generic -march=x86-64 -g -O0
REM seed 1836474328 1276986415 -1739362346 -1740323075 -868577522 -1729875762 -144505109 -414094272 924179622 -1586812903 1496760361 157653874 -896177022 -1355353173 2066432514 939558808 -1487681123 392412085 1554901470 -1777585440 -1379185789 663255943 752251966 373313216 837197045 -1331296626 -424290956 540393970 -2061689954 -254306801 684124317 189509763 -1963145291
REM
CELL 1.54180   50.00000   50.00000   50.00000   90.00000   90.00000   90.00000
LATT -1
SFAC C  
C      1  0.4164460000000  0.5492100000000  0.4604780000000 1.0
C      1  0.4244440000000  0.4619790000000  0.4601940000000 1.0
C      1  0.4856320000000  0.4198380000000  0.4595240000000 1.0
C      1  0.5538390000000  0.4346070000000  0.4612710000000 1.0
C      1  0.5869070000000  0.5004910000000  0.4594810000000 1.0
C      1  0.5606130000000  0.5703960000000  0.4569480000000 1.0
C      1  0.4871180000000  0.5868640000000  0.4488610000000 1.0
C      1  0.4956860000000  0.5456300000000  0.5435160000000 1.0
C      1  0.4521130000000  0.5139200000000  0.5448540000000 1.0
C      1  0.4695200000000  0.4745530000000  0.5480000000000 1.0
C      1  0.4959690000000  0.4587120000000  0.5459900000000 1.0
C      1  0.5215900000000  0.4725870000000  0.5554580000000 1.0
C      1  0.5317550000000  0.4971400000000  0.5417690000000 1.0
C      1  0.5233740000000  0.5475090000000  0.5401550000000 1.0
C      1  0.4423690000000  0.4610840000000  0.5496480000000 1.0
C      1  0.4927660000000  0.4273030000000  0.5484930000000 1.0
C      1  0.5436700000000  0.4530990000000  0.5494440000000 1.0
C      1  0.5606520000000  0.5049960000000  0.5469940000000 1.0
C      1  0.5396490000000  0.5707870000000  0.5502800000000 1.0
C      1  0.4774600000000  0.5691560000000  0.5501750000000 1.0
C      1  0.4240430000000  0.5222170000000  0.5486990000000 1.0
C      1  0.5080790000000  0.6010970000000  0.5636500000000 1.0
C      1  0.4298830000000  0.5705030000000  0.5567790000000 1.0
C      1  0.4003850000000  0.4811770000000  0.5568170000000 1.0
C      1  0.4449890000000  0.4158780000000  0.5529580000000 1.0
C      1  0.5367140000000  0.4057290000000  0.5577740000000 1.0
C      1  0.5892720000000  0.4657470000000  0.5546310000000 1.0
C      1  0.5835930000000  0.5459760000000  0.5520930000000 1.0
C      1  0.5322150000000  0.5033630000000  0.5936350000000 1.0
C      1  0.5168180000000  0.5290010000000  0.5944860000000 1.0
C      1  0.4869530000000  0.5317600000000  0.5949280000000 1.0
C      1  0.4660440000000  0.5082460000000  0.5902160000000 1.0
C      1  0.4680490000000  0.4763250000000  0.5969770000000 1.0
C      1  0.4935660000000  0.4610020000000  0.5957510000000 1.0
C      1  0.5217220000000  0.4738760000000  0.5875730000000 1.0
C      1  0.5747230000000  0.5475510000000  0.4745090000000 1.0
C      1  0.5109750000000  0.5895450000000  0.4667900000000 1.0
C      1  0.4322390000000  0.5653800000000  0.4810740000000 1.0
C      1  0.4130470000000  0.4814700000000  0.4807660000000 1.0
C      1  0.4593950000000  0.4256210000000  0.4764010000000 1.0
C      1  0.5336860000000  0.4212520000000  0.4813470000000 1.0
C      1  0.5821720000000  0.4760150000000  0.4777770000000 1.0
C      1  0.4550970000000  0.4549580000000  0.4773940000000 1.0
C      1  0.5067660000000  0.4370510000000  0.4769120000000 1.0
C      1  0.5538860000000  0.4652740000000  0.4740060000000 1.0
C      1  0.5615000000000  0.5199530000000  0.4743920000000 1.0
C      1  0.5315370000000  0.5671270000000  0.4720000000000 1.0
C      1  0.4537780000000  0.5430120000000  0.4888740000000 1.0
C      1  0.4392930000000  0.4943890000000  0.4877720000000 1.0
C      1  0.5407050000000  0.5660570000000  0.5017610000000 1.0
C      1  0.4733450000000  0.5549850000000  0.5061990000000 1.0
C      1  0.4406860000000  0.5194660000000  0.5032030000000 1.0
C      1  0.4503530000000  0.4694440000000  0.5028060000000 1.0
C      1  0.4950960000000  0.4368790000000  0.5034200000000 1.0
C      1  0.5438530000000  0.4631800000000  0.5012490000000 1.0
C      1  0.5512130000000  0.5163770000000  0.5031070000000 1.0
C      1  0.3949390000000  0.5043900000000  0.4838240000000 1.0
C      1  0.4311000000000  0.4152340000000  0.4746880000000 1.0
C      1  0.5183060000000  0.3962020000000  0.4863050000000 1.0
C      1  0.5977790000000  0.4501540000000  0.4791580000000 1.0
C      1  0.6045250000000  0.5404250000000  0.4781270000000 1.0
C      1  0.5532420000000  0.6112550000000  0.4849430000000 1.0
C      1  0.4470560000000  0.5911760000000  0.4852040000000 1.0
C      1  0.5278370000000  0.4878810000000  0.3862330000000 1.0
C      1  0.5234410000000  0.5153920000000  0.3904570000000 1.0
C      1  0.4998800000000  0.5309320000000  0.3939570000000 1.0
C      1  0.4736650000000  0.5189080000000  0.3923480000000 1.0
C      1  0.4668910000000  0.4916140000000  0.3993690000000 1.0
C      1  0.4843640000000  0.4663770000000  0.3981810000000 1.0
C      1  0.5104430000000  0.4649000000000  0.3841380000000 1.0
C      1  0.6104580000000  0.5133960000000  0.4712270000000 1.0
C      1  0.5701590000000  0.5941830000000  0.4718890000000 1.0
C      1  0.4713410000000  0.5972180000000  0.4716680000000 1.0
C      1  0.4000050000000  0.5323720000000  0.4783350000000 1.0
C      1  0.4120690000000  0.4357030000000  0.4671570000000 1.0
C      1  0.4933820000000  0.3941680000000  0.4734530000000 1.0
C      1  0.5815700000000  0.4273040000000  0.4711550000000 1.0
C      1  0.5249440000000  0.4429110000000  0.3960890000000 1.0
C      1  0.5488060000000  0.4799300000000  0.4066550000000 1.0
C      1  0.5438440000000  0.5252800000000  0.4087170000000 1.0
C      1  0.5063710000000  0.5533210000000  0.4131160000000 1.0
C      1  0.4529790000000  0.5348410000000  0.4022490000000 1.0
C      1  0.4409270000000  0.4940920000000  0.4191450000000 1.0
C      1  0.4706240000000  0.4401700000000  0.4104470000000 1.0
C      1  0.4730620000000  0.5261680000000  0.4708210000000 1.0
C      1  0.4622960000000  0.4989180000000  0.4688230000000 1.0
C      1  0.4785730000000  0.4731250000000  0.4685520000000 1.0
C      1  0.5078410000000  0.4691690000000  0.4743420000000 1.0
C      1  0.5308090000000  0.4824740000000  0.4594930000000 1.0
C      1  0.5356710000000  0.5142130000000  0.4605470000000 1.0
C      1  0.5187170000000  0.5390550000000  0.4626480000000 1.0
C      1  0.5879620000000  0.4622770000000  0.5248330000000 1.0
C      1  0.5868210000000  0.5407240000000  0.5222300000000 1.0
C      1  0.5137340000000  0.6029830000000  0.5340670000000 1.0
C      1  0.4262040000000  0.5796400000000  0.5284770000000 1.0
C      1  0.3948870000000  0.4787870000000  0.5281830000000 1.0
C      1  0.4415100000000  0.4205500000000  0.5216900000000 1.0
C      1  0.5388600000000  0.4024120000000  0.5294350000000 1.0
C      1  0.4857100000000  0.5323070000000  0.5200910000000 1.0
C      1  0.4643590000000  0.5115680000000  0.5196480000000 1.0
C      1  0.4722220000000  0.4813770000000  0.5181300000000 1.0
C      1  0.4966180000000  0.4628920000000  0.5165170000000 1.0
C      1  0.5181600000000  0.4743480000000  0.5019470000000 1.0
C      1  0.5267400000000  0.4997530000000  0.5124870000000 1.0
C      1  0.5324200000000  0.5409230000000  0.5132380000000 1.0
C      1  0.4157740000000  0.5027450000000  0.5698830000000 1.0
C      1  0.4458430000000  0.4382570000000  0.5699970000000 1.0
C      1  0.5119040000000  0.4189660000000  0.5696780000000 1.0
C      1  0.5657670000000  0.4609370000000  0.5698330000000 1.0
C      1  0.5678310000000  0.5284160000000  0.5672460000000 1.0
C      1  0.5229330000000  0.5786390000000  0.5741270000000 1.0
C      1  0.4544040000000  0.5632870000000  0.5688020000000 1.0
C      1  0.4240070000000  0.4743110000000  0.5704030000000 1.0
C      1  0.4696580000000  0.4223070000000  0.5679260000000 1.0
C      1  0.5378660000000  0.4307400000000  0.5699480000000 1.0
C      1  0.5746700000000  0.4873560000000  0.5676450000000 1.0
C      1  0.5593890000000  0.5561660000000  0.5671600000000 1.0
C      1  0.4927380000000  0.5802720000000  0.5738500000000 1.0
C      1  0.4304380000000  0.5435900000000  0.5686820000000 1.0
C      1  0.5811210000000  0.4184290000000  0.4987050000000 1.0
C      1  0.6140940000000  0.5059620000000  0.4991610000000 1.0
C      1  0.5803260000000  0.5884190000000  0.4981990000000 1.0
C      1  0.4950730000000  0.6027280000000  0.4870120000000 1.0
C      1  0.4001530000000  0.5443400000000  0.5045670000000 1.0
C      1  0.4013090000000  0.4345720000000  0.4946750000000 1.0
C      1  0.4726150000000  0.3874030000000  0.4896440000000 1.0
C      1  0.4352330000000  0.5195450000000  0.5880610000000 1.0
C      1  0.4433780000000  0.4617820000000  0.5899840000000 1.0
C      1  0.4915280000000  0.4324470000000  0.5883640000000 1.0
C      1  0.5450290000000  0.4525560000000  0.5898750000000 1.0
C      1  0.5607070000000  0.5072370000000  0.5872400000000 1.0
C      1  0.5323910000000  0.5540620000000  0.5881590000000 1.0
C      1  0.4769760000000  0.5584380000000  0.5889810000000 1.0
C      1  0.4129830000000  0.5235170000000  0.5205590000000 1.0
C      1  0.4338790000000  0.4520960000000  0.5213430000000 1.0
C      1  0.4933420000000  0.4143340000000  0.5208790000000 1.0
C      1  0.5571210000000  0.4495840000000  0.5223460000000 1.0
C      1  0.5739690000000  0.5116390000000  0.5204250000000 1.0
C      1  0.5393340000000  0.5899100000000  0.5256700000000 1.0
C      1  0.4723930000000  0.5826370000000  0.5227670000000 1.0
C      1  0.4774080000000  0.4718880000000  0.4399020000000 1.0
C      1  0.5020650000000  0.4671120000000  0.4243980000000 1.0
C      1  0.5252350000000  0.4843640000000  0.4298530000000 1.0
C      1  0.5255530000000  0.5134730000000  0.4302000000000 1.0
C      1  0.5043830000000  0.5329860000000  0.4343380000000 1.0
C      1  0.4757890000000  0.5271130000000  0.4402620000000 1.0
C      1  0.4648130000000  0.4986880000000  0.4370310000000 1.0
C      1  0.5905030000000  0.4884680000000  0.5072010000000 1.0
C      1  0.5717290000000  0.5605250000000  0.5015790000000 1.0
C      1  0.4927960000000  0.6014200000000  0.5152480000000 1.0
C      1  0.4146450000000  0.5674430000000  0.5055310000000 1.0
C      1  0.4073400000000  0.4604250000000  0.5080310000000 1.0
C      1  0.4670440000000  0.4127580000000  0.5050530000000 1.0
C      1  0.5530000000000  0.4212930000000  0.5096900000000 1.0
C      1  0.4285490000000  0.5434380000000  0.4353960000000 1.0
C      1  0.4312000000000  0.4682620000000  0.4319550000000 1.0
C      1  0.4882320000000  0.4246690000000  0.4293180000000 1.0
C      1  0.5439090000000  0.4355720000000  0.4332670000000 1.0
C      1  0.5854770000000  0.5027580000000  0.4308680000000 1.0
C      1  0.5558930000000  0.5698000000000  0.4279990000000 1.0
C      1  0.4828060000000  0.5706030000000  0.4259590000000 1.0
C      1  0.5140980000000  0.4373470000000  0.4237070000000 1.0
C      1  0.5502720000000  0.4500410000000  0.4089600000000 1.0
C      1  0.5668840000000  0.5038780000000  0.4117120000000 1.0
C      1  0.5388480000000  0.5546150000000  0.4131310000000 1.0
C      1  0.4592410000000  0.5501450000000  0.4264200000000 1.0
C      1  0.4301420000000  0.5218490000000  0.4158570000000 1.0
C      1  0.4545420000000  0.4530980000000  0.4282460000000 1.0
C      1  0.3940990000000  0.5028470000000  0.5132820000000 1.0
C      1  0.4203650000000  0.4128340000000  0.5015350000000 1.0
C      1  0.5157620000000  0.3958420000000  0.5145730000000 1.0
C      1  0.5991590000000  0.4410030000000  0.5068290000000 1.0
C      1  0.6107590000000  0.5344530000000  0.5062590000000 1.0
C      1  0.5611090000000  0.6056180000000  0.5121750000000 1.0
C      1  0.4467940000000  0.5933930000000  0.5146450000000 1.0
C      1  0.4679750000000  0.4998130000000  0.5625030000000 1.0
C      1  0.5088380000000  0.5234020000000  0.5054770000000 1.0
C      1  0.5004530000000  0.5269840000000  0.4795070000000 1.0
END
