TITL C-28405-6694-3 -2604.60620436698 125000 -1170.89993249783 0 0 166 (C1) n - 1
REM
REM in /rds/project/t2_vol4/rds-t2-cs072/BORA/CARBON/from-Arr/AIRSS/Generating-Clusters/GAP-ML-2020/Higher-Symm/SD-CG/HFTN-CG/C160-200
REM
REM
REM
REM
REM
REM ./C.cell (6b4489405718ea1b717e0baf1da4c2d9)
REM AIRSS Version 0.9.1 bugfix July 2018 build 013d7b7c2542+ Fri, 06 Jul 2018 19:26:36 +0100
REM compiler GCC version 9.3.0
REM options -cpp -mtune=generic -march=x86-64 -g -O0
REM seed 1952743267 -1939447169 1897697643 864269598 132805544 -1870090643 -1605104674 1665274811 163209810 277601795 1036897662 1577897386 1695966309 -1599124871 -691011303 -319594669 1368429002 -1260163732 663387775 -2126560615 -1265901075 -1740846713 49852929 2088088608 -1867471373 -1205066914 -781905274 831991320 -623784798 -391397774 -313559743 -1330037211 806289253
REM
CELL 1.54180   50.00000   50.00000   50.00000   90.00000   90.00000   90.00000
LATT -1
SFAC C  
C      1  0.5689290000000  0.5396280000000  0.5742920000000 1.0
C      1  0.4505090000000  0.5396480000000  0.5886470000000 1.0
C      1  0.4002400000000  0.5396910000000  0.4804590000000 1.0
C      1  0.4875910000000  0.5396680000000  0.3992520000000 1.0
C      1  0.5918870000000  0.5396760000000  0.4572780000000 1.0
C      1  0.4321690000000  0.4974420000000  0.4184990000000 1.0
C      1  0.5565560000000  0.4973400000000  0.4106720000000 1.0
C      1  0.6024220000000  0.4974070000000  0.5261710000000 1.0
C      1  0.5065430000000  0.4972740000000  0.6054950000000 1.0
C      1  0.4014470000000  0.4974310000000  0.5389700000000 1.0
C      1  0.5253150000000  0.5964950000000  0.5013020000000 1.0
C      1  0.5064620000000  0.5964850000000  0.5246380000000 1.0
C      1  0.4784460000000  0.5964930000000  0.5139150000000 1.0
C      1  0.4799860000000  0.5965040000000  0.4839530000000 1.0
C      1  0.5089540000000  0.5965060000000  0.4761550000000 1.0
C      1  0.5510830000000  0.4612810000000  0.5653340000000 1.0
C      1  0.4534040000000  0.4611500000000  0.5687250000000 1.0
C      1  0.4201830000000  0.4610070000000  0.4770700000000 1.0
C      1  0.4967040000000  0.4611510000000  0.4171920000000 1.0
C      1  0.5776880000000  0.4610030000000  0.4719400000000 1.0
C      1  0.5340640000000  0.3853860000000  0.4716440000000 1.0
C      1  0.5237050000000  0.3846970000000  0.5165040000000 1.0
C      1  0.4887960000000  0.3849920000000  0.5391880000000 1.0
C      1  0.4705770000000  0.3843710000000  0.5018000000000 1.0
C      1  0.4856900000000  0.3846750000000  0.4578750000000 1.0
C      1  0.4398690000000  0.5073780000000  0.5106040000000 1.0
C      1  0.4711560000000  0.5074400000000  0.4462330000000 1.0
C      1  0.5420520000000  0.5074870000000  0.4562240000000 1.0
C      1  0.5546030000000  0.5074210000000  0.5266740000000 1.0
C      1  0.4914160000000  0.5073330000000  0.5602240000000 1.0
C      1  0.5223680000000  0.5372470000000  0.5781030000000 1.0
C      1  0.4324710000000  0.5373150000000  0.5455490000000 1.0
C      1  0.4356440000000  0.5373460000000  0.4500170000000 1.0
C      1  0.5275430000000  0.5372910000000  0.4235040000000 1.0
C      1  0.5811290000000  0.5373500000000  0.5027250000000 1.0
C      1  0.4791350000000  0.5465360000000  0.4828340000000 1.0
C      1  0.5097380000000  0.5465380000000  0.4750250000000 1.0
C      1  0.5266370000000  0.5465280000000  0.5017180000000 1.0
C      1  0.5064630000000  0.5465120000000  0.5260110000000 1.0
C      1  0.4771120000000  0.5465230000000  0.5143470000000 1.0
C      1  0.5320260000000  0.4860060000000  0.5677170000000 1.0
C      1  0.4452940000000  0.4860180000000  0.5514690000000 1.0
C      1  0.4339830000000  0.4860260000000  0.4640600000000 1.0
C      1  0.5136190000000  0.4860390000000  0.4262530000000 1.0
C      1  0.5742120000000  0.4860180000000  0.4904630000000 1.0
C      1  0.5321280000000  0.5083590000000  0.5896990000000 1.0
C      1  0.4244160000000  0.5084530000000  0.5583780000000 1.0
C      1  0.4208830000000  0.5084860000000  0.4463470000000 1.0
C      1  0.5264690000000  0.5084340000000  0.4083770000000 1.0
C      1  0.5952150000000  0.5084920000000  0.4970620000000 1.0
C      1  0.4330420000000  0.4363850000000  0.4849610000000 1.0
C      1  0.4933970000000  0.4365410000000  0.4319010000000 1.0
C      1  0.5627060000000  0.4363410000000  0.4734710000000 1.0
C      1  0.5451230000000  0.4367860000000  0.5515340000000 1.0
C      1  0.4647100000000  0.4364170000000  0.5588590000000 1.0
C      1  0.4912240000000  0.5712010000000  0.5653660000000 1.0
C      1  0.4349890000000  0.5712490000000  0.5119990000000 1.0
C      1  0.4683720000000  0.5712460000000  0.4420330000000 1.0
C      1  0.5452310000000  0.5712140000000  0.4521530000000 1.0
C      1  0.5593450000000  0.5712500000000  0.5283930000000 1.0
C      1  0.4707640000000  0.5036060000000  0.5421710000000 1.0
C      1  0.4506550000000  0.5036440000000  0.4853970000000 1.0
C      1  0.4984580000000  0.5036770000000  0.4486970000000 1.0
C      1  0.5481720000000  0.5036600000000  0.4829590000000 1.0
C      1  0.5310170000000  0.5036180000000  0.5406180000000 1.0
C      1  0.5037530000000  0.4793880000000  0.5657400000000 1.0
C      1  0.4383570000000  0.4794690000000  0.5239970000000 1.0
C      1  0.4578830000000  0.4795850000000  0.4488960000000 1.0
C      1  0.5354260000000  0.4796680000000  0.4444350000000 1.0
C      1  0.5637760000000  0.4795600000000  0.5167870000000 1.0
C      1  0.4380580000000  0.5138670000000  0.5867770000000 1.0
C      1  0.3981500000000  0.5138990000000  0.4680410000000 1.0
C      1  0.4986980000000  0.5138610000000  0.3934390000000 1.0
C      1  0.6008900000000  0.5139090000000  0.4661490000000 1.0
C      1  0.5633480000000  0.5138050000000  0.5855000000000 1.0
C      1  0.4988430000000  0.4851890000000  0.4714100000000 1.0
C      1  0.5267230000000  0.4851390000000  0.4904510000000 1.0
C      1  0.5173260000000  0.4852230000000  0.5223620000000 1.0
C      1  0.4837820000000  0.4852150000000  0.5234110000000 1.0
C      1  0.4724890000000  0.4852370000000  0.4919630000000 1.0
C      1  0.5976740000000  0.5124850000000  0.5499590000000 1.0
C      1  0.4824790000000  0.5123970000000  0.6084020000000 1.0
C      1  0.3913060000000  0.5124850000000  0.5169380000000 1.0
C      1  0.4500460000000  0.5124900000000  0.4020550000000 1.0
C      1  0.5776830000000  0.5123950000000  0.4225750000000 1.0
C      1  0.5053230000000  0.5543780000000  0.4149900000000 1.0
C      1  0.5823730000000  0.5544220000000  0.4789620000000 1.0
C      1  0.5453390000000  0.5543370000000  0.5719610000000 1.0
C      1  0.4454310000000  0.5543880000000  0.5655090000000 1.0
C      1  0.4206810000000  0.5544330000000  0.4685000000000 1.0
C      1  0.4637250000000  0.4670550000000  0.5128550000000 1.0
C      1  0.4762380000000  0.4671040000000  0.4695600000000 1.0
C      1  0.5214210000000  0.4672610000000  0.4682950000000 1.0
C      1  0.5367800000000  0.4669450000000  0.5107790000000 1.0
C      1  0.5010220000000  0.4671250000000  0.5381240000000 1.0
C      1  0.4479810000000  0.4703930000000  0.4206290000000 1.0
C      1  0.5593910000000  0.4703510000000  0.4265580000000 1.0
C      1  0.5884100000000  0.4704070000000  0.5337800000000 1.0
C      1  0.4949430000000  0.4703210000000  0.5943920000000 1.0
C      1  0.4083380000000  0.4705040000000  0.5245550000000 1.0
C      1  0.5647060000000  0.4295830000000  0.5280590000000 1.0
C      1  0.4928410000000  0.4291710000000  0.5702550000000 1.0
C      1  0.4305670000000  0.4296250000000  0.5154200000000 1.0
C      1  0.4637840000000  0.4295180000000  0.4395430000000 1.0
C      1  0.5467420000000  0.4293270000000  0.4476200000000 1.0
C      1  0.4773890000000  0.5391110000000  0.5996970000000 1.0
C      1  0.3980330000000  0.5391900000000  0.5094290000000 1.0
C      1  0.4593480000000  0.5391800000000  0.4061110000000 1.0
C      1  0.5766430000000  0.5391300000000  0.4325420000000 1.0
C      1  0.5877570000000  0.5391710000000  0.5521560000000 1.0
C      1  0.5826910000000  0.4719780000000  0.4456370000000 1.0
C      1  0.5776180000000  0.4720510000000  0.5618470000000 1.0
C      1  0.4649200000000  0.4720460000000  0.5928330000000 1.0
C      1  0.4006930000000  0.4720300000000  0.4954370000000 1.0
C      1  0.4732860000000  0.4720340000000  0.4043140000000 1.0
C      1  0.4367910000000  0.5719310000000  0.4835600000000 1.0
C      1  0.4959820000000  0.5718920000000  0.4349580000000 1.0
C      1  0.5604800000000  0.5719040000000  0.4762280000000 1.0
C      1  0.5411600000000  0.5718690000000  0.5503330000000 1.0
C      1  0.4647320000000  0.5718900000000  0.5548610000000 1.0
C      1  0.5014650000000  0.4429270000000  0.5918820000000 1.0
C      1  0.4125980000000  0.4431970000000  0.5303930000000 1.0
C      1  0.4438830000000  0.4431580000000  0.4270240000000 1.0
C      1  0.5528160000000  0.4429630000000  0.4247570000000 1.0
C      1  0.5881160000000  0.4431300000000  0.5261820000000 1.0
C      1  0.4748390000000  0.4977550000000  0.3944370000000 1.0
C      1  0.5925850000000  0.4976750000000  0.4438610000000 1.0
C      1  0.5821050000000  0.4977580000000  0.5706750000000 1.0
C      1  0.4579150000000  0.4977180000000  0.5999850000000 1.0
C      1  0.3917510000000  0.4977340000000  0.4910000000000 1.0
C      1  0.5088830000000  0.6269770000000  0.4763400000000 1.0
C      1  0.5251320000000  0.6269660000000  0.5012990000000 1.0
C      1  0.5064240000000  0.6269560000000  0.5244710000000 1.0
C      1  0.4786070000000  0.6269630000000  0.5138310000000 1.0
C      1  0.4801270000000  0.6269750000000  0.4840880000000 1.0
C      1  0.4608070000000  0.5254810000000  0.4678720000000 1.0
C      1  0.5182790000000  0.5254790000000  0.4530070000000 1.0
C      1  0.5502660000000  0.5254780000000  0.5030900000000 1.0
C      1  0.5124770000000  0.5254200000000  0.5488510000000 1.0
C      1  0.4572260000000  0.5254550000000  0.5271300000000 1.0
C      1  0.5260170000000  0.4386000000000  0.5039030000000 1.0
C      1  0.5041570000000  0.4385950000000  0.5257490000000 1.0
C      1  0.4765290000000  0.4387340000000  0.5121590000000 1.0
C      1  0.4808900000000  0.4388100000000  0.4813920000000 1.0
C      1  0.5116930000000  0.4388500000000  0.4761840000000 1.0
C      1  0.5163170000000  0.4229400000000  0.4500240000000 1.0
C      1  0.5523330000000  0.4222890000000  0.5005260000000 1.0
C      1  0.5161430000000  0.4231580000000  0.5502250000000 1.0
C      1  0.4566770000000  0.4229110000000  0.5307670000000 1.0
C      1  0.4576750000000  0.4223810000000  0.4691200000000 1.0
C      1  0.4173290000000  0.5527860000000  0.5247750000000 1.0
C      1  0.4507400000000  0.5527990000000  0.4291930000000 1.0
C      1  0.5520130000000  0.5527400000000  0.4314360000000 1.0
C      1  0.5811640000000  0.5528110000000  0.5284310000000 1.0
C      1  0.4979350000000  0.5527200000000  0.5860970000000 1.0
C      1  0.4657680000000  0.3934860000000  0.4750620000000 1.0
C      1  0.5116060000000  0.3937040000000  0.4572720000000 1.0
C      1  0.5420680000000  0.3936580000000  0.4964050000000 1.0
C      1  0.5154090000000  0.3949770000000  0.5424910000000 1.0
C      1  0.4644390000000  0.3947570000000  0.5283070000000 1.0
C      1  0.5158540000000  0.5750530000000  0.4571020000000 1.0
C      1  0.5455590000000  0.5750490000000  0.5019770000000 1.0
C      1  0.5120710000000  0.5750230000000  0.5440970000000 1.0
C      1  0.4616660000000  0.5750450000000  0.5252650000000 1.0
C      1  0.4639950000000  0.5750650000000  0.4715010000000 1.0
C      1  0.4965630000000  0.3755360000000  0.5115820000000 1.0
END
