TITL C-28419-6751-3 -35.6032526946746 125000 -1280.44898129631 0 0 186 (C1) n - 1
REM
REM in /rds/project/t2_vol4/rds-t2-cs072/BORA/CARBON/from-Arr/AIRSS/Generating-Clusters/GAP-ML-2020/Higher-Symm/SD-CG/HFTN-CG/C160-200
REM
REM
REM
REM
REM
REM ./C.cell (6b4489405718ea1b717e0baf1da4c2d9)
REM AIRSS Version 0.9.1 bugfix July 2018 build 013d7b7c2542+ Fri, 06 Jul 2018 19:26:36 +0100
REM compiler GCC version 9.3.0
REM options -cpp -mtune=generic -march=x86-64 -g -O0
REM seed -1868568006 -1892689711 -229991662 -225144029 -1065679594 -1009303738 1439132826 -1543263884 -508733648 851017101 -819463800 345089815 -1800685322 -1608853745 525804671 -2036979115 746405462 2147162418 -107459384 -685605519 -1276224499 1649558985 -1642324890 -1173476744 -391904953 1097139532 -138878678 -209413745 -1574884168 649292056 1268785936 -1793057141 -1131591333
REM
CELL 1.54180   50.00000   50.00000   50.00000   90.00000   90.00000   90.00000
LATT -1
SFAC C  
C      1  0.4409190000000  0.4602290000000  0.4218700000000 1.0
C      1  0.4413180000000  0.4118350000000  0.5131640000000 1.0
C      1  0.4405160000000  0.4832920000000  0.5850940000000 1.0
C      1  0.4276400000000  0.5777210000000  0.5399970000000 1.0
C      1  0.4357560000000  0.5643310000000  0.4385130000000 1.0
C      1  0.4349480000000  0.5413410000000  0.4214260000000 1.0
C      1  0.4300930000000  0.5865330000000  0.5124500000000 1.0
C      1  0.4374580000000  0.5112830000000  0.5851580000000 1.0
C      1  0.4398450000000  0.4194420000000  0.5402750000000 1.0
C      1  0.4401450000000  0.4366300000000  0.4371380000000 1.0
C      1  0.5923030000000  0.4768580000000  0.5468270000000 1.0
C      1  0.5877180000000  0.5305550000000  0.5357490000000 1.0
C      1  0.5981400000000  0.5225650000000  0.4871210000000 1.0
C      1  0.5880200000000  0.4842320000000  0.4560090000000 1.0
C      1  0.5930110000000  0.4515360000000  0.4983710000000 1.0
C      1  0.5906510000000  0.5062000000000  0.5504510000000 1.0
C      1  0.5940320000000  0.4559090000000  0.5276200000000 1.0
C      1  0.5886690000000  0.4608270000000  0.4719220000000 1.0
C      1  0.5951080000000  0.5103130000000  0.4636080000000 1.0
C      1  0.5923820000000  0.5387480000000  0.5079220000000 1.0
C      1  0.5557900000000  0.4589410000000  0.4172320000000 1.0
C      1  0.5548720000000  0.3888350000000  0.5251080000000 1.0
C      1  0.5572290000000  0.4967850000000  0.6027140000000 1.0
C      1  0.5619130000000  0.5752420000000  0.5445330000000 1.0
C      1  0.5578000000000  0.5638860000000  0.4294570000000 1.0
C      1  0.5524740000000  0.5379090000000  0.4222250000000 1.0
C      1  0.5676010000000  0.5813700000000  0.5185210000000 1.0
C      1  0.5560490000000  0.5187450000000  0.6183250000000 1.0
C      1  0.5590320000000  0.4086090000000  0.5430440000000 1.0
C      1  0.5559500000000  0.4358470000000  0.4333490000000 1.0
C      1  0.5716630000000  0.5032850000000  0.5756890000000 1.0
C      1  0.5829880000000  0.5653040000000  0.5003470000000 1.0
C      1  0.5793550000000  0.5316490000000  0.4544870000000 1.0
C      1  0.5637890000000  0.4510650000000  0.4578860000000 1.0
C      1  0.5789340000000  0.4291110000000  0.5326740000000 1.0
C      1  0.5730050000000  0.4752720000000  0.5681810000000 1.0
C      1  0.5754070000000  0.4294730000000  0.5045350000000 1.0
C      1  0.5637540000000  0.4776080000000  0.4399050000000 1.0
C      1  0.5775680000000  0.5601500000000  0.4506940000000 1.0
C      1  0.5703910000000  0.5492460000000  0.5487610000000 1.0
C      1  0.4714390000000  0.5548600000000  0.5288440000000 1.0
C      1  0.4772660000000  0.5521640000000  0.4747420000000 1.0
C      1  0.4881130000000  0.4788030000000  0.4462650000000 1.0
C      1  0.4861700000000  0.4430860000000  0.5058960000000 1.0
C      1  0.4857210000000  0.4784850000000  0.5489280000000 1.0
C      1  0.4817180000000  0.4509490000000  0.5342130000000 1.0
C      1  0.4825440000000  0.4534740000000  0.4593360000000 1.0
C      1  0.4847660000000  0.5280330000000  0.4552580000000 1.0
C      1  0.4898910000000  0.5583060000000  0.5034660000000 1.0
C      1  0.4777930000000  0.5295660000000  0.5471340000000 1.0
C      1  0.4539810000000  0.4616030000000  0.5263130000000 1.0
C      1  0.4522640000000  0.5149460000000  0.5419980000000 1.0
C      1  0.4357520000000  0.5324080000000  0.4998850000000 1.0
C      1  0.4566000000000  0.5172020000000  0.4578830000000 1.0
C      1  0.4574790000000  0.4625290000000  0.4717910000000 1.0
C      1  0.4462150000000  0.5386500000000  0.5245550000000 1.0
C      1  0.4565880000000  0.4865020000000  0.5415770000000 1.0
C      1  0.4581310000000  0.4532210000000  0.4987160000000 1.0
C      1  0.4592430000000  0.4883160000000  0.4565610000000 1.0
C      1  0.4491920000000  0.5395930000000  0.4762150000000 1.0
C      1  0.5264680000000  0.5256180000000  0.4900030000000 1.0
C      1  0.5137350000000  0.4901920000000  0.4596690000000 1.0
C      1  0.5089990000000  0.4600900000000  0.5049340000000 1.0
C      1  0.5081440000000  0.4951220000000  0.5403510000000 1.0
C      1  0.5234040000000  0.5431170000000  0.5371630000000 1.0
C      1  0.5243600000000  0.4753410000000  0.4828130000000 1.0
C      1  0.5066710000000  0.5161120000000  0.4695440000000 1.0
C      1  0.5118110000000  0.5398910000000  0.5109800000000 1.0
C      1  0.5014680000000  0.5213070000000  0.5331440000000 1.0
C      1  0.5403500000000  0.4841110000000  0.5241290000000 1.0
C      1  0.4807910000000  0.3825270000000  0.5235790000000 1.0
C      1  0.4825970000000  0.4877920000000  0.6133290000000 1.0
C      1  0.4882180000000  0.6003310000000  0.5409180000000 1.0
C      1  0.4762090000000  0.5792490000000  0.4133350000000 1.0
C      1  0.4808040000000  0.4424190000000  0.3954400000000 1.0
C      1  0.4779990000000  0.6040070000000  0.5140840000000 1.0
C      1  0.4792820000000  0.5152300000000  0.6122410000000 1.0
C      1  0.4808840000000  0.3907040000000  0.5502480000000 1.0
C      1  0.4807600000000  0.4191160000000  0.4111970000000 1.0
C      1  0.4725880000000  0.5563660000000  0.3970880000000 1.0
C      1  0.5068150000000  0.4525490000000  0.4078930000000 1.0
C      1  0.5068710000000  0.3963980000000  0.5168340000000 1.0
C      1  0.5070260000000  0.4880530000000  0.5956130000000 1.0
C      1  0.5168720000000  0.5993780000000  0.5414530000000 1.0
C      1  0.5028830000000  0.5706390000000  0.4250600000000 1.0
C      1  0.4989580000000  0.5455730000000  0.4062280000000 1.0
C      1  0.5233970000000  0.5996320000000  0.5141230000000 1.0
C      1  0.5028070000000  0.5198090000000  0.5924230000000 1.0
C      1  0.5073810000000  0.4063680000000  0.5462840000000 1.0
C      1  0.5069260000000  0.4271730000000  0.4256760000000 1.0
C      1  0.4341640000000  0.4338780000000  0.4941530000000 1.0
C      1  0.4317350000000  0.4730640000000  0.5595490000000 1.0
C      1  0.4228000000000  0.5488770000000  0.5418190000000 1.0
C      1  0.4256670000000  0.5581570000000  0.4650380000000 1.0
C      1  0.4347050000000  0.4850110000000  0.4377210000000 1.0
C      1  0.4191590000000  0.5689330000000  0.4930150000000 1.0
C      1  0.4276550000000  0.5225920000000  0.5596210000000 1.0
C      1  0.4313730000000  0.4478800000000  0.5416010000000 1.0
C      1  0.4329670000000  0.4438210000000  0.4647580000000 1.0
C      1  0.4324790000000  0.5162070000000  0.4375690000000 1.0
C      1  0.5392830000000  0.4448940000000  0.6041330000000 1.0
C      1  0.5429970000000  0.5879550000000  0.5884180000000 1.0
C      1  0.5406340000000  0.6086680000000  0.4334750000000 1.0
C      1  0.5295760000000  0.4829560000000  0.3755870000000 1.0
C      1  0.5352890000000  0.3772920000000  0.4736230000000 1.0
C      1  0.5498810000000  0.5708730000000  0.6060100000000 1.0
C      1  0.5370670000000  0.4233970000000  0.5902870000000 1.0
C      1  0.5357130000000  0.3882780000000  0.4501200000000 1.0
C      1  0.5204940000000  0.5069840000000  0.3711360000000 1.0
C      1  0.5522530000000  0.6147830000000  0.4552040000000 1.0
C      1  0.4576080000000  0.4194080000000  0.5888400000000 1.0
C      1  0.4432990000000  0.5555040000000  0.6040660000000 1.0
C      1  0.4490660000000  0.6145390000000  0.4759630000000 1.0
C      1  0.4473740000000  0.5130790000000  0.3844090000000 1.0
C      1  0.4562170000000  0.3910220000000  0.4512050000000 1.0
C      1  0.4390990000000  0.5746920000000  0.5882230000000 1.0
C      1  0.4588400000000  0.4404000000000  0.6028750000000 1.0
C      1  0.4566730000000  0.3833800000000  0.4752280000000 1.0
C      1  0.4508140000000  0.4880070000000  0.3839250000000 1.0
C      1  0.4517830000000  0.6093100000000  0.4515380000000 1.0
C      1  0.5342660000000  0.3886610000000  0.5036000000000 1.0
C      1  0.5366330000000  0.4745420000000  0.5969280000000 1.0
C      1  0.5355260000000  0.5831130000000  0.5595150000000 1.0
C      1  0.5318670000000  0.5791600000000  0.4337340000000 1.0
C      1  0.5325440000000  0.4694500000000  0.4018850000000 1.0
C      1  0.5488130000000  0.5961630000000  0.5040760000000 1.0
C      1  0.5473240000000  0.5427070000000  0.6067890000000 1.0
C      1  0.5354840000000  0.4174970000000  0.5600030000000 1.0
C      1  0.5333470000000  0.4172600000000  0.4394760000000 1.0
C      1  0.5202100000000  0.5312510000000  0.3855750000000 1.0
C      1  0.5278350000000  0.4245930000000  0.4693480000000 1.0
C      1  0.5295820000000  0.4471060000000  0.5541080000000 1.0
C      1  0.5284920000000  0.5347790000000  0.5835240000000 1.0
C      1  0.5532150000000  0.5920130000000  0.4756770000000 1.0
C      1  0.5398270000000  0.5226010000000  0.4040440000000 1.0
C      1  0.5303510000000  0.5738010000000  0.4638940000000 1.0
C      1  0.5186220000000  0.5574560000000  0.5636730000000 1.0
C      1  0.5439150000000  0.4690840000000  0.5679080000000 1.0
C      1  0.5432160000000  0.4133250000000  0.4915320000000 1.0
C      1  0.5288860000000  0.4974700000000  0.4158380000000 1.0
C      1  0.4510450000000  0.6057840000000  0.5030870000000 1.0
C      1  0.4489760000000  0.5388130000000  0.3965980000000 1.0
C      1  0.4612660000000  0.4152510000000  0.4353260000000 1.0
C      1  0.4616450000000  0.4118720000000  0.5606380000000 1.0
C      1  0.4570610000000  0.5295760000000  0.5976650000000 1.0
C      1  0.4628690000000  0.3947310000000  0.5019810000000 1.0
C      1  0.4608810000000  0.4662980000000  0.4011360000000 1.0
C      1  0.4585400000000  0.5842030000000  0.4375350000000 1.0
C      1  0.4457590000000  0.5824880000000  0.5620340000000 1.0
C      1  0.4648220000000  0.4691020000000  0.5972180000000 1.0
C      1  0.4874990000000  0.4273810000000  0.4497850000000 1.0
C      1  0.4883370000000  0.4293880000000  0.5532630000000 1.0
C      1  0.4816900000000  0.5362190000000  0.5769840000000 1.0
C      1  0.4995970000000  0.5903590000000  0.4988350000000 1.0
C      1  0.4925110000000  0.5246920000000  0.4258870000000 1.0
C      1  0.4855000000000  0.5736710000000  0.4545810000000 1.0
C      1  0.4742210000000  0.5787330000000  0.5540060000000 1.0
C      1  0.4907300000000  0.4705170000000  0.5770340000000 1.0
C      1  0.4899420000000  0.4143320000000  0.4982290000000 1.0
C      1  0.4879770000000  0.4753360000000  0.4173700000000 1.0
C      1  0.4101930000000  0.4844210000000  0.4559490000000 1.0
C      1  0.4093870000000  0.4516530000000  0.4994040000000 1.0
C      1  0.4076870000000  0.4831570000000  0.5437340000000 1.0
C      1  0.4002940000000  0.5343390000000  0.5273260000000 1.0
C      1  0.4034670000000  0.5360390000000  0.4696560000000 1.0
C      1  0.4074070000000  0.5133500000000  0.4551340000000 1.0
C      1  0.4067410000000  0.5417710000000  0.4995350000000 1.0
C      1  0.4048550000000  0.5108110000000  0.5435380000000 1.0
C      1  0.4075690000000  0.4591580000000  0.5260720000000 1.0
C      1  0.4092630000000  0.4612780000000  0.4715280000000 1.0
C      1  0.5771870000000  0.5748150000000  0.4743590000000 1.0
C      1  0.5509790000000  0.5248930000000  0.4482040000000 1.0
C      1  0.5410470000000  0.4518000000000  0.4763840000000 1.0
C      1  0.5318340000000  0.4555940000000  0.5233670000000 1.0
C      1  0.5457370000000  0.5154500000000  0.5654560000000 1.0
C      1  0.5480210000000  0.4390890000000  0.5029830000000 1.0
C      1  0.5404350000000  0.4967470000000  0.4430720000000 1.0
C      1  0.5363690000000  0.5417860000000  0.4686750000000 1.0
C      1  0.5488370000000  0.5322790000000  0.5432270000000 1.0
C      1  0.5336210000000  0.4918970000000  0.5521510000000 1.0
C      1  0.5006370000000  0.4166720000000  0.4722880000000 1.0
C      1  0.5037910000000  0.4468290000000  0.5690100000000 1.0
C      1  0.4913940000000  0.5627140000000  0.5713030000000 1.0
C      1  0.5049120000000  0.5866650000000  0.4707440000000 1.0
C      1  0.4997120000000  0.5004850000000  0.4148280000000 1.0
C      1  0.5390640000000  0.4970390000000  0.4979770000000 1.0
END
