TITL C-28419-6751-4 -13.8686645981269 125000 -1294.37863004582 0 0 182 (C3) n - 1
REM
REM in /rds/project/t2_vol4/rds-t2-cs072/BORA/CARBON/from-Arr/AIRSS/Generating-Clusters/GAP-ML-2020/Higher-Symm/SD-CG/HFTN-CG/C160-200
REM
REM
REM
REM
REM
REM ./C.cell (6b4489405718ea1b717e0baf1da4c2d9)
REM AIRSS Version 0.9.1 bugfix July 2018 build 013d7b7c2542+ Fri, 06 Jul 2018 19:26:36 +0100
REM compiler GCC version 9.3.0
REM options -cpp -mtune=generic -march=x86-64 -g -O0
REM seed 991148692 -603976316 96463258 -347948747 -1184892059 -1369933646 -1501087318 240899298 400820649 1200031700 -341726000 -1603952607 -1428629559 -1781123079 -594880820 612737991 265572681 1052331729 1262154602 -198495726 -914069935 1511776116 -1598644455 1172300786 80996766 1986898121 104877250 -662315934 -1123648155 -1985765278 -201789174 1095911316 -237107513
REM
CELL 1.54180   50.00000   50.00000   50.00000   90.00000   90.00000   90.00000
LATT -1
SFAC C  
C      1  0.4735710000000  0.4925290000000  0.6034240000000 1.0
C      1  0.5068580000000  0.5267910000000  0.6034240000000 1.0
C      1  0.5198870000000  0.4808330000000  0.6034250000000 1.0
C      1  0.4444410000000  0.4791060000000  0.4322640000000 1.0
C      1  0.5098040000000  0.5587320000000  0.4322650000000 1.0
C      1  0.5460810000000  0.4623130000000  0.4322660000000 1.0
C      1  0.4899050000000  0.4751820000000  0.5577890000000 1.0
C      1  0.4836700000000  0.5213190000000  0.5577890000000 1.0
C      1  0.5267440000000  0.5036510000000  0.5577900000000 1.0
C      1  0.4513700000000  0.5630280000000  0.5848460000000 1.0
C      1  0.5790140000000  0.5107690000000  0.5848480000000 1.0
C      1  0.4699340000000  0.4263550000000  0.5848460000000 1.0
C      1  0.4114480000000  0.5422540000000  0.5137300000000 1.0
C      1  0.5809860000000  0.5557300000000  0.5137340000000 1.0
C      1  0.5078880000000  0.4021680000000  0.5137330000000 1.0
C      1  0.5683530000000  0.5375350000000  0.5840110000000 1.0
C      1  0.4984450000000  0.4222050000000  0.5840100000000 1.0
C      1  0.4335200000000  0.5404120000000  0.5840080000000 1.0
C      1  0.4617110000000  0.4176550000000  0.4243510000000 1.0
C      1  0.4479510000000  0.5745010000000  0.4243510000000 1.0
C      1  0.5906640000000  0.5079950000000  0.4243540000000 1.0
C      1  0.4000750000000  0.4521940000000  0.5180130000000 1.0
C      1  0.5086780000000  0.6106100000000  0.5180150000000 1.0
C      1  0.5915690000000  0.4373490000000  0.5180170000000 1.0
C      1  0.5350320000000  0.5567050000000  0.4843740000000 1.0
C      1  0.5317100000000  0.4414780000000  0.4843740000000 1.0
C      1  0.4335820000000  0.5019690000000  0.4843720000000 1.0
C      1  0.4721550000000  0.5772130000000  0.4099990000000 1.0
C      1  0.5809110000000  0.4856780000000  0.4100020000000 1.0
C      1  0.4472610000000  0.4372600000000  0.4099990000000 1.0
C      1  0.4583920000000  0.5547080000000  0.4940280000000 1.0
C      1  0.5683010000000  0.5088490000000  0.4940300000000 1.0
C      1  0.4736310000000  0.4365950000000  0.4940280000000 1.0
C      1  0.4888370000000  0.5851910000000  0.4334570000000 1.0
C      1  0.5794790000000  0.4672410000000  0.4334590000000 1.0
C      1  0.4320100000000  0.4477180000000  0.4334570000000 1.0
C      1  0.4540700000000  0.4185280000000  0.5631740000000 1.0
C      1  0.4525230000000  0.5806810000000  0.5631730000000 1.0
C      1  0.5937250000000  0.5009440000000  0.5631760000000 1.0
C      1  0.4006670000000  0.4405610000000  0.4914940000000 1.0
C      1  0.4983090000000  0.6159130000000  0.4914950000000 1.0
C      1  0.6013470000000  0.4436770000000  0.4914970000000 1.0
C      1  0.4170340000000  0.5534290000000  0.5395420000000 1.0
C      1  0.5878700000000  0.5453050000000  0.5395460000000 1.0
C      1  0.4954160000000  0.4014180000000  0.5395440000000 1.0
C      1  0.4806590000000  0.5896550000000  0.5599550000000 1.0
C      1  0.5874300000000  0.4720910000000  0.5599570000000 1.0
C      1  0.4322300000000  0.4384070000000  0.5599550000000 1.0
C      1  0.5560790000000  0.4895600000000  0.3957830000000 1.0
C      1  0.4630400000000  0.4568240000000  0.3957810000000 1.0
C      1  0.4812090000000  0.5537660000000  0.3957810000000 1.0
C      1  0.4732600000000  0.5051390000000  0.4999240000000 1.0
C      1  0.5179380000000  0.5207570000000  0.4999240000000 1.0
C      1  0.5091250000000  0.4742560000000  0.4999240000000 1.0
C      1  0.4614840000000  0.5808860000000  0.4500370000000 1.0
C      1  0.5894260000000  0.4930830000000  0.4500400000000 1.0
C      1  0.4494160000000  0.4261830000000  0.4500370000000 1.0
C      1  0.5412380000000  0.4187470000000  0.4674880000000 1.0
C      1  0.4091320000000  0.5050830000000  0.4674850000000 1.0
C      1  0.5499540000000  0.5763220000000  0.4674880000000 1.0
C      1  0.6011550000000  0.5200680000000  0.5427310000000 1.0
C      1  0.4669180000000  0.4025310000000  0.5427290000000 1.0
C      1  0.4322470000000  0.5775520000000  0.5427270000000 1.0
C      1  0.4630420000000  0.6036770000000  0.5173670000000 1.0
C      1  0.6083820000000  0.4803370000000  0.5173700000000 1.0
C      1  0.4288970000000  0.4161390000000  0.5173670000000 1.0
C      1  0.4896330000000  0.4132560000000  0.4254270000000 1.0
C      1  0.4301810000000  0.5525200000000  0.4254260000000 1.0
C      1  0.5805130000000  0.5343750000000  0.4254280000000 1.0
C      1  0.4190510000000  0.5063980000000  0.5554480000000 1.0
C      1  0.5461310000000  0.5670740000000  0.5554500000000 1.0
C      1  0.5351370000000  0.4266810000000  0.5554510000000 1.0
C      1  0.5374080000000  0.4695210000000  0.4034740000000 1.0
C      1  0.4550210000000  0.4830140000000  0.4034720000000 1.0
C      1  0.5078990000000  0.5476160000000  0.4034730000000 1.0
C      1  0.3969170000000  0.4810990000000  0.5145100000000 1.0
C      1  0.5352900000000  0.5988920000000  0.5145120000000 1.0
C      1  0.5681150000000  0.4201610000000  0.5145140000000 1.0
C      1  0.5867320000000  0.4291730000000  0.4717820000000 1.0
C      1  0.3954150000000  0.4604710000000  0.4717780000000 1.0
C      1  0.5181780000000  0.6105080000000  0.4717800000000 1.0
C      1  0.4396030000000  0.5160210000000  0.5959460000000 1.0
C      1  0.5441880000000  0.5444630000000  0.5959480000000 1.0
C      1  0.5165270000000  0.4396680000000  0.5959470000000 1.0
C      1  0.4717200000000  0.5295710000000  0.4531730000000 1.0
C      1  0.5398680000000  0.5098750000000  0.4531740000000 1.0
C      1  0.4887370000000  0.4607050000000  0.4531730000000 1.0
C      1  0.4193920000000  0.5345060000000  0.5602070000000 1.0
C      1  0.5703030000000  0.5527240000000  0.5602090000000 1.0
C      1  0.5106240000000  0.4129220000000  0.5602090000000 1.0
C      1  0.5308430000000  0.5783220000000  0.4434000000000 1.0
C      1  0.5525260000000  0.4342970000000  0.4434010000000 1.0
C      1  0.4169560000000  0.4875320000000  0.4433980000000 1.0
C      1  0.4801330000000  0.4644690000000  0.5331060000000 1.0
C      1  0.4792790000000  0.5351390000000  0.5331060000000 1.0
C      1  0.5409080000000  0.5005440000000  0.5331070000000 1.0
C      1  0.5244600000000  0.5581680000000  0.5741200000000 1.0
C      1  0.5382600000000  0.4499010000000  0.5741200000000 1.0
C      1  0.4375980000000  0.4920840000000  0.5741180000000 1.0
C      1  0.5971470000000  0.4607900000000  0.5353670000000 1.0
C      1  0.4175860000000  0.4356420000000  0.5353640000000 1.0
C      1  0.4855870000000  0.6037200000000  0.5353650000000 1.0
C      1  0.5434240000000  0.4234190000000  0.5287640000000 1.0
C      1  0.4120840000000  0.5008530000000  0.5287610000000 1.0
C      1  0.5448130000000  0.5758800000000  0.5287640000000 1.0
C      1  0.4089750000000  0.5482510000000  0.4411050000000 1.0
C      1  0.5874180000000  0.5548740000000  0.4411080000000 1.0
C      1  0.5039320000000  0.3970270000000  0.4411070000000 1.0
C      1  0.5650050000000  0.4654280000000  0.5782780000000 1.0
C      1  0.4376730000000  0.4611580000000  0.5782750000000 1.0
C      1  0.4976410000000  0.5735660000000  0.5782760000000 1.0
C      1  0.6083730000000  0.5086710000000  0.5183930000000 1.0
C      1  0.4534400000000  0.4019800000000  0.5183900000000 1.0
C      1  0.4385090000000  0.5895010000000  0.5183890000000 1.0
C      1  0.4628090000000  0.5052330000000  0.4706060000000 1.0
C      1  0.5232460000000  0.5297610000000  0.4706070000000 1.0
C      1  0.5142690000000  0.4651570000000  0.4706070000000 1.0
C      1  0.5332890000000  0.5240480000000  0.6119210000000 1.0
C      1  0.5042960000000  0.4593150000000  0.6119210000000 1.0
C      1  0.4627310000000  0.5167900000000  0.6119200000000 1.0
C      1  0.4256940000000  0.4251100000000  0.4904380000000 1.0
C      1  0.4724140000000  0.6019650000000  0.4904390000000 1.0
C      1  0.6022150000000  0.4730770000000  0.4904420000000 1.0
C      1  0.5104280000000  0.4735740000000  0.3946860000000 1.0
C      1  0.4720210000000  0.5043520000000  0.3946850000000 1.0
C      1  0.5178790000000  0.5222240000000  0.3946860000000 1.0
C      1  0.4763030000000  0.4658050000000  0.6106470000000 1.0
C      1  0.4823480000000  0.5377870000000  0.6106470000000 1.0
C      1  0.5416640000000  0.4965610000000  0.6106480000000 1.0
C      1  0.5005640000000  0.5362600000000  0.4517260000000 1.0
C      1  0.5312390000000  0.4815510000000  0.4517270000000 1.0
C      1  0.4685220000000  0.4823410000000  0.4517260000000 1.0
C      1  0.4911870000000  0.4540730000000  0.4004590000000 1.0
C      1  0.4647530000000  0.5307660000000  0.4004590000000 1.0
C      1  0.5443880000000  0.5153120000000  0.4004600000000 1.0
C      1  0.6073300000000  0.4958270000000  0.4735510000000 1.0
C      1  0.4428390000000  0.4093050000000  0.4735480000000 1.0
C      1  0.4501540000000  0.5950200000000  0.4735470000000 1.0
C      1  0.5516500000000  0.5527990000000  0.5108530000000 1.0
C      1  0.5200170000000  0.4290390000000  0.5108530000000 1.0
C      1  0.4286550000000  0.5183140000000  0.5108510000000 1.0
C      1  0.4350050000000  0.5756060000000  0.4922730000000 1.0
C      1  0.5980920000000  0.5186540000000  0.4922760000000 1.0
C      1  0.4672260000000  0.4058920000000  0.4922740000000 1.0
C      1  0.5461930000000  0.5203440000000  0.5120240000000 1.0
C      1  0.4946390000000  0.4499920000000  0.5120230000000 1.0
C      1  0.4594900000000  0.5298160000000  0.5120230000000 1.0
C      1  0.5692200000000  0.4798440000000  0.4885740000000 1.0
C      1  0.4480520000000  0.4503010000000  0.4885720000000 1.0
C      1  0.4830510000000  0.5700070000000  0.4885720000000 1.0
C      1  0.5040810000000  0.5422050000000  0.5175770000000 1.0
C      1  0.5346270000000  0.4755320000000  0.5175770000000 1.0
C      1  0.4616130000000  0.4824140000000  0.5175760000000 1.0
C      1  0.5640580000000  0.4890420000000  0.5954910000000 1.0
C      1  0.4585960000000  0.4501710000000  0.5954890000000 1.0
C      1  0.4776640000000  0.5609390000000  0.5954890000000 1.0
C      1  0.5404940000000  0.5994260000000  0.4849170000000 1.0
C      1  0.5659760000000  0.4153880000000  0.4849180000000 1.0
C      1  0.3938530000000  0.4853380000000  0.4849150000000 1.0
C      1  0.5176020000000  0.4780930000000  0.5694080000000 1.0
C      1  0.4723420000000  0.4958780000000  0.5694070000000 1.0
C      1  0.5103750000000  0.5261810000000  0.5694070000000 1.0
C      1  0.4965610000000  0.3960480000000  0.4886380000000 1.0
C      1  0.4118120000000  0.5551230000000  0.4886360000000 1.0
C      1  0.5919500000000  0.5489800000000  0.4886400000000 1.0
C      1  0.4680780000000  0.5551360000000  0.4660900000000 1.0
C      1  0.5638290000000  0.5002470000000  0.4660920000000 1.0
C      1  0.4684180000000  0.4447690000000  0.4660900000000 1.0
C      1  0.4944750000000  0.4421620000000  0.4257300000000 1.0
C      1  0.4527930000000  0.5338740000000  0.4257290000000 1.0
C      1  0.5530590000000  0.5241150000000  0.4257310000000 1.0
C      1  0.4078510000000  0.4612960000000  0.4458890000000 1.0
C      1  0.5126750000000  0.5993250000000  0.4458900000000 1.0
C      1  0.5797990000000  0.4395310000000  0.4458920000000 1.0
C      1  0.4421570000000  0.4753140000000  0.4990850000000 1.0
C      1  0.5076600000000  0.5626060000000  0.4990860000000 1.0
C      1  0.5505060000000  0.4622320000000  0.4990880000000 1.0
C      1  0.4060080000000  0.5368470000000  0.4656800000000 1.0
C      1  0.5790250000000  0.5631450000000  0.4656830000000 1.0
C      1  0.5152910000000  0.4001590000000  0.4656820000000 1.0
C      1  0.5001070000000  0.5000510000000  0.5033730000000 1.0
C      1  0.5001100000000  0.5000500000000  0.3907830000000 1.0
END
