TITL C-28432-6752-3 783.844147753696 125000 -1234.29828280165 0 0 181 (Cs) n - 1
REM
REM in /rds/project/t2_vol4/rds-t2-cs072/BORA/CARBON/from-Arr/AIRSS/Generating-Clusters/GAP-ML-2020/Higher-Symm/SD-CG/HFTN-CG/C160-200
REM
REM
REM
REM
REM
REM ./C.cell (6b4489405718ea1b717e0baf1da4c2d9)
REM AIRSS Version 0.9.1 bugfix July 2018 build 013d7b7c2542+ Fri, 06 Jul 2018 19:26:36 +0100
REM compiler GCC version 9.3.0
REM options -cpp -mtune=generic -march=x86-64 -g -O0
REM seed -2051338721 572756976 1043402890 1475448386 846839215 -2057529087 1874124714 -1329214200 1650708331 -177138348 1437195880 1362737040 1599241105 -211960174 1711473494 2062972753 -709587804 1052785519 1529008303 1944215863 -198616347 824643561 -493553088 -115539495 -516483888 1065328027 -2065697166 448556874 526226531 1304846499 -20753898 1227473289 1197914997
REM
CELL 1.54180   50.00000   50.00000   50.00000   90.00000   90.00000   90.00000
LATT -1
SFAC C  
C      1  0.4665090000000  0.5707240000000  0.5017640000000 1.0
C      1  0.4674620000000  0.5255690000000  0.4323120000000 1.0
C      1  0.4658660000000  0.4399350000000  0.4542800000000 1.0
C      1  0.4668080000000  0.4398950000000  0.5406470000000 1.0
C      1  0.4665610000000  0.5191190000000  0.5661070000000 1.0
C      1  0.5337370000000  0.5707240000000  0.5017660000000 1.0
C      1  0.5327890000000  0.5255690000000  0.4323150000000 1.0
C      1  0.5343830000000  0.4399350000000  0.4542830000000 1.0
C      1  0.5334360000000  0.4398950000000  0.5406490000000 1.0
C      1  0.5336800000000  0.5191200000000  0.5661100000000 1.0
C      1  0.5832230000000  0.4581160000000  0.5485050000000 1.0
C      1  0.5823030000000  0.5329120000000  0.5546600000000 1.0
C      1  0.5824190000000  0.5620480000000  0.4858170000000 1.0
C      1  0.5818930000000  0.5056630000000  0.4373860000000 1.0
C      1  0.5829140000000  0.4414150000000  0.4760720000000 1.0
C      1  0.4170200000000  0.4581160000000  0.5484980000000 1.0
C      1  0.4179400000000  0.5329110000000  0.5546540000000 1.0
C      1  0.4178280000000  0.5620480000000  0.4858110000000 1.0
C      1  0.4183580000000  0.5056630000000  0.4373790000000 1.0
C      1  0.4173350000000  0.4414150000000  0.4760650000000 1.0
C      1  0.4248400000000  0.4968190000000  0.5922520000000 1.0
C      1  0.4249500000000  0.5862110000000  0.5322310000000 1.0
C      1  0.4245700000000  0.5571910000000  0.4280110000000 1.0
C      1  0.4241890000000  0.4487020000000  0.4238990000000 1.0
C      1  0.4241990000000  0.4114760000000  0.5263060000000 1.0
C      1  0.5754000000000  0.4968190000000  0.5922580000000 1.0
C      1  0.5752940000000  0.5862110000000  0.5322360000000 1.0
C      1  0.5756820000000  0.5571910000000  0.4280160000000 1.0
C      1  0.5760630000000  0.4487010000000  0.4239050000000 1.0
C      1  0.5760450000000  0.4114760000000  0.5263120000000 1.0
C      1  0.4684400000000  0.5151360000000  0.5959470000000 1.0
C      1  0.4680340000000  0.5970210000000  0.5155280000000 1.0
C      1  0.4686380000000  0.5470930000000  0.4116930000000 1.0
C      1  0.4682730000000  0.4286490000000  0.4266290000000 1.0
C      1  0.4685810000000  0.4103500000000  0.5443740000000 1.0
C      1  0.5317990000000  0.5151360000000  0.5959490000000 1.0
C      1  0.5322110000000  0.5970210000000  0.5155300000000 1.0
C      1  0.5316150000000  0.5470930000000  0.4116950000000 1.0
C      1  0.5319780000000  0.4286490000000  0.4266310000000 1.0
C      1  0.5316620000000  0.4103500000000  0.5443760000000 1.0
C      1  0.4417220000000  0.4271050000000  0.4240210000000 1.0
C      1  0.4422500000000  0.4045860000000  0.5461850000000 1.0
C      1  0.4426810000000  0.5141930000000  0.6046850000000 1.0
C      1  0.4421330000000  0.6039590000000  0.5197190000000 1.0
C      1  0.4421810000000  0.5503880000000  0.4076760000000 1.0
C      1  0.5585300000000  0.4271050000000  0.4240260000000 1.0
C      1  0.5579930000000  0.4045860000000  0.5461900000000 1.0
C      1  0.5575570000000  0.5141930000000  0.6046890000000 1.0
C      1  0.5581120000000  0.6039590000000  0.5197230000000 1.0
C      1  0.5580720000000  0.5503870000000  0.4076800000000 1.0
C      1  0.5338830000000  0.5008210000000  0.4163980000000 1.0
C      1  0.5361550000000  0.4178160000000  0.4730930000000 1.0
C      1  0.5350660000000  0.4490890000000  0.5681360000000 1.0
C      1  0.5342430000000  0.5481100000000  0.5685880000000 1.0
C      1  0.5351270000000  0.5821280000000  0.4749710000000 1.0
C      1  0.4663690000000  0.5008210000000  0.4163960000000 1.0
C      1  0.4640940000000  0.4178160000000  0.4730900000000 1.0
C      1  0.4651750000000  0.4490890000000  0.5681340000000 1.0
C      1  0.4659980000000  0.5481100000000  0.5685860000000 1.0
C      1  0.4651210000000  0.5821280000000  0.4749690000000 1.0
C      1  0.5579030000000  0.5720760000000  0.4441150000000 1.0
C      1  0.5575600000000  0.4685890000000  0.4158480000000 1.0
C      1  0.5583530000000  0.4093830000000  0.5045110000000 1.0
C      1  0.5578600000000  0.4753520000000  0.5869320000000 1.0
C      1  0.5571000000000  0.5749980000000  0.5506030000000 1.0
C      1  0.4423480000000  0.5720760000000  0.4441110000000 1.0
C      1  0.4426930000000  0.4685890000000  0.4158440000000 1.0
C      1  0.4418940000000  0.4093830000000  0.5045070000000 1.0
C      1  0.4423800000000  0.4753520000000  0.5869270000000 1.0
C      1  0.4431420000000  0.5749980000000  0.5505990000000 1.0
C      1  0.3851310000000  0.5224940000000  0.4851710000000 1.0
C      1  0.3855540000000  0.4925820000000  0.4750670000000 1.0
C      1  0.3851070000000  0.4733180000000  0.5000760000000 1.0
C      1  0.3846970000000  0.4913190000000  0.5263500000000 1.0
C      1  0.3847890000000  0.5220040000000  0.5171550000000 1.0
C      1  0.6151160000000  0.5224940000000  0.4851790000000 1.0
C      1  0.6146940000000  0.4925820000000  0.4750750000000 1.0
C      1  0.6151390000000  0.4733180000000  0.5000850000000 1.0
C      1  0.6155470000000  0.4913190000000  0.5263590000000 1.0
C      1  0.6154560000000  0.5220040000000  0.5171640000000 1.0
C      1  0.4351870000000  0.4188190000000  0.4791610000000 1.0
C      1  0.4358960000000  0.4539930000000  0.5701970000000 1.0
C      1  0.4368480000000  0.5520580000000  0.5653160000000 1.0
C      1  0.4361430000000  0.5786940000000  0.4705630000000 1.0
C      1  0.4370710000000  0.4959070000000  0.4175100000000 1.0
C      1  0.5650610000000  0.4188190000000  0.4791660000000 1.0
C      1  0.5643450000000  0.4539930000000  0.5702020000000 1.0
C      1  0.5633940000000  0.5520580000000  0.5653200000000 1.0
C      1  0.5641050000000  0.5786940000000  0.4705680000000 1.0
C      1  0.5631820000000  0.4959070000000  0.4175150000000 1.0
C      1  0.5981290000000  0.4487480000000  0.4998000000000 1.0
C      1  0.5985040000000  0.4830560000000  0.5493160000000 1.0
C      1  0.5983740000000  0.5415570000000  0.5317570000000 1.0
C      1  0.5980820000000  0.5425340000000  0.4707970000000 1.0
C      1  0.5975430000000  0.4853080000000  0.4514400000000 1.0
C      1  0.4021170000000  0.4487480000000  0.4997920000000 1.0
C      1  0.4017390000000  0.4830560000000  0.5493090000000 1.0
C      1  0.4018700000000  0.5415570000000  0.5317500000000 1.0
C      1  0.4021660000000  0.5425340000000  0.4707900000000 1.0
C      1  0.4027070000000  0.4853080000000  0.4514330000000 1.0
C      1  0.5528230000000  0.4773960000000  0.5117110000000 1.0
C      1  0.5615150000000  0.5032090000000  0.5225520000000 1.0
C      1  0.5538170000000  0.5240280000000  0.5041630000000 1.0
C      1  0.5504040000000  0.5110900000000  0.4764850000000 1.0
C      1  0.5506750000000  0.4815560000000  0.4810820000000 1.0
C      1  0.4474220000000  0.4773960000000  0.5117070000000 1.0
C      1  0.4387290000000  0.5032090000000  0.5225470000000 1.0
C      1  0.4464290000000  0.5240280000000  0.5041590000000 1.0
C      1  0.4498440000000  0.5110900000000  0.4764820000000 1.0
C      1  0.4495730000000  0.4815560000000  0.4810780000000 1.0
C      1  0.4849720000000  0.4451270000000  0.5164080000000 1.0
C      1  0.4848700000000  0.4976000000000  0.5555490000000 1.0
C      1  0.4849450000000  0.5526420000000  0.5191770000000 1.0
C      1  0.4848080000000  0.5389710000000  0.4547830000000 1.0
C      1  0.4848220000000  0.4633370000000  0.4524190000000 1.0
C      1  0.5152730000000  0.4451270000000  0.5164100000000 1.0
C      1  0.5153720000000  0.4976000000000  0.5555500000000 1.0
C      1  0.5153000000000  0.5526420000000  0.5191790000000 1.0
C      1  0.5154420000000  0.5389710000000  0.4547840000000 1.0
C      1  0.5154280000000  0.4633370000000  0.4524200000000 1.0
C      1  0.5859340000000  0.5041490000000  0.5658400000000 1.0
C      1  0.5860960000000  0.5636020000000  0.5168190000000 1.0
C      1  0.5859360000000  0.5354640000000  0.4451570000000 1.0
C      1  0.5861630000000  0.4583150000000  0.4499600000000 1.0
C      1  0.5864910000000  0.4390870000000  0.5250970000000 1.0
C      1  0.4143080000000  0.5041480000000  0.5658340000000 1.0
C      1  0.4141490000000  0.5636020000000  0.5168130000000 1.0
C      1  0.4143140000000  0.5354640000000  0.4451510000000 1.0
C      1  0.4140870000000  0.4583140000000  0.4499540000000 1.0
C      1  0.4137530000000  0.4390870000000  0.5250900000000 1.0
C      1  0.4865840000000  0.4919860000000  0.5996400000000 1.0
C      1  0.4865920000000  0.5929280000000  0.5383060000000 1.0
C      1  0.4865270000000  0.5679370000000  0.4224970000000 1.0
C      1  0.4865160000000  0.4467800000000  0.4119250000000 1.0
C      1  0.4865230000000  0.4006760000000  0.5229630000000 1.0
C      1  0.5136550000000  0.4919860000000  0.5996410000000 1.0
C      1  0.5136510000000  0.5929280000000  0.5383070000000 1.0
C      1  0.5137250000000  0.5679370000000  0.4224980000000 1.0
C      1  0.5137370000000  0.4467800000000  0.4119260000000 1.0
C      1  0.5137220000000  0.4006760000000  0.5229640000000 1.0
C      1  0.5241840000000  0.5249750000000  0.5104480000000 1.0
C      1  0.5209600000000  0.5214330000000  0.4789660000000 1.0
C      1  0.5202780000000  0.4795350000000  0.4773140000000 1.0
C      1  0.5232930000000  0.4733650000000  0.5079990000000 1.0
C      1  0.5148610000000  0.4982670000000  0.5243310000000 1.0
C      1  0.4760610000000  0.5249750000000  0.5104460000000 1.0
C      1  0.4792880000000  0.5214330000000  0.4789640000000 1.0
C      1  0.4799700000000  0.4795350000000  0.4773130000000 1.0
C      1  0.4769520000000  0.4733650000000  0.5079970000000 1.0
C      1  0.4853830000000  0.4982670000000  0.5243300000000 1.0
C      1  0.5281400000000  0.5681680000000  0.4496290000000 1.0
C      1  0.5275730000000  0.4723020000000  0.4227670000000 1.0
C      1  0.5280900000000  0.4173020000000  0.5015270000000 1.0
C      1  0.5279930000000  0.4758110000000  0.5780050000000 1.0
C      1  0.5275880000000  0.5671360000000  0.5468920000000 1.0
C      1  0.4721100000000  0.5681680000000  0.4496270000000 1.0
C      1  0.4726790000000  0.4723020000000  0.4227650000000 1.0
C      1  0.4721560000000  0.4173020000000  0.5015250000000 1.0
C      1  0.4722480000000  0.4758110000000  0.5780030000000 1.0
C      1  0.4726550000000  0.5671360000000  0.5468910000000 1.0
C      1  0.4419540000000  0.5214950000000  0.4499810000000 1.0
C      1  0.4411570000000  0.4580920000000  0.4641630000000 1.0
C      1  0.4412330000000  0.4532420000000  0.5279910000000 1.0
C      1  0.4399760000000  0.5108280000000  0.5508610000000 1.0
C      1  0.4405780000000  0.5533980000000  0.5042660000000 1.0
C      1  0.5582960000000  0.5214950000000  0.4499850000000 1.0
C      1  0.5590920000000  0.4580920000000  0.4641670000000 1.0
C      1  0.5590110000000  0.4532420000000  0.5279950000000 1.0
C      1  0.5602670000000  0.5108280000000  0.5508660000000 1.0
C      1  0.5596680000000  0.5533980000000  0.5042700000000 1.0
C      1  0.6465490000000  0.5207380000000  0.4859050000000 1.0
C      1  0.6463350000000  0.4928800000000  0.4761810000000 1.0
C      1  0.6465930000000  0.4751300000000  0.4997700000000 1.0
C      1  0.6465040000000  0.4920230000000  0.5239010000000 1.0
C      1  0.6465260000000  0.5200870000000  0.5154010000000 1.0
C      1  0.3536990000000  0.5207380000000  0.4858940000000 1.0
C      1  0.3539130000000  0.4928790000000  0.4761700000000 1.0
C      1  0.3536540000000  0.4751300000000  0.4997590000000 1.0
C      1  0.3537400000000  0.4920220000000  0.5238900000000 1.0
C      1  0.3537200000000  0.5200870000000  0.5153910000000 1.0
C      1  0.5001240000000  0.5015060000000  0.4743920000000 1.0
END
