TITL C-28428-6703-4 -0.244440901553351 125000 -1138.16042251683 0 0 163 (C1) n - 1
REM
REM in /rds/project/t2_vol4/rds-t2-cs072/BORA/CARBON/from-Arr/AIRSS/Generating-Clusters/GAP-ML-2020/Higher-Symm/SD-CG/HFTN-CG/C160-200
REM
REM
REM
REM
REM
REM ./C.cell (6b4489405718ea1b717e0baf1da4c2d9)
REM AIRSS Version 0.9.1 bugfix July 2018 build 013d7b7c2542+ Fri, 06 Jul 2018 19:26:36 +0100
REM compiler GCC version 9.3.0
REM options -cpp -mtune=generic -march=x86-64 -g -O0
REM seed 1743827260 2093589261 -19675325 -216570162 1300187234 -412744319 780763341 -1091061696 -99598214 -290307288 -2062492979 -1914322954 70565464 -64003983 1471315336 -1055776937 2111454425 -474625224 1192031709 227800934 842694911 2089449709 -709161418 -1449120840 -1309919840 -1484402536 -1391185637 667223698 -1384666088 781587863 -19150789 -573309665 1632654943
REM
CELL 1.54180   50.00000   50.00000   50.00000   90.00000   90.00000   90.00000
LATT -1
SFAC C  
C      1  0.5194490000000  0.4672910000000  0.5428020000000 1.0
C      1  0.4869860000000  0.4638320000000  0.5427820000000 1.0
C      1  0.4638550000000  0.4870660000000  0.5433370000000 1.0
C      1  0.4676490000000  0.5192900000000  0.5438870000000 1.0
C      1  0.4951490000000  0.5362030000000  0.5439810000000 1.0
C      1  0.5261070000000  0.5255060000000  0.5441870000000 1.0
C      1  0.5368140000000  0.4947800000000  0.5436620000000 1.0
C      1  0.5053840000000  0.4168060000000  0.5339030000000 1.0
C      1  0.4390090000000  0.4437330000000  0.5343210000000 1.0
C      1  0.4177630000000  0.5122450000000  0.5365300000000 1.0
C      1  0.4583270000000  0.5712490000000  0.5375000000000 1.0
C      1  0.5295860000000  0.5756850000000  0.5375630000000 1.0
C      1  0.5783730000000  0.5234480000000  0.5370220000000 1.0
C      1  0.5676460000000  0.4527200000000  0.5353590000000 1.0
C      1  0.4484390000000  0.5224780000000  0.4961120000000 1.0
C      1  0.4834180000000  0.5526490000000  0.4967320000000 1.0
C      1  0.5300720000000  0.5442440000000  0.4976390000000 1.0
C      1  0.5544170000000  0.5028230000000  0.4956960000000 1.0
C      1  0.5362510000000  0.4605030000000  0.4950280000000 1.0
C      1  0.4909880000000  0.4466460000000  0.4943640000000 1.0
C      1  0.4529990000000  0.4747650000000  0.4959110000000 1.0
C      1  0.4168910000000  0.5372130000000  0.4467700000000 1.0
C      1  0.4722700000000  0.5834670000000  0.4463290000000 1.0
C      1  0.5577570000000  0.5710800000000  0.4473490000000 1.0
C      1  0.5900110000000  0.5047940000000  0.4458940000000 1.0
C      1  0.5574120000000  0.4336020000000  0.4450180000000 1.0
C      1  0.4886670000000  0.4144720000000  0.4432810000000 1.0
C      1  0.4178540000000  0.4635840000000  0.4455250000000 1.0
C      1  0.5999030000000  0.5205810000000  0.4689030000000 1.0
C      1  0.5742440000000  0.4362280000000  0.4673700000000 1.0
C      1  0.4968860000000  0.3999630000000  0.4666740000000 1.0
C      1  0.4218290000000  0.4447960000000  0.4662630000000 1.0
C      1  0.4008040000000  0.5274610000000  0.4687860000000 1.0
C      1  0.4600980000000  0.5911540000000  0.4708080000000 1.0
C      1  0.5453070000000  0.5850100000000  0.4688030000000 1.0
C      1  0.5275230000000  0.5190460000000  0.4046820000000 1.0
C      1  0.5280680000000  0.4905600000000  0.4060630000000 1.0
C      1  0.5080800000000  0.4702890000000  0.4061840000000 1.0
C      1  0.4797820000000  0.4735050000000  0.4069670000000 1.0
C      1  0.4669570000000  0.4990890000000  0.4046840000000 1.0
C      1  0.4778870000000  0.5260370000000  0.4074630000000 1.0
C      1  0.5046960000000  0.5357850000000  0.4087750000000 1.0
C      1  0.4214670000000  0.5646100000000  0.4987770000000 1.0
C      1  0.5024070000000  0.5983910000000  0.4958540000000 1.0
C      1  0.5804060000000  0.5615420000000  0.4983480000000 1.0
C      1  0.5966600000000  0.4766560000000  0.4966030000000 1.0
C      1  0.5417480000000  0.4071610000000  0.4942430000000 1.0
C      1  0.4552960000000  0.4130600000000  0.4919140000000 1.0
C      1  0.4002290000000  0.4805270000000  0.4960290000000 1.0
C      1  0.4745880000000  0.5303710000000  0.4550630000000 1.0
C      1  0.5045580000000  0.5378580000000  0.4557860000000 1.0
C      1  0.5213480000000  0.5131630000000  0.4635890000000 1.0
C      1  0.5324660000000  0.4865710000000  0.4545520000000 1.0
C      1  0.5105180000000  0.4653980000000  0.4542510000000 1.0
C      1  0.4804810000000  0.4725660000000  0.4548660000000 1.0
C      1  0.4737350000000  0.5011100000000  0.4631730000000 1.0
C      1  0.5131860000000  0.5557610000000  0.4307530000000 1.0
C      1  0.5507460000000  0.5295550000000  0.4179220000000 1.0
C      1  0.5488910000000  0.4838810000000  0.4259680000000 1.0
C      1  0.5190510000000  0.4497640000000  0.4243450000000 1.0
C      1  0.4644840000000  0.4583960000000  0.4289200000000 1.0
C      1  0.4410140000000  0.4973690000000  0.4170930000000 1.0
C      1  0.4595180000000  0.5387860000000  0.4267960000000 1.0
C      1  0.5702660000000  0.4075500000000  0.5551300000000 1.0
C      1  0.4713010000000  0.3862880000000  0.5545430000000 1.0
C      1  0.3951440000000  0.4499970000000  0.5556340000000 1.0
C      1  0.3961310000000  0.5510080000000  0.5594010000000 1.0
C      1  0.4756090000000  0.6126770000000  0.5589880000000 1.0
C      1  0.5719540000000  0.5885240000000  0.5589050000000 1.0
C      1  0.6150310000000  0.4971280000000  0.5585480000000 1.0
C      1  0.4742960000000  0.5201240000000  0.5919820000000 1.0
C      1  0.5008470000000  0.5314060000000  0.5921430000000 1.0
C      1  0.5261810000000  0.5175050000000  0.5920540000000 1.0
C      1  0.5312650000000  0.4889850000000  0.5914930000000 1.0
C      1  0.5122500000000  0.4672100000000  0.5907980000000 1.0
C      1  0.4833760000000  0.4686990000000  0.5907720000000 1.0
C      1  0.4665470000000  0.4922520000000  0.5913740000000 1.0
C      1  0.5407500000000  0.5232820000000  0.4834430000000 1.0
C      1  0.5514610000000  0.4793370000000  0.4794900000000 1.0
C      1  0.5140360000000  0.4526980000000  0.4810800000000 1.0
C      1  0.4682730000000  0.4566540000000  0.4796210000000 1.0
C      1  0.4520450000000  0.4987670000000  0.4826600000000 1.0
C      1  0.4614460000000  0.5433160000000  0.4809820000000 1.0
C      1  0.5081740000000  0.5547150000000  0.4818920000000 1.0
C      1  0.4855990000000  0.5604010000000  0.5250350000000 1.0
C      1  0.5389000000000  0.5479690000000  0.5250910000000 1.0
C      1  0.5619620000000  0.4992070000000  0.5241160000000 1.0
C      1  0.5382420000000  0.4505410000000  0.5226880000000 1.0
C      1  0.4854790000000  0.4390650000000  0.5223240000000 1.0
C      1  0.4430520000000  0.4734310000000  0.5232720000000 1.0
C      1  0.4431770000000  0.5275140000000  0.5245960000000 1.0
C      1  0.4038580000000  0.4747690000000  0.5510460000000 1.0
C      1  0.4208890000000  0.5591310000000  0.5534290000000 1.0
C      1  0.4970000000000  0.5977760000000  0.5530940000000 1.0
C      1  0.5747760000000  0.5625870000000  0.5534110000000 1.0
C      1  0.5961180000000  0.4794210000000  0.5519520000000 1.0
C      1  0.5443940000000  0.4109400000000  0.5493630000000 1.0
C      1  0.4586690000000  0.4091610000000  0.5488090000000 1.0
C      1  0.5427660000000  0.5553220000000  0.4288840000000 1.0
C      1  0.5678660000000  0.5071230000000  0.4270260000000 1.0
C      1  0.5481210000000  0.4541490000000  0.4275970000000 1.0
C      1  0.5136940000000  0.4220480000000  0.4304420000000 1.0
C      1  0.4380150000000  0.4706690000000  0.4272440000000 1.0
C      1  0.4342500000000  0.5232090000000  0.4279970000000 1.0
C      1  0.4526630000000  0.5662670000000  0.4335180000000 1.0
C      1  0.4474320000000  0.5588250000000  0.5646700000000 1.0
C      1  0.5131070000000  0.5766780000000  0.5643710000000 1.0
C      1  0.5688790000000  0.5366100000000  0.5643660000000 1.0
C      1  0.5722960000000  0.4675790000000  0.5630230000000 1.0
C      1  0.5206030000000  0.4221490000000  0.5611980000000 1.0
C      1  0.4529120000000  0.4346030000000  0.5610750000000 1.0
C      1  0.4202280000000  0.4950980000000  0.5631550000000 1.0
C      1  0.4574230000000  0.4243070000000  0.5204830000000 1.0
C      1  0.4135430000000  0.4859490000000  0.5225110000000 1.0
C      1  0.4344390000000  0.5580540000000  0.5249250000000 1.0
C      1  0.5047310000000  0.5857160000000  0.5241100000000 1.0
C      1  0.5706990000000  0.5495750000000  0.5242630000000 1.0
C      1  0.5829910000000  0.4755830000000  0.5231630000000 1.0
C      1  0.5324800000000  0.4186440000000  0.5208640000000 1.0
C      1  0.6085320000000  0.5168410000000  0.5386450000000 1.0
C      1  0.5812130000000  0.4253990000000  0.5353440000000 1.0
C      1  0.4917190000000  0.3889460000000  0.5344180000000 1.0
C      1  0.4094360000000  0.4362690000000  0.5347460000000 1.0
C      1  0.3936380000000  0.5313190000000  0.5385790000000 1.0
C      1  0.4585620000000  0.6021060000000  0.5382470000000 1.0
C      1  0.5527840000000  0.5953610000000  0.5385910000000 1.0
C      1  0.5524890000000  0.4854190000000  0.5715360000000 1.0
C      1  0.5223200000000  0.4486260000000  0.5703010000000 1.0
C      1  0.4748720000000  0.4495180000000  0.5701420000000 1.0
C      1  0.4458560000000  0.4872360000000  0.5711680000000 1.0
C      1  0.4572600000000  0.5335800000000  0.5721340000000 1.0
C      1  0.5001150000000  0.5532100000000  0.5723790000000 1.0
C      1  0.5424320000000  0.5319740000000  0.5722860000000 1.0
C      1  0.5927960000000  0.4776900000000  0.4499490000000 1.0
C      1  0.5358740000000  0.4139300000000  0.4463750000000 1.0
C      1  0.4652930000000  0.4301610000000  0.4418950000000 1.0
C      1  0.4013510000000  0.4845030000000  0.4512350000000 1.0
C      1  0.4294100000000  0.5631810000000  0.4496060000000 1.0
C      1  0.5001910000000  0.5805510000000  0.4444230000000 1.0
C      1  0.5833860000000  0.5634910000000  0.4542130000000 1.0
C      1  0.3998630000000  0.4342840000000  0.5094380000000 1.0
C      1  0.3848730000000  0.5379690000000  0.5136410000000 1.0
C      1  0.4591460000000  0.6127550000000  0.5130930000000 1.0
C      1  0.5592410000000  0.6018290000000  0.5130890000000 1.0
C      1  0.6188030000000  0.5158150000000  0.5134670000000 1.0
C      1  0.5860100000000  0.4170160000000  0.5099280000000 1.0
C      1  0.4869140000000  0.3798470000000  0.5090840000000 1.0
C      1  0.5636110000000  0.5856690000000  0.4915590000000 1.0
C      1  0.6077670000000  0.5036310000000  0.4913980000000 1.0
C      1  0.5692590000000  0.4171290000000  0.4885330000000 1.0
C      1  0.4778990000000  0.3948070000000  0.4877560000000 1.0
C      1  0.4046260000000  0.4516140000000  0.4887550000000 1.0
C      1  0.4001220000000  0.5451100000000  0.4921350000000 1.0
C      1  0.4742250000000  0.6048910000000  0.4914560000000 1.0
C      1  0.4493260000000  0.4323030000000  0.4691470000000 1.0
C      1  0.3962710000000  0.4989010000000  0.4732210000000 1.0
C      1  0.4384240000000  0.5710780000000  0.4761930000000 1.0
C      1  0.5154030000000  0.5846020000000  0.4721670000000 1.0
C      1  0.5924120000000  0.5482810000000  0.4747470000000 1.0
C      1  0.5832810000000  0.4645030000000  0.4729310000000 1.0
C      1  0.5260370000000  0.4021090000000  0.4705820000000 1.0
C      1  0.4997090000000  0.4989210000000  0.5044810000000 1.0
C      1  0.4985020000000  0.5029000000000  0.4794940000000 1.0
END
