TITL C-28429-6862-1 -0.0212861701006993 125000 -1285.39212984503 0 0 179 (C1) n - 1
REM
REM in /rds/project/t2_vol4/rds-t2-cs072/BORA/CARBON/from-Arr/AIRSS/Generating-Clusters/GAP-ML-2020/Higher-Symm/SD-CG/HFTN-CG/C160-200
REM
REM
REM
REM
REM
REM ./C.cell (6b4489405718ea1b717e0baf1da4c2d9)
REM AIRSS Version 0.9.1 bugfix July 2018 build 013d7b7c2542+ Fri, 06 Jul 2018 19:26:36 +0100
REM compiler GCC version 9.3.0
REM options -cpp -mtune=generic -march=x86-64 -g -O0
REM seed -759550346 324375142 262026067 -2027705416 570316255 1348277440 -854061864 -259720090 110752434 1289321850 -1336972420 -1659268832 1315106967 31390647 827241717 -1631444241 -51338861 -143919996 271923108 1770379957 -1357092622 -809581583 240909591 -438034477 -1325325783 -79911090 -971333543 1057725016 1178393963 -238563547 -1241222605 -572579294 -690461338
REM
CELL 1.54180   50.00000   50.00000   50.00000   90.00000   90.00000   90.00000
LATT -1
SFAC C  
C      1  0.5194540000000  0.5837690000000  0.5414540000000 1.0
C      1  0.5861560000000  0.5439690000000  0.5215710000000 1.0
C      1  0.5356500000000  0.5124910000000  0.5986830000000 1.0
C      1  0.5154410000000  0.3951800000000  0.4650820000000 1.0
C      1  0.4866830000000  0.6016720000000  0.4617270000000 1.0
C      1  0.4780600000000  0.4141920000000  0.5428870000000 1.0
C      1  0.6021690000000  0.4653440000000  0.4838700000000 1.0
C      1  0.4142490000000  0.5442930000000  0.4794310000000 1.0
C      1  0.3991080000000  0.4644210000000  0.5144960000000 1.0
C      1  0.5339000000000  0.4836190000000  0.3975850000000 1.0
C      1  0.4554610000000  0.5217050000000  0.4126420000000 1.0
C      1  0.4570990000000  0.4822230000000  0.6057570000000 1.0
C      1  0.4840450000000  0.6004200000000  0.5081570000000 1.0
C      1  0.6009650000000  0.5126670000000  0.4813350000000 1.0
C      1  0.5289140000000  0.4846150000000  0.5951680000000 1.0
C      1  0.4889580000000  0.3948750000000  0.4743690000000 1.0
C      1  0.5142000000000  0.5986520000000  0.4701520000000 1.0
C      1  0.5179820000000  0.3981820000000  0.5122580000000 1.0
C      1  0.6014520000000  0.4745060000000  0.5103080000000 1.0
C      1  0.4033910000000  0.5115050000000  0.5202000000000 1.0
C      1  0.4047050000000  0.4733140000000  0.4877410000000 1.0
C      1  0.5245860000000  0.5102870000000  0.4001260000000 1.0
C      1  0.4871650000000  0.4808050000000  0.3999760000000 1.0
C      1  0.4898270000000  0.5122080000000  0.6014680000000 1.0
C      1  0.4251200000000  0.4290600000000  0.4776700000000 1.0
C      1  0.4359850000000  0.4772300000000  0.4209990000000 1.0
C      1  0.4757270000000  0.4225450000000  0.4342250000000 1.0
C      1  0.4228660000000  0.5636830000000  0.5229910000000 1.0
C      1  0.5748860000000  0.4326200000000  0.5237160000000 1.0
C      1  0.5817230000000  0.5665090000000  0.4785700000000 1.0
C      1  0.4375550000000  0.5178260000000  0.5821380000000 1.0
C      1  0.5715420000000  0.4777190000000  0.5743260000000 1.0
C      1  0.5661200000000  0.5239420000000  0.4251260000000 1.0
C      1  0.4747500000000  0.5779200000000  0.5601700000000 1.0
C      1  0.5205100000000  0.4191900000000  0.5652710000000 1.0
C      1  0.5213430000000  0.5742090000000  0.4294620000000 1.0
C      1  0.4599330000000  0.5428310000000  0.5043110000000 1.0
C      1  0.5322920000000  0.5043070000000  0.4664450000000 1.0
C      1  0.5058430000000  0.4594370000000  0.5408920000000 1.0
C      1  0.4655250000000  0.4679520000000  0.4980730000000 1.0
C      1  0.5413040000000  0.5429870000000  0.4918910000000 1.0
C      1  0.5346980000000  0.4670440000000  0.5035670000000 1.0
C      1  0.5323810000000  0.4985120000000  0.5361200000000 1.0
C      1  0.4575210000000  0.5069510000000  0.5396110000000 1.0
C      1  0.4579850000000  0.4940060000000  0.4591660000000 1.0
C      1  0.5059570000000  0.5383480000000  0.4576050000000 1.0
C      1  0.4912510000000  0.4609400000000  0.4593290000000 1.0
C      1  0.4924110000000  0.5379520000000  0.5370670000000 1.0
C      1  0.5116840000000  0.4650280000000  0.3987570000000 1.0
C      1  0.4668550000000  0.4015000000000  0.5197000000000 1.0
C      1  0.4046450000000  0.5195530000000  0.4690040000000 1.0
C      1  0.5121380000000  0.5299390000000  0.5972070000000 1.0
C      1  0.4804760000000  0.4655750000000  0.6023710000000 1.0
C      1  0.4790520000000  0.5322850000000  0.4007320000000 1.0
C      1  0.4683880000000  0.5993970000000  0.4841880000000 1.0
C      1  0.5337300000000  0.3978140000000  0.4875230000000 1.0
C      1  0.5319000000000  0.5954960000000  0.5180060000000 1.0
C      1  0.3990970000000  0.4863850000000  0.5339980000000 1.0
C      1  0.5982950000000  0.5205000000000  0.5325370000000 1.0
C      1  0.6007210000000  0.4878260000000  0.4655300000000 1.0
C      1  0.4516180000000  0.5142520000000  0.5103080000000 1.0
C      1  0.5037870000000  0.5088100000000  0.4656260000000 1.0
C      1  0.5095960000000  0.4560630000000  0.5102970000000 1.0
C      1  0.4643540000000  0.4965320000000  0.4910340000000 1.0
C      1  0.5448530000000  0.5130990000000  0.4899850000000 1.0
C      1  0.5416830000000  0.4934920000000  0.5104550000000 1.0
C      1  0.5062000000000  0.4896420000000  0.5436750000000 1.0
C      1  0.4870310000000  0.5097120000000  0.5444820000000 1.0
C      1  0.4866110000000  0.4895070000000  0.4524300000000 1.0
C      1  0.5119460000000  0.5487110000000  0.4873740000000 1.0
C      1  0.4889640000000  0.4552960000000  0.4903560000000 1.0
C      1  0.4912410000000  0.5369980000000  0.5049990000000 1.0
C      1  0.5153700000000  0.4488780000000  0.4535770000000 1.0
C      1  0.4485900000000  0.4567110000000  0.5152840000000 1.0
C      1  0.4490630000000  0.5185800000000  0.4440890000000 1.0
C      1  0.5163930000000  0.5528700000000  0.5478040000000 1.0
C      1  0.4811420000000  0.4446060000000  0.5500890000000 1.0
C      1  0.4820130000000  0.5513980000000  0.4524720000000 1.0
C      1  0.4452880000000  0.5514560000000  0.4802920000000 1.0
C      1  0.5493380000000  0.4554690000000  0.4844570000000 1.0
C      1  0.5554630000000  0.5506890000000  0.5176660000000 1.0
C      1  0.4526420000000  0.4821810000000  0.5521030000000 1.0
C      1  0.5454230000000  0.5168080000000  0.5499050000000 1.0
C      1  0.5420050000000  0.4860070000000  0.4495960000000 1.0
C      1  0.5890350000000  0.4572350000000  0.5299840000000 1.0
C      1  0.4609740000000  0.5099060000000  0.5985760000000 1.0
C      1  0.5329150000000  0.5829240000000  0.4540960000000 1.0
C      1  0.5912870000000  0.5389610000000  0.4697360000000 1.0
C      1  0.4200020000000  0.4565760000000  0.4690700000000 1.0
C      1  0.4166510000000  0.5364050000000  0.5334640000000 1.0
C      1  0.4631930000000  0.4695890000000  0.4131110000000 1.0
C      1  0.5395080000000  0.5285360000000  0.4158620000000 1.0
C      1  0.5451470000000  0.4667780000000  0.5794360000000 1.0
C      1  0.5293920000000  0.4092590000000  0.5378570000000 1.0
C      1  0.4709960000000  0.5883530000000  0.5318060000000 1.0
C      1  0.4686250000000  0.4072680000000  0.4576910000000 1.0
C      1  0.4639640000000  0.5515690000000  0.5506970000000 1.0
C      1  0.5547870000000  0.5609480000000  0.4649670000000 1.0
C      1  0.5851970000000  0.4689330000000  0.5535270000000 1.0
C      1  0.4666280000000  0.4510810000000  0.4377080000000 1.0
C      1  0.5239190000000  0.5459320000000  0.4318660000000 1.0
C      1  0.5339340000000  0.4462500000000  0.5586980000000 1.0
C      1  0.5510800000000  0.4286750000000  0.5388550000000 1.0
C      1  0.4524410000000  0.5648790000000  0.5264960000000 1.0
C      1  0.4449530000000  0.4136350000000  0.4687640000000 1.0
C      1  0.5715600000000  0.5402540000000  0.4481230000000 1.0
C      1  0.4413360000000  0.4673230000000  0.4493780000000 1.0
C      1  0.4411270000000  0.5306810000000  0.5549630000000 1.0
C      1  0.4194130000000  0.4946620000000  0.5823940000000 1.0
C      1  0.4958140000000  0.5804240000000  0.4186160000000 1.0
C      1  0.5789970000000  0.4226290000000  0.4972220000000 1.0
C      1  0.4190250000000  0.5009430000000  0.4172480000000 1.0
C      1  0.5766850000000  0.4973980000000  0.4201190000000 1.0
C      1  0.5796760000000  0.5045670000000  0.5801020000000 1.0
C      1  0.4966650000000  0.4164690000000  0.5809360000000 1.0
C      1  0.4973770000000  0.5802420000000  0.5779400000000 1.0
C      1  0.5017670000000  0.4185670000000  0.4229690000000 1.0
C      1  0.5842130000000  0.5819220000000  0.5024360000000 1.0
C      1  0.4192310000000  0.4204970000000  0.5042300000000 1.0
C      1  0.4171320000000  0.5799270000000  0.4984750000000 1.0
C      1  0.5178450000000  0.4384090000000  0.4077860000000 1.0
C      1  0.4382340000000  0.4058430000000  0.5212230000000 1.0
C      1  0.4155610000000  0.5195670000000  0.4418800000000 1.0
C      1  0.5156350000000  0.5552190000000  0.5823780000000 1.0
C      1  0.4783630000000  0.4412290000000  0.5861640000000 1.0
C      1  0.4781580000000  0.5610370000000  0.4044720000000 1.0
C      1  0.4425910000000  0.5852680000000  0.4799000000000 1.0
C      1  0.5601040000000  0.4071770000000  0.4810270000000 1.0
C      1  0.5587000000000  0.5852790000000  0.5193090000000 1.0
C      1  0.4048860000000  0.4794910000000  0.5613680000000 1.0
C      1  0.5937430000000  0.5220500000000  0.5611890000000 1.0
C      1  0.5917720000000  0.4810720000000  0.4391080000000 1.0
C      1  0.5863040000000  0.4531910000000  0.4329380000000 1.0
C      1  0.4500550000000  0.4315090000000  0.5867050000000 1.0
C      1  0.4329790000000  0.5876320000000  0.4514960000000 1.0
C      1  0.5878810000000  0.5491110000000  0.5693940000000 1.0
C      1  0.4090430000000  0.4512440000000  0.5673370000000 1.0
C      1  0.4126960000000  0.5480420000000  0.4321290000000 1.0
C      1  0.4507690000000  0.5690360000000  0.4095580000000 1.0
C      1  0.5458850000000  0.4324590000000  0.4129310000000 1.0
C      1  0.5441640000000  0.5654550000000  0.5857940000000 1.0
C      1  0.4299190000000  0.4105260000000  0.5482480000000 1.0
C      1  0.5662860000000  0.5872380000000  0.5483520000000 1.0
C      1  0.5663840000000  0.4124930000000  0.4531740000000 1.0
C      1  0.4316150000000  0.4745740000000  0.5983630000000 1.0
C      1  0.4783480000000  0.5961310000000  0.4350910000000 1.0
C      1  0.5948050000000  0.4384970000000  0.4785450000000 1.0
C      1  0.4306340000000  0.5215120000000  0.3999820000000 1.0
C      1  0.5606200000000  0.4785870000000  0.4047260000000 1.0
C      1  0.5619270000000  0.5213270000000  0.5949170000000 1.0
C      1  0.4763820000000  0.4003450000000  0.5671020000000 1.0
C      1  0.5185710000000  0.5968640000000  0.5660190000000 1.0
C      1  0.5208420000000  0.4029400000000  0.4382890000000 1.0
C      1  0.5995430000000  0.5684070000000  0.5233950000000 1.0
C      1  0.4035570000000  0.4372560000000  0.5212050000000 1.0
C      1  0.4008080000000  0.5685550000000  0.4776000000000 1.0
C      1  0.4511300000000  0.5890720000000  0.4301230000000 1.0
C      1  0.5867470000000  0.4326560000000  0.4521400000000 1.0
C      1  0.4278200000000  0.4485510000000  0.5887920000000 1.0
C      1  0.4494220000000  0.4095550000000  0.5690160000000 1.0
C      1  0.5459140000000  0.5878320000000  0.5684020000000 1.0
C      1  0.5471790000000  0.4117480000000  0.4327110000000 1.0
C      1  0.5888990000000  0.5701120000000  0.5501620000000 1.0
C      1  0.4096180000000  0.4309710000000  0.5481470000000 1.0
C      1  0.4106200000000  0.5699360000000  0.4504830000000 1.0
C      1  0.4298360000000  0.5490930000000  0.4094530000000 1.0
C      1  0.5662160000000  0.4519350000000  0.4125320000000 1.0
C      1  0.5664470000000  0.5486330000000  0.5884300000000 1.0
C      1  0.4014520000000  0.5020570000000  0.4904520000000 1.0
C      1  0.4892600000000  0.3951980000000  0.5034370000000 1.0
C      1  0.6029590000000  0.5035510000000  0.5102250000000 1.0
C      1  0.5124780000000  0.6018990000000  0.4992880000000 1.0
C      1  0.4958750000000  0.5097260000000  0.3977750000000 1.0
C      1  0.5011640000000  0.4849270000000  0.6024430000000 1.0
C      1  0.5381310000000  0.4615210000000  0.4608170000000 1.0
C      1  0.4588150000000  0.4591770000000  0.5401620000000 1.0
C      1  0.4583410000000  0.5412550000000  0.4577310000000 1.0
C      1  0.5403870000000  0.5405790000000  0.5392840000000 1.0
C      1  0.4914520000000  0.5091030000000  0.4928480000000 1.0
END
