TITL C-28410-6685-4 -149.193967030234 125000 -1216.20613643815 0 0 169 (C1) n - 1
REM
REM in /rds/project/t2_vol4/rds-t2-cs072/BORA/CARBON/from-Arr/AIRSS/Generating-Clusters/GAP-ML-2020/Higher-Symm/SD-CG/HFTN-CG/C160-200
REM
REM
REM
REM
REM
REM ./C.cell (6b4489405718ea1b717e0baf1da4c2d9)
REM AIRSS Version 0.9.1 bugfix July 2018 build 013d7b7c2542+ Fri, 06 Jul 2018 19:26:36 +0100
REM compiler GCC version 9.3.0
REM options -cpp -mtune=generic -march=x86-64 -g -O0
REM seed -737674003 2080297478 494875821 1670650522 1376923463 -204481342 1370110343 2052928036 -976464613 -56692964 -464391310 -1148937767 -451954498 272838780 -1747786055 -195816010 217425785 1725392785 428729416 -1313666989 -318275419 -1310216808 -1046491116 -1580175059 -524143556 -1786888108 431038374 1632461233 -1754457930 -1319029087 208376457 296283663 -1338758749
REM
CELL 1.54180   50.00000   50.00000   50.00000   90.00000   90.00000   90.00000
LATT -1
SFAC C  
C      1  0.5043770000000  0.4273450000000  0.4732150000000 1.0
C      1  0.5257240000000  0.4350410000000  0.4935480000000 1.0
C      1  0.5148750000000  0.4320500000000  0.5218760000000 1.0
C      1  0.4838870000000  0.4299890000000  0.5209980000000 1.0
C      1  0.4529520000000  0.4153830000000  0.4878580000000 1.0
C      1  0.4955070000000  0.5715180000000  0.4724670000000 1.0
C      1  0.4741550000000  0.5640830000000  0.4929550000000 1.0
C      1  0.4853380000000  0.5672410000000  0.5214980000000 1.0
C      1  0.5163740000000  0.5690710000000  0.5198580000000 1.0
C      1  0.5472530000000  0.5829870000000  0.4867170000000 1.0
C      1  0.5022540000000  0.3813030000000  0.5305770000000 1.0
C      1  0.4938790000000  0.3871080000000  0.5042990000000 1.0
C      1  0.5208710000000  0.3825040000000  0.5069400000000 1.0
C      1  0.5420190000000  0.3905970000000  0.5248730000000 1.0
C      1  0.5241310000000  0.3901260000000  0.5472320000000 1.0
C      1  0.4979820000000  0.6162580000000  0.5303960000000 1.0
C      1  0.5063260000000  0.6114860000000  0.5038280000000 1.0
C      1  0.4794860000000  0.6160490000000  0.5068690000000 1.0
C      1  0.4580940000000  0.6081420000000  0.5245850000000 1.0
C      1  0.4759230000000  0.6078700000000  0.5469840000000 1.0
C      1  0.4829050000000  0.5617460000000  0.4208880000000 1.0
C      1  0.5777600000000  0.5535390000000  0.4570720000000 1.0
C      1  0.5553820000000  0.5615900000000  0.5559130000000 1.0
C      1  0.4606530000000  0.5672000000000  0.5754540000000 1.0
C      1  0.4157420000000  0.5660440000000  0.4829640000000 1.0
C      1  0.5169320000000  0.4374540000000  0.4220110000000 1.0
C      1  0.4227820000000  0.4433540000000  0.4575450000000 1.0
C      1  0.4445460000000  0.4384170000000  0.5566520000000 1.0
C      1  0.5395390000000  0.4296910000000  0.5771220000000 1.0
C      1  0.5842580000000  0.4332340000000  0.4843250000000 1.0
C      1  0.4626700000000  0.5433870000000  0.4108700000000 1.0
C      1  0.5728820000000  0.5349420000000  0.4342220000000 1.0
C      1  0.5758780000000  0.5425880000000  0.5494660000000 1.0
C      1  0.4712650000000  0.5470740000000  0.5943130000000 1.0
C      1  0.4001680000000  0.5521320000000  0.5018260000000 1.0
C      1  0.5377950000000  0.4553670000000  0.4122930000000 1.0
C      1  0.4265180000000  0.4633300000000  0.4361010000000 1.0
C      1  0.4243410000000  0.4574980000000  0.5496870000000 1.0
C      1  0.5279630000000  0.4486610000000  0.5950120000000 1.0
C      1  0.5989550000000  0.4477190000000  0.5034070000000 1.0
C      1  0.4182050000000  0.5209640000000  0.4323560000000 1.0
C      1  0.5420900000000  0.5266640000000  0.3986160000000 1.0
C      1  0.6049250000000  0.5189130000000  0.5164350000000 1.0
C      1  0.5172360000000  0.5207670000000  0.6031430000000 1.0
C      1  0.4063800000000  0.5286670000000  0.5418130000000 1.0
C      1  0.5811830000000  0.4765720000000  0.4317770000000 1.0
C      1  0.4585280000000  0.4745620000000  0.3978970000000 1.0
C      1  0.3958270000000  0.4808730000000  0.5146470000000 1.0
C      1  0.4891790000000  0.4742550000000  0.6038600000000 1.0
C      1  0.5914970000000  0.4710220000000  0.5435560000000 1.0
C      1  0.5848000000000  0.5611240000000  0.5062520000000 1.0
C      1  0.5158890000000  0.5645830000000  0.5868040000000 1.0
C      1  0.4279820000000  0.5718020000000  0.5364100000000 1.0
C      1  0.4326910000000  0.5651340000000  0.4408450000000 1.0
C      1  0.5335370000000  0.5636430000000  0.4210330000000 1.0
C      1  0.4154910000000  0.4382420000000  0.5068610000000 1.0
C      1  0.4827540000000  0.4304470000000  0.5873330000000 1.0
C      1  0.5715010000000  0.4272450000000  0.5373870000000 1.0
C      1  0.5679800000000  0.4326610000000  0.4420360000000 1.0
C      1  0.4662390000000  0.4380370000000  0.4219360000000 1.0
C      1  0.5131980000000  0.5501060000000  0.4635130000000 1.0
C      1  0.5205480000000  0.5318600000000  0.4891910000000 1.0
C      1  0.5146930000000  0.5384260000000  0.5180070000000 1.0
C      1  0.4826980000000  0.5367960000000  0.5234640000000 1.0
C      1  0.4728070000000  0.5329260000000  0.4945760000000 1.0
C      1  0.4862840000000  0.4486030000000  0.4645460000000 1.0
C      1  0.4791640000000  0.4667500000000  0.4906690000000 1.0
C      1  0.4858840000000  0.4608280000000  0.5193000000000 1.0
C      1  0.5176180000000  0.4624840000000  0.5236120000000 1.0
C      1  0.5269600000000  0.4664520000000  0.4943710000000 1.0
C      1  0.4399730000000  0.5887780000000  0.5165180000000 1.0
C      1  0.4518530000000  0.5791080000000  0.4559980000000 1.0
C      1  0.5325840000000  0.5674420000000  0.4480890000000 1.0
C      1  0.5615380000000  0.5772800000000  0.5103560000000 1.0
C      1  0.5042100000000  0.5869530000000  0.5774350000000 1.0
C      1  0.5599670000000  0.4102460000000  0.5171610000000 1.0
C      1  0.5483670000000  0.4195070000000  0.4570940000000 1.0
C      1  0.4673310000000  0.4315350000000  0.4485760000000 1.0
C      1  0.4384630000000  0.4217980000000  0.5112460000000 1.0
C      1  0.4949140000000  0.4088380000000  0.5768270000000 1.0
C      1  0.4497650000000  0.4972330000000  0.5338920000000 1.0
C      1  0.4518320000000  0.4985030000000  0.4624890000000 1.0
C      1  0.5193590000000  0.4983400000000  0.4476630000000 1.0
C      1  0.5562070000000  0.5012830000000  0.5038480000000 1.0
C      1  0.5138640000000  0.5007780000000  0.5510740000000 1.0
C      1  0.5512230000000  0.5023680000000  0.5322780000000 1.0
C      1  0.5459140000000  0.4995200000000  0.4597680000000 1.0
C      1  0.4768980000000  0.4993250000000  0.4475290000000 1.0
C      1  0.4443230000000  0.4979610000000  0.5059540000000 1.0
C      1  0.4872650000000  0.4994910000000  0.5522290000000 1.0
C      1  0.6094820000000  0.4735800000000  0.4996820000000 1.0
C      1  0.5366550000000  0.4749390000000  0.5995630000000 1.0
C      1  0.4320440000000  0.4839280000000  0.5562780000000 1.0
C      1  0.4235210000000  0.4925190000000  0.4458960000000 1.0
C      1  0.5326140000000  0.4800590000000  0.3990980000000 1.0
C      1  0.3896820000000  0.5259520000000  0.4981330000000 1.0
C      1  0.4524450000000  0.5294660000000  0.6014570000000 1.0
C      1  0.5697150000000  0.5154470000000  0.5550160000000 1.0
C      1  0.5664320000000  0.5033890000000  0.4333560000000 1.0
C      1  0.4692650000000  0.5203480000000  0.3950140000000 1.0
C      1  0.5609470000000  0.5096520000000  0.5808470000000 1.0
C      1  0.4344060000000  0.5170490000000  0.5859980000000 1.0
C      1  0.3905110000000  0.5173890000000  0.4712700000000 1.0
C      1  0.4963900000000  0.5134480000000  0.3895850000000 1.0
C      1  0.6081120000000  0.5086960000000  0.4682840000000 1.0
C      1  0.4413520000000  0.4897670000000  0.5822750000000 1.0
C      1  0.5608260000000  0.4822830000000  0.5863080000000 1.0
C      1  0.6097770000000  0.4821490000000  0.4724280000000 1.0
C      1  0.5061470000000  0.4865450000000  0.3905190000000 1.0
C      1  0.3993370000000  0.4917800000000  0.4656720000000 1.0
C      1  0.4454910000000  0.4563760000000  0.4156730000000 1.0
C      1  0.5632800000000  0.4543610000000  0.4243870000000 1.0
C      1  0.5906310000000  0.4462500000000  0.5296540000000 1.0
C      1  0.5002820000000  0.4485160000000  0.6003010000000 1.0
C      1  0.4081300000000  0.4574590000000  0.5266920000000 1.0
C      1  0.5546760000000  0.5458360000000  0.4151350000000 1.0
C      1  0.4375640000000  0.5424540000000  0.4240670000000 1.0
C      1  0.4080590000000  0.5536420000000  0.5281650000000 1.0
C      1  0.4998380000000  0.5435840000000  0.5986610000000 1.0
C      1  0.5922630000000  0.5427140000000  0.5268520000000 1.0
C      1  0.4977100000000  0.4779410000000  0.4535440000000 1.0
C      1  0.5512270000000  0.4800180000000  0.4856310000000 1.0
C      1  0.5306370000000  0.4791770000000  0.5432370000000 1.0
C      1  0.4740570000000  0.4787460000000  0.5381350000000 1.0
C      1  0.4540850000000  0.4793890000000  0.4866040000000 1.0
C      1  0.4997240000000  0.5202260000000  0.4528040000000 1.0
C      1  0.4484060000000  0.5190150000000  0.4873020000000 1.0
C      1  0.4697880000000  0.5202440000000  0.5435100000000 1.0
C      1  0.5270340000000  0.5210140000000  0.5368180000000 1.0
C      1  0.5457420000000  0.5189520000000  0.4838350000000 1.0
C      1  0.5623450000000  0.4380740000000  0.5625210000000 1.0
C      1  0.4591640000000  0.4450460000000  0.5801560000000 1.0
C      1  0.4079860000000  0.4482600000000  0.4813110000000 1.0
C      1  0.4915140000000  0.4437120000000  0.4101090000000 1.0
C      1  0.5898540000000  0.4403300000000  0.4582550000000 1.0
C      1  0.4369150000000  0.5602900000000  0.5612450000000 1.0
C      1  0.5414770000000  0.5542520000000  0.5794820000000 1.0
C      1  0.5931000000000  0.5506090000000  0.4812460000000 1.0
C      1  0.5085440000000  0.5569540000000  0.4090150000000 1.0
C      1  0.4102330000000  0.5591870000000  0.4567990000000 1.0
C      1  0.4612750000000  0.4717890000000  0.5924550000000 1.0
C      1  0.3956220000000  0.4734160000000  0.4859670000000 1.0
C      1  0.4865020000000  0.4668930000000  0.3945610000000 1.0
C      1  0.5992350000000  0.4660060000000  0.4513810000000 1.0
C      1  0.5737870000000  0.4648420000000  0.5667880000000 1.0
C      1  0.5430290000000  0.5283280000000  0.5916280000000 1.0
C      1  0.6070110000000  0.5263240000000  0.4881180000000 1.0
C      1  0.5146920000000  0.5337990000000  0.3938030000000 1.0
C      1  0.4002030000000  0.5339300000000  0.4502520000000 1.0
C      1  0.4233800000000  0.5340730000000  0.5648770000000 1.0
C      1  0.5441100000000  0.5757410000000  0.5329940000000 1.0
C      1  0.4787120000000  0.5889000000000  0.5681010000000 1.0
C      1  0.4441240000000  0.5768370000000  0.4871920000000 1.0
C      1  0.4785120000000  0.5758680000000  0.4468550000000 1.0
C      1  0.5560530000000  0.5723670000000  0.4621600000000 1.0
C      1  0.4558450000000  0.4238270000000  0.5339350000000 1.0
C      1  0.5210970000000  0.4081630000000  0.5690450000000 1.0
C      1  0.5558540000000  0.4223310000000  0.4880990000000 1.0
C      1  0.5215420000000  0.4230610000000  0.4477210000000 1.0
C      1  0.4444120000000  0.4251540000000  0.4628570000000 1.0
C      1  0.5500800000000  0.5013690000000  0.4058970000000 1.0
C      1  0.5132430000000  0.4921490000000  0.6059870000000 1.0
C      1  0.4507470000000  0.5001800000000  0.3944680000000 1.0
C      1  0.3948320000000  0.5093300000000  0.5214470000000 1.0
C      1  0.6042800000000  0.4901840000000  0.5231400000000 1.0
C      1  0.4967180000000  0.5155350000000  0.4824390000000 1.0
C      1  0.5023220000000  0.4837130000000  0.4827540000000 1.0
C      1  0.4818940000000  0.4121760000000  0.4940330000000 1.0
C      1  0.5181810000000  0.5865560000000  0.4930100000000 1.0
END
