TITL C-28414-3592-3 -618.50782190763 125000 -1375.30476120387 0 0 191 (C1) n - 1
REM
REM in /rds/project/t2_vol4/rds-t2-cs072/BORA/CARBON/from-Arr/AIRSS/Generating-Clusters/GAP-ML-2020/Higher-Symm/SD-CG/HFTN-CG/C160-200
REM
REM
REM
REM
REM
REM ./C.cell (6b4489405718ea1b717e0baf1da4c2d9)
REM AIRSS Version 0.9.1 bugfix July 2018 build 013d7b7c2542+ Fri, 06 Jul 2018 19:26:36 +0100
REM compiler GCC version 9.3.0
REM options -cpp -mtune=generic -march=x86-64 -g -O0
REM seed 928338331 1482847197 -1616268402 -851411860 -1781230925 -2095676853 -363817601 1378030291 869447850 -400918517 -665655720 -731170625 1577148289 936294528 763782408 212836391 2121998365 -1693332038 -879527666 -513018108 -1522041207 -1041877163 406509921 2030949569 1120300442 -1199652390 854925456 -478579986 -1302940393 -525596949 -1744520642 -995767378 -107339841
REM
CELL 1.54180   50.00000   50.00000   50.00000   90.00000   90.00000   90.00000
LATT -1
SFAC C  
C      1  0.5102360000000  0.4584410000000  0.4018990000000 1.0
C      1  0.5130970000000  0.4023500000000  0.4748860000000 1.0
C      1  0.5148200000000  0.4202790000000  0.5599470000000 1.0
C      1  0.5111500000000  0.4944390000000  0.6071580000000 1.0
C      1  0.5100350000000  0.5784060000000  0.5688210000000 1.0
C      1  0.5101830000000  0.5964750000000  0.4797610000000 1.0
C      1  0.5122110000000  0.5467130000000  0.4081300000000 1.0
C      1  0.5914150000000  0.5284480000000  0.5700260000000 1.0
C      1  0.5823580000000  0.5614570000000  0.5157190000000 1.0
C      1  0.5882800000000  0.5539160000000  0.4596400000000 1.0
C      1  0.5878910000000  0.5015690000000  0.4331730000000 1.0
C      1  0.5821710000000  0.4506690000000  0.4554690000000 1.0
C      1  0.5903260000000  0.4359310000000  0.5100880000000 1.0
C      1  0.5915200000000  0.4696200000000  0.5671500000000 1.0
C      1  0.4993560000000  0.4024500000000  0.5437710000000 1.0
C      1  0.4968000000000  0.4694800000000  0.6076200000000 1.0
C      1  0.4952740000000  0.5626900000000  0.5874890000000 1.0
C      1  0.4949780000000  0.6048310000000  0.5025970000000 1.0
C      1  0.4967240000000  0.5700600000000  0.4151990000000 1.0
C      1  0.4959990000000  0.4803790000000  0.3898200000000 1.0
C      1  0.4975890000000  0.4044940000000  0.4506630000000 1.0
C      1  0.4977780000000  0.5178670000000  0.5307800000000 1.0
C      1  0.4958930000000  0.5333970000000  0.5022060000000 1.0
C      1  0.4910740000000  0.5241590000000  0.4733530000000 1.0
C      1  0.4933680000000  0.4964740000000  0.4612490000000 1.0
C      1  0.4954920000000  0.4722720000000  0.4789540000000 1.0
C      1  0.4955690000000  0.4683500000000  0.5107130000000 1.0
C      1  0.4960130000000  0.4878940000000  0.5345230000000 1.0
C      1  0.4447580000000  0.5982450000000  0.4936230000000 1.0
C      1  0.4464650000000  0.5576420000000  0.4166120000000 1.0
C      1  0.4465060000000  0.4723750000000  0.4019240000000 1.0
C      1  0.4485800000000  0.4077640000000  0.4623420000000 1.0
C      1  0.4496050000000  0.4132360000000  0.5483760000000 1.0
C      1  0.4476870000000  0.4830850000000  0.5987080000000 1.0
C      1  0.4457800000000  0.5649940000000  0.5731170000000 1.0
C      1  0.5529730000000  0.4407200000000  0.4176000000000 1.0
C      1  0.5562500000000  0.3999260000000  0.4958480000000 1.0
C      1  0.5574200000000  0.4349820000000  0.5776780000000 1.0
C      1  0.5538380000000  0.5183560000000  0.6021310000000 1.0
C      1  0.5526490000000  0.5864720000000  0.5466700000000 1.0
C      1  0.5540940000000  0.5915080000000  0.4589100000000 1.0
C      1  0.5555850000000  0.5257270000000  0.4018010000000 1.0
C      1  0.4310880000000  0.4467260000000  0.5766850000000 1.0
C      1  0.4305350000000  0.5263880000000  0.5889440000000 1.0
C      1  0.4309370000000  0.5869940000000  0.5342680000000 1.0
C      1  0.4299450000000  0.5844940000000  0.4495340000000 1.0
C      1  0.4292150000000  0.5153140000000  0.4045710000000 1.0
C      1  0.4310240000000  0.4355670000000  0.4289110000000 1.0
C      1  0.4341190000000  0.4058180000000  0.5060910000000 1.0
C      1  0.4470170000000  0.4665890000000  0.5134100000000 1.0
C      1  0.4469850000000  0.4904120000000  0.5379050000000 1.0
C      1  0.4527760000000  0.5193070000000  0.5335560000000 1.0
C      1  0.4490850000000  0.5328510000000  0.5097850000000 1.0
C      1  0.4410880000000  0.5214510000000  0.4658760000000 1.0
C      1  0.4442340000000  0.4915740000000  0.4575880000000 1.0
C      1  0.4464230000000  0.4671910000000  0.4790860000000 1.0
C      1  0.4504680000000  0.5296630000000  0.4109560000000 1.0
C      1  0.4508260000000  0.4508040000000  0.4208220000000 1.0
C      1  0.4551140000000  0.4093710000000  0.4903510000000 1.0
C      1  0.4527610000000  0.4361620000000  0.5655160000000 1.0
C      1  0.4517380000000  0.5109990000000  0.5913160000000 1.0
C      1  0.4511560000000  0.5762430000000  0.5473610000000 1.0
C      1  0.4490500000000  0.5854720000000  0.4684160000000 1.0
C      1  0.4725700000000  0.3988730000000  0.5445920000000 1.0
C      1  0.4696310000000  0.4692980000000  0.6073550000000 1.0
C      1  0.4679640000000  0.5625510000000  0.5885760000000 1.0
C      1  0.4680760000000  0.6079160000000  0.5037210000000 1.0
C      1  0.4697620000000  0.5718130000000  0.4136830000000 1.0
C      1  0.4689520000000  0.4807430000000  0.3889430000000 1.0
C      1  0.4709000000000  0.4010850000000  0.4486180000000 1.0
C      1  0.5393170000000  0.4207240000000  0.4308560000000 1.0
C      1  0.5431760000000  0.3987940000000  0.5200890000000 1.0
C      1  0.5420250000000  0.4500360000000  0.5956330000000 1.0
C      1  0.5395510000000  0.5416580000000  0.5976960000000 1.0
C      1  0.5386520000000  0.5992940000000  0.5263890000000 1.0
C      1  0.5398390000000  0.5838970000000  0.4364230000000 1.0
C      1  0.5404030000000  0.5043080000000  0.3924580000000 1.0
C      1  0.5143260000000  0.5014170000000  0.4406750000000 1.0
C      1  0.5237720000000  0.4614930000000  0.4750850000000 1.0
C      1  0.5217580000000  0.4500490000000  0.5022800000000 1.0
C      1  0.5156760000000  0.4742200000000  0.5524930000000 1.0
C      1  0.5257300000000  0.5284930000000  0.5355170000000 1.0
C      1  0.5241870000000  0.5431610000000  0.5105920000000 1.0
C      1  0.5106780000000  0.5438470000000  0.4636120000000 1.0
C      1  0.4970090000000  0.5822120000000  0.5443610000000 1.0
C      1  0.5000360000000  0.5733950000000  0.4642160000000 1.0
C      1  0.5016550000000  0.5201060000000  0.4172380000000 1.0
C      1  0.4973990000000  0.4446580000000  0.4229080000000 1.0
C      1  0.5059030000000  0.4199930000000  0.4979000000000 1.0
C      1  0.5038890000000  0.4476290000000  0.5645000000000 1.0
C      1  0.4982880000000  0.5156230000000  0.5938340000000 1.0
C      1  0.3821270000000  0.4803780000000  0.4714440000000 1.0
C      1  0.3839960000000  0.4669990000000  0.4967680000000 1.0
C      1  0.3839110000000  0.4782680000000  0.5230010000000 1.0
C      1  0.3811410000000  0.5054340000000  0.5311780000000 1.0
C      1  0.3782770000000  0.5289740000000  0.5150650000000 1.0
C      1  0.3795940000000  0.5303410000000  0.4862250000000 1.0
C      1  0.3808100000000  0.5089230000000  0.4667320000000 1.0
C      1  0.5408610000000  0.4794820000000  0.5428080000000 1.0
C      1  0.5465060000000  0.5086200000000  0.5395460000000 1.0
C      1  0.5445380000000  0.5407310000000  0.4917220000000 1.0
C      1  0.5362490000000  0.5326440000000  0.4664180000000 1.0
C      1  0.5375580000000  0.5061570000000  0.4552590000000 1.0
C      1  0.5449630000000  0.4833960000000  0.4725990000000 1.0
C      1  0.5450040000000  0.4654210000000  0.5157880000000 1.0
C      1  0.4264340000000  0.4726930000000  0.5822790000000 1.0
C      1  0.4225770000000  0.5473360000000  0.5734920000000 1.0
C      1  0.4218500000000  0.5880040000000  0.5089100000000 1.0
C      1  0.4247140000000  0.5621360000000  0.4355290000000 1.0
C      1  0.4248030000000  0.4892400000000  0.4102920000000 1.0
C      1  0.4271960000000  0.4248160000000  0.4534130000000 1.0
C      1  0.4289460000000  0.4185760000000  0.5290880000000 1.0
C      1  0.5544930000000  0.4813440000000  0.3991180000000 1.0
C      1  0.5542270000000  0.4101260000000  0.4520230000000 1.0
C      1  0.5587350000000  0.4101040000000  0.5404030000000 1.0
C      1  0.5556620000000  0.4735320000000  0.6024540000000 1.0
C      1  0.5542770000000  0.5600710000000  0.5826150000000 1.0
C      1  0.5534510000000  0.5999870000000  0.5028390000000 1.0
C      1  0.5555240000000  0.5653230000000  0.4225660000000 1.0
C      1  0.5149240000000  0.4024330000000  0.5199470000000 1.0
C      1  0.5131320000000  0.4504700000000  0.5933390000000 1.0
C      1  0.5110110000000  0.5404790000000  0.5958220000000 1.0
C      1  0.5100640000000  0.5990050000000  0.5262030000000 1.0
C      1  0.5110980000000  0.5821420000000  0.4370310000000 1.0
C      1  0.5114490000000  0.5042530000000  0.3936050000000 1.0
C      1  0.5108960000000  0.4213440000000  0.4317180000000 1.0
C      1  0.5806620000000  0.4435910000000  0.5621470000000 1.0
C      1  0.5786810000000  0.5115670000000  0.5896250000000 1.0
C      1  0.5754050000000  0.5687580000000  0.5425640000000 1.0
C      1  0.5772560000000  0.5779270000000  0.4702250000000 1.0
C      1  0.5783860000000  0.5253080000000  0.4204580000000 1.0
C      1  0.5754030000000  0.4543770000000  0.4286610000000 1.0
C      1  0.5781080000000  0.4169810000000  0.4908960000000 1.0
C      1  0.4763170000000  0.5298740000000  0.5474320000000 1.0
C      1  0.4724630000000  0.5522930000000  0.5049370000000 1.0
C      1  0.4674360000000  0.5360450000000  0.4588310000000 1.0
C      1  0.4703400000000  0.4911370000000  0.4424150000000 1.0
C      1  0.4734430000000  0.4535680000000  0.4709370000000 1.0
C      1  0.4730450000000  0.4509350000000  0.5187770000000 1.0
C      1  0.4724060000000  0.4835830000000  0.5534840000000 1.0
C      1  0.5761570000000  0.5832790000000  0.4980290000000 1.0
C      1  0.5782530000000  0.5505010000000  0.4331920000000 1.0
C      1  0.5765100000000  0.4801750000000  0.4181930000000 1.0
C      1  0.5756590000000  0.4245590000000  0.4639520000000 1.0
C      1  0.5808970000000  0.4279710000000  0.5380500000000 1.0
C      1  0.5794450000000  0.4830690000000  0.5892680000000 1.0
C      1  0.5775970000000  0.5533390000000  0.5668340000000 1.0
C      1  0.3987920000000  0.5108210000000  0.5523540000000 1.0
C      1  0.3934130000000  0.5500060000000  0.5267830000000 1.0
C      1  0.3976320000000  0.5508130000000  0.4793500000000 1.0
C      1  0.3991380000000  0.5151290000000  0.4464470000000 1.0
C      1  0.4013030000000  0.4686480000000  0.4545440000000 1.0
C      1  0.4040690000000  0.4474380000000  0.4959750000000 1.0
C      1  0.4039330000000  0.4662020000000  0.5383600000000 1.0
C      1  0.4769270000000  0.4302110000000  0.4956130000000 1.0
C      1  0.4752810000000  0.4528790000000  0.5542620000000 1.0
C      1  0.4763860000000  0.5115430000000  0.5735670000000 1.0
C      1  0.4758600000000  0.5627340000000  0.5356200000000 1.0
C      1  0.4710770000000  0.5644770000000  0.4717340000000 1.0
C      1  0.4728700000000  0.5191460000000  0.4280050000000 1.0
C      1  0.4747770000000  0.4574390000000  0.4383080000000 1.0
C      1  0.5932580000000  0.4998440000000  0.4639430000000 1.0
C      1  0.5752520000000  0.4737190000000  0.4738550000000 1.0
C      1  0.5752020000000  0.4633600000000  0.5050040000000 1.0
C      1  0.5851560000000  0.4860040000000  0.5205650000000 1.0
C      1  0.5648990000000  0.5079930000000  0.5154750000000 1.0
C      1  0.5720190000000  0.5344940000000  0.5014730000000 1.0
C      1  0.5920960000000  0.5293100000000  0.4782970000000 1.0
C      1  0.6244240000000  0.4693070000000  0.4907440000000 1.0
C      1  0.6176280000000  0.4470260000000  0.5010240000000 1.0
C      1  0.5992230000000  0.4869210000000  0.5454480000000 1.0
C      1  0.6063070000000  0.5154610000000  0.5480760000000 1.0
C      1  0.6162630000000  0.5247230000000  0.5235430000000 1.0
C      1  0.6165430000000  0.5200300000000  0.4963900000000 1.0
C      1  0.6187750000000  0.4949750000000  0.4809720000000 1.0
C      1  0.5402390000000  0.3974790000000  0.4727600000000 1.0
C      1  0.5424560000000  0.4174530000000  0.5622230000000 1.0
C      1  0.5391970000000  0.4954160000000  0.6087490000000 1.0
C      1  0.5382490000000  0.5790840000000  0.5693710000000 1.0
C      1  0.5377540000000  0.6011950000000  0.4794930000000 1.0
C      1  0.5400850000000  0.5485740000000  0.4060190000000 1.0
C      1  0.5383820000000  0.4582950000000  0.4017250000000 1.0
C      1  0.4194880000000  0.4472430000000  0.5217640000000 1.0
C      1  0.4173930000000  0.4862220000000  0.5561080000000 1.0
C      1  0.4036230000000  0.5394270000000  0.5529970000000 1.0
C      1  0.4025120000000  0.5670330000000  0.5036530000000 1.0
C      1  0.4135980000000  0.5400960000000  0.4536730000000 1.0
C      1  0.4144060000000  0.4892770000000  0.4386090000000 1.0
C      1  0.4178240000000  0.4483490000000  0.4702370000000 1.0
C      1  0.4336380000000  0.5181820000000  0.4931130000000 1.0
C      1  0.5438770000000  0.4914650000000  0.5008210000000 1.0
END
