TITL C-28431-6661-1 -0.420910536078578 125000 -1105.9276804143 0 0 160 (S10) n - 1
REM
REM in /rds/project/t2_vol4/rds-t2-cs072/BORA/CARBON/from-Arr/AIRSS/Generating-Clusters/GAP-ML-2020/Higher-Symm/SD-CG/HFTN-CG/C160-200
REM
REM
REM
REM
REM
REM ./C.cell (6b4489405718ea1b717e0baf1da4c2d9)
REM AIRSS Version 0.9.1 bugfix July 2018 build 013d7b7c2542+ Fri, 06 Jul 2018 19:26:36 +0100
REM compiler GCC version 9.3.0
REM options -cpp -mtune=generic -march=x86-64 -g -O0
REM seed -422658224 1481783125 147766188 -587007964 1456499221 -1351699947 1445373335 1399086580 -1395696093 384858672 395882934 -143320700 -1061388158 -1123934845 2078937226 39557346 660433692 -167091771 143910224 -2098808834 -1597328962 320220605 1770645643 1541099075 819987748 1559906269 -1046132913 -1100424341 -1176004513 1346824798 -306208296 -1557470770 742705097
REM
CELL 1.54180   50.00000   50.00000   50.00000   90.00000   90.00000   90.00000
LATT -1
SFAC C  
C      1  0.6014350000000  0.4764330000000  0.4935570000000 1.0
C      1  0.3985650000000  0.4771520000000  0.5086460000000 1.0
C      1  0.6014360000000  0.4865920000000  0.5204180000000 1.0
C      1  0.3985660000000  0.5011600000000  0.5244060000000 1.0
C      1  0.6014360000000  0.5152780000000  0.5190570000000 1.0
C      1  0.3985650000000  0.5235670000000  0.5064430000000 1.0
C      1  0.6014350000000  0.5228480000000  0.4913540000000 1.0
C      1  0.3985640000000  0.5134080000000  0.4795820000000 1.0
C      1  0.6014340000000  0.4988400000000  0.4755940000000 1.0
C      1  0.3985640000000  0.4847220000000  0.4809430000000 1.0
C      1  0.4392670000000  0.5255220000000  0.5336430000000 1.0
C      1  0.5607360000000  0.5404190000000  0.5122130000000 1.0
C      1  0.4392650000000  0.5398820000000  0.4861260000000 1.0
C      1  0.5607340000000  0.5241070000000  0.4653300000000 1.0
C      1  0.4392630000000  0.4991280000000  0.4577850000000 1.0
C      1  0.5607330000000  0.4744780000000  0.4663570000000 1.0
C      1  0.4392640000000  0.4595810000000  0.4877870000000 1.0
C      1  0.5607350000000  0.4601180000000  0.5138740000000 1.0
C      1  0.4392660000000  0.4758930000000  0.5346700000000 1.0
C      1  0.5607370000000  0.5008720000000  0.5422150000000 1.0
C      1  0.4930770000000  0.5941320000000  0.4384600000000 1.0
C      1  0.5069190000000  0.5399820000000  0.3948830000000 1.0
C      1  0.4930720000000  0.4705600000000  0.3914580000000 1.0
C      1  0.5069180000000  0.4123830000000  0.4294920000000 1.0
C      1  0.4930750000000  0.3876730000000  0.4944580000000 1.0
C      1  0.5069230000000  0.4058680000000  0.5615400000000 1.0
C      1  0.4930810000000  0.4600180000000  0.6051170000000 1.0
C      1  0.5069280000000  0.5294400000000  0.6085420000000 1.0
C      1  0.4930820000000  0.5876170000000  0.5705080000000 1.0
C      1  0.5069250000000  0.6123270000000  0.5055420000000 1.0
C      1  0.5110460000000  0.5629610000000  0.4922580000000 1.0
C      1  0.4889540000000  0.5463860000000  0.4567290000000 1.0
C      1  0.5110430000000  0.5120930000000  0.4377270000000 1.0
C      1  0.4889520000000  0.4731810000000  0.4425130000000 1.0
C      1  0.5110430000000  0.4445130000000  0.4692550000000 1.0
C      1  0.4889540000000  0.4370390000000  0.5077420000000 1.0
C      1  0.5110460000000  0.4536140000000  0.5432710000000 1.0
C      1  0.4889570000000  0.4879070000000  0.5622730000000 1.0
C      1  0.5110480000000  0.5268190000000  0.5574870000000 1.0
C      1  0.4889570000000  0.5554870000000  0.5307450000000 1.0
C      1  0.5326760000000  0.4991370000000  0.5273250000000 1.0
C      1  0.4673260000000  0.5153640000000  0.5226160000000 1.0
C      1  0.5326760000000  0.5257210000000  0.5092640000000 1.0
C      1  0.4673250000000  0.5262560000000  0.4923780000000 1.0
C      1  0.5326740000000  0.5167590000000  0.4783990000000 1.0
C      1  0.4673240000000  0.5008630000000  0.4726750000000 1.0
C      1  0.5326740000000  0.4846360000000  0.4773840000000 1.0
C      1  0.4673240000000  0.4742790000000  0.4907360000000 1.0
C      1  0.5326750000000  0.4737440000000  0.5076220000000 1.0
C      1  0.4673260000000  0.4832410000000  0.5216010000000 1.0
C      1  0.5284210000000  0.4827850000000  0.5788130000000 1.0
C      1  0.4715860000000  0.5323990000000  0.5738820000000 1.0
C      1  0.5284210000000  0.5696370000000  0.5407260000000 1.0
C      1  0.4715830000000  0.5802770000000  0.4920180000000 1.0
C      1  0.5284170000000  0.5602520000000  0.4463550000000 1.0
C      1  0.4715790000000  0.5172150000000  0.4211870000000 1.0
C      1  0.5284140000000  0.4676010000000  0.4261180000000 1.0
C      1  0.4715790000000  0.4303630000000  0.4592740000000 1.0
C      1  0.5284170000000  0.4197230000000  0.5079820000000 1.0
C      1  0.4715830000000  0.4397480000000  0.5536450000000 1.0
C      1  0.5150280000000  0.5327290000000  0.4557240000000 1.0
C      1  0.4849690000000  0.5004540000000  0.4449430000000 1.0
C      1  0.5150270000000  0.4680050000000  0.4551900000000 1.0
C      1  0.4849690000000  0.4477780000000  0.4825550000000 1.0
C      1  0.5150290000000  0.4474970000000  0.5165810000000 1.0
C      1  0.4849720000000  0.4672710000000  0.5442760000000 1.0
C      1  0.5150310000000  0.4995460000000  0.5550570000000 1.0
C      1  0.4849730000000  0.5319950000000  0.5448100000000 1.0
C      1  0.5150310000000  0.5522220000000  0.5174450000000 1.0
C      1  0.4849710000000  0.5525030000000  0.4834190000000 1.0
C      1  0.5543410000000  0.5822070000000  0.4793690000000 1.0
C      1  0.4456580000000  0.5543830000000  0.4349920000000 1.0
C      1  0.5543370000000  0.5057830000000  0.4154390000000 1.0
C      1  0.4456560000000  0.4549780000000  0.4281920000000 1.0
C      1  0.5543380000000  0.4213660000000  0.4683660000000 1.0
C      1  0.4456590000000  0.4177930000000  0.5206310000000 1.0
C      1  0.5543420000000  0.4456170000000  0.5650080000000 1.0
C      1  0.4456630000000  0.4942170000000  0.5845610000000 1.0
C      1  0.5543440000000  0.5450220000000  0.5718080000000 1.0
C      1  0.4456620000000  0.5786340000000  0.5316340000000 1.0
C      1  0.5103300000000  0.5749740000000  0.4252970000000 1.0
C      1  0.4896650000000  0.5167460000000  0.3954960000000 1.0
C      1  0.5103270000000  0.4521210000000  0.4056110000000 1.0
C      1  0.4896650000000  0.4057850000000  0.4517810000000 1.0
C      1  0.5103300000000  0.3954360000000  0.5163670000000 1.0
C      1  0.4896700000000  0.4250260000000  0.5747030000000 1.0
C      1  0.5103350000000  0.4832540000000  0.6045040000000 1.0
C      1  0.4896730000000  0.5478790000000  0.5943890000000 1.0
C      1  0.5103350000000  0.5942150000000  0.5482190000000 1.0
C      1  0.4896700000000  0.6045640000000  0.4836330000000 1.0
C      1  0.4658200000000  0.4734570000000  0.3938190000000 1.0
C      1  0.5341710000000  0.4161130000000  0.4296970000000 1.0
C      1  0.4658230000000  0.3908130000000  0.4924340000000 1.0
C      1  0.5341750000000  0.4072170000000  0.5580550000000 1.0
C      1  0.4658280000000  0.4590630000000  0.6015070000000 1.0
C      1  0.5341800000000  0.5265430000000  0.6061810000000 1.0
C      1  0.4658290000000  0.5838870000000  0.5703030000000 1.0
C      1  0.5341770000000  0.6091870000000  0.5075660000000 1.0
C      1  0.4658250000000  0.5927830000000  0.4419450000000 1.0
C      1  0.5341720000000  0.5409370000000  0.3984930000000 1.0
C      1  0.4288980000000  0.5697680000000  0.5104300000000 1.0
C      1  0.5711040000000  0.5625700000000  0.4674250000000 1.0
C      1  0.4288940000000  0.5314770000000  0.4368730000000 1.0
C      1  0.5711010000000  0.4883560000000  0.4304230000000 1.0
C      1  0.4288930000000  0.4496870000000  0.4505600000000 1.0
C      1  0.5711020000000  0.4302320000000  0.4895700000000 1.0
C      1  0.4288960000000  0.4374300000000  0.5325750000000 1.0
C      1  0.5711060000000  0.4685230000000  0.5631270000000 1.0
C      1  0.4288990000000  0.5116440000000  0.5695770000000 1.0
C      1  0.5711070000000  0.5503130000000  0.5494400000000 1.0
C      1  0.4223120000000  0.5240900000000  0.4649490000000 1.0
C      1  0.5776850000000  0.4988830000000  0.4574790000000 1.0
C      1  0.4223110000000  0.4741070000000  0.4662610000000 1.0
C      1  0.5776860000000  0.4592170000000  0.4879190000000 1.0
C      1  0.4223130000000  0.4599090000000  0.5142030000000 1.0
C      1  0.5776880000000  0.4759100000000  0.5350510000000 1.0
C      1  0.4223150000000  0.5011170000000  0.5425210000000 1.0
C      1  0.5776890000000  0.5258930000000  0.5337390000000 1.0
C      1  0.4223140000000  0.5407830000000  0.5120810000000 1.0
C      1  0.5776870000000  0.5400910000000  0.4857970000000 1.0
C      1  0.4458150000000  0.4790740000000  0.4117250000000 1.0
C      1  0.5541770000000  0.4311810000000  0.4408810000000 1.0
C      1  0.4458170000000  0.4095780000000  0.4926260000000 1.0
C      1  0.5541820000000  0.4225090000000  0.5471790000000 1.0
C      1  0.4458220000000  0.4650430000000  0.5837200000000 1.0
C      1  0.5541850000000  0.5209260000000  0.5882750000000 1.0
C      1  0.4458230000000  0.5688190000000  0.5591190000000 1.0
C      1  0.5541830000000  0.5904220000000  0.5073740000000 1.0
C      1  0.4458180000000  0.5774910000000  0.4528210000000 1.0
C      1  0.5541780000000  0.5349570000000  0.4162800000000 1.0
C      1  0.5564210000000  0.5486980000000  0.4437830000000 1.0
C      1  0.4435750000000  0.5063570000000  0.4258990000000 1.0
C      1  0.5564190000000  0.4615840000000  0.4363110000000 1.0
C      1  0.4435760000000  0.4314890000000  0.4710580000000 1.0
C      1  0.5564210000000  0.4275580000000  0.5168520000000 1.0
C      1  0.4435790000000  0.4513020000000  0.5562170000000 1.0
C      1  0.5564250000000  0.4936430000000  0.5741010000000 1.0
C      1  0.4435810000000  0.5384160000000  0.5636890000000 1.0
C      1  0.5564240000000  0.5685110000000  0.5289420000000 1.0
C      1  0.4435790000000  0.5724420000000  0.4831480000000 1.0
C      1  0.5064160000000  0.4949700000000  0.3929220000000 1.0
C      1  0.4935750000000  0.4329920000000  0.4163290000000 1.0
C      1  0.5064170000000  0.3966080000000  0.4716940000000 1.0
C      1  0.4935800000000  0.3997170000000  0.5378730000000 1.0
C      1  0.5064230000000  0.4411300000000  0.5895840000000 1.0
C      1  0.4935840000000  0.5050300000000  0.6070780000000 1.0
C      1  0.5064250000000  0.5670080000000  0.5836710000000 1.0
C      1  0.4935830000000  0.6033920000000  0.5283060000000 1.0
C      1  0.5064200000000  0.6002830000000  0.4621270000000 1.0
C      1  0.4935770000000  0.5588700000000  0.4104160000000 1.0
C      1  0.4733500000000  0.4212050000000  0.5306710000000 1.0
C      1  0.5266510000000  0.4542810000000  0.5711260000000 1.0
C      1  0.4733540000000  0.5048210000000  0.5844170000000 1.0
C      1  0.5266530000000  0.5535180000000  0.5654600000000 1.0
C      1  0.4733530000000  0.5817750000000  0.5215030000000 1.0
C      1  0.5266500000000  0.5787950000000  0.4693290000000 1.0
C      1  0.4733490000000  0.5457190000000  0.4288740000000 1.0
C      1  0.5266460000000  0.4951790000000  0.4155830000000 1.0
C      1  0.4733470000000  0.4464820000000  0.4345400000000 1.0
C      1  0.5266470000000  0.4182250000000  0.4784970000000 1.0
END
