TITL C-28424-6743-3 0.155972738840461 125000 -1255.98312417432 0 0 176 (C1) n - 1
REM
REM in /rds/project/t2_vol4/rds-t2-cs072/BORA/CARBON/from-Arr/AIRSS/Generating-Clusters/GAP-ML-2020/Higher-Symm/SD-CG/HFTN-CG/C160-200
REM
REM
REM
REM
REM
REM ./C.cell (6b4489405718ea1b717e0baf1da4c2d9)
REM AIRSS Version 0.9.1 bugfix July 2018 build 013d7b7c2542+ Fri, 06 Jul 2018 19:26:36 +0100
REM compiler GCC version 9.3.0
REM options -cpp -mtune=generic -march=x86-64 -g -O0
REM seed -1527888107 700277527 679049665 892593785 -1954600320 1332445888 1362908726 532493820 805527533 278113113 1291200346 651802845 963837478 913319933 890403359 -1858186110 -1481939009 1878477647 1088083203 2101415664 -2034153531 -204143694 -1680299089 1874550236 242132730 -524970982 -1001821125 1410280301 1209534244 577102857 699064321 -681419776 -1587547540
REM
CELL 1.54180   50.00000   50.00000   50.00000   90.00000   90.00000   90.00000
LATT -1
SFAC C  
C      1  0.4953390000000  0.5841390000000  0.5607210000000 1.0
C      1  0.4951080000000  0.4046160000000  0.5420290000000 1.0
C      1  0.4954310000000  0.5103350000000  0.3955730000000 1.0
C      1  0.3978830000000  0.5440670000000  0.4776050000000 1.0
C      1  0.3979290000000  0.4963540000000  0.5488210000000 1.0
C      1  0.3978610000000  0.4585370000000  0.4719190000000 1.0
C      1  0.5028990000000  0.3977060000000  0.5680610000000 1.0
C      1  0.5028530000000  0.4912550000000  0.3762890000000 1.0
C      1  0.5030070000000  0.6101350000000  0.5536930000000 1.0
C      1  0.5608550000000  0.5408080000000  0.5824670000000 1.0
C      1  0.5609230000000  0.4068850000000  0.4935280000000 1.0
C      1  0.5607240000000  0.5509710000000  0.4227430000000 1.0
C      1  0.5955690000000  0.5497170000000  0.4993380000000 1.0
C      1  0.5953360000000  0.4747600000000  0.5430610000000 1.0
C      1  0.5927840000000  0.4744460000000  0.4570280000000 1.0
C      1  0.4162660000000  0.5654030000000  0.5178410000000 1.0
C      1  0.4163590000000  0.4508920000000  0.5471950000000 1.0
C      1  0.4161270000000  0.4826790000000  0.4332780000000 1.0
C      1  0.4732520000000  0.5920040000000  0.4751770000000 1.0
C      1  0.4732990000000  0.4746280000000  0.5915950000000 1.0
C      1  0.4730740000000  0.4324360000000  0.4314960000000 1.0
C      1  0.4887750000000  0.4970040000000  0.5466400000000 1.0
C      1  0.4890780000000  0.4603960000000  0.4733270000000 1.0
C      1  0.4887240000000  0.5419080000000  0.4782690000000 1.0
C      1  0.5040180000000  0.5902470000000  0.4301110000000 1.0
C      1  0.5040630000000  0.5145380000000  0.6126550000000 1.0
C      1  0.5039910000000  0.3942560000000  0.4557500000000 1.0
C      1  0.5449270000000  0.3982680000000  0.5157600000000 1.0
C      1  0.5449930000000  0.5363440000000  0.4038990000000 1.0
C      1  0.5449550000000  0.5643330000000  0.5790190000000 1.0
C      1  0.4619940000000  0.5020170000000  0.5985970000000 1.0
C      1  0.4619500000000  0.4127810000000  0.4518540000000 1.0
C      1  0.4619900000000  0.5842830000000  0.4479130000000 1.0
C      1  0.4744070000000  0.5483110000000  0.5862460000000 1.0
C      1  0.4743550000000  0.4003120000000  0.4981800000000 1.0
C      1  0.4745340000000  0.5503060000000  0.4140500000000 1.0
C      1  0.4098270000000  0.5239350000000  0.5497830000000 1.0
C      1  0.4098880000000  0.4439590000000  0.4953150000000 1.0
C      1  0.4098110000000  0.5311100000000  0.4532250000000 1.0
C      1  0.5177510000000  0.6140550000000  0.5305820000000 1.0
C      1  0.5177940000000  0.4158230000000  0.5828180000000 1.0
C      1  0.5177360000000  0.4694050000000  0.3849690000000 1.0
C      1  0.5033250000000  0.6096240000000  0.5052060000000 1.0
C      1  0.5034890000000  0.4399710000000  0.5916810000000 1.0
C      1  0.5034640000000  0.4495570000000  0.4013730000000 1.0
C      1  0.5209160000000  0.5525120000000  0.4005940000000 1.0
C      1  0.5208490000000  0.5589540000000  0.5946300000000 1.0
C      1  0.5207370000000  0.3874670000000  0.5033860000000 1.0
C      1  0.5343070000000  0.4931020000000  0.4484720000000 1.0
C      1  0.5357720000000  0.5465290000000  0.5173790000000 1.0
C      1  0.5357040000000  0.4612400000000  0.5306820000000 1.0
C      1  0.5964440000000  0.4757300000000  0.4851910000000 1.0
C      1  0.5982770000000  0.5245590000000  0.4860220000000 1.0
C      1  0.5982760000000  0.4989880000000  0.5280410000000 1.0
C      1  0.5583960000000  0.5505180000000  0.5374590000000 1.0
C      1  0.5578340000000  0.4413850000000  0.5243030000000 1.0
C      1  0.5572930000000  0.5075640000000  0.4371230000000 1.0
C      1  0.5844170000000  0.4992920000000  0.4467560000000 1.0
C      1  0.5863170000000  0.5461910000000  0.5259730000000 1.0
C      1  0.5858040000000  0.4531880000000  0.5269730000000 1.0
C      1  0.4949940000000  0.4619440000000  0.6086510000000 1.0
C      1  0.4947290000000  0.4238940000000  0.4118700000000 1.0
C      1  0.4948890000000  0.6131830000000  0.4776590000000 1.0
C      1  0.4378840000000  0.4222160000000  0.4616180000000 1.0
C      1  0.4378620000000  0.5711810000000  0.4512130000000 1.0
C      1  0.4378530000000  0.5056900000000  0.5855950000000 1.0
C      1  0.4613090000000  0.4288080000000  0.5367230000000 1.0
C      1  0.4609220000000  0.5027490000000  0.4191520000000 1.0
C      1  0.4611120000000  0.5674870000000  0.5423210000000 1.0
C      1  0.5114500000000  0.6077230000000  0.4532940000000 1.0
C      1  0.5115430000000  0.4857440000000  0.6161530000000 1.0
C      1  0.5113600000000  0.4056740000000  0.4288280000000 1.0
C      1  0.5598230000000  0.5927720000000  0.4479120000000 1.0
C      1  0.5598930000000  0.4980320000000  0.6060910000000 1.0
C      1  0.5591650000000  0.4070160000000  0.4445850000000 1.0
C      1  0.4205000000000  0.4913520000000  0.4848840000000 1.0
C      1  0.4203840000000  0.5163250000000  0.4994550000000 1.0
C      1  0.4204380000000  0.4912380000000  0.5138010000000 1.0
C      1  0.4790700000000  0.5236540000000  0.6022000000000 1.0
C      1  0.4790030000000  0.3988490000000  0.4688440000000 1.0
C      1  0.4790770000000  0.5765210000000  0.4273950000000 1.0
C      1  0.4458150000000  0.4823640000000  0.4732750000000 1.0
C      1  0.4456320000000  0.5308900000000  0.4974310000000 1.0
C      1  0.4457160000000  0.4857640000000  0.5274200000000 1.0
C      1  0.5343380000000  0.5013910000000  0.5011420000000 1.0
C      1  0.5412230000000  0.5280330000000  0.4945870000000 1.0
C      1  0.5414030000000  0.4902820000000  0.5263660000000 1.0
C      1  0.5881160000000  0.5238670000000  0.4600090000000 1.0
C      1  0.5887880000000  0.5222490000000  0.5404550000000 1.0
C      1  0.5874770000000  0.4531950000000  0.4989010000000 1.0
C      1  0.5074180000000  0.5058570000000  0.4494030000000 1.0
C      1  0.5073390000000  0.5400620000000  0.5297910000000 1.0
C      1  0.5076000000000  0.4536310000000  0.5190440000000 1.0
C      1  0.4495810000000  0.4603630000000  0.5786050000000 1.0
C      1  0.4494160000000  0.4507740000000  0.4257170000000 1.0
C      1  0.4494940000000  0.5878860000000  0.4939890000000 1.0
C      1  0.3958780000000  0.4870120000000  0.4713880000000 1.0
C      1  0.3958370000000  0.5302590000000  0.5025160000000 1.0
C      1  0.3958980000000  0.4816830000000  0.5244050000000 1.0
C      1  0.5288810000000  0.4448500000000  0.4479580000000 1.0
C      1  0.5282740000000  0.5720300000000  0.4780550000000 1.0
C      1  0.5284970000000  0.4822410000000  0.5728800000000 1.0
C      1  0.4030310000000  0.4530570000000  0.5218760000000 1.0
C      1  0.4029050000000  0.5035620000000  0.4478500000000 1.0
C      1  0.4029680000000  0.5423680000000  0.5286140000000 1.0
C      1  0.4425670000000  0.4794600000000  0.4212460000000 1.0
C      1  0.4427310000000  0.5774170000000  0.5210760000000 1.0
C      1  0.4428610000000  0.4421740000000  0.5559740000000 1.0
C      1  0.4547850000000  0.4176820000000  0.5097550000000 1.0
C      1  0.4547290000000  0.5316920000000  0.4231400000000 1.0
C      1  0.4546980000000  0.5496960000000  0.5654600000000 1.0
C      1  0.5519720000000  0.5255970000000  0.6050500000000 1.0
C      1  0.5518240000000  0.3946210000000  0.4691900000000 1.0
C      1  0.5519400000000  0.5781690000000  0.4245010000000 1.0
C      1  0.4906560000000  0.4340930000000  0.5398990000000 1.0
C      1  0.4901770000000  0.4972420000000  0.4218280000000 1.0
C      1  0.4905320000000  0.5676770000000  0.5362580000000 1.0
C      1  0.5613670000000  0.4367960000000  0.4934660000000 1.0
C      1  0.5615210000000  0.5360460000000  0.4487390000000 1.0
C      1  0.5621210000000  0.5260900000000  0.5565290000000 1.0
C      1  0.4923040000000  0.5273120000000  0.5064760000000 1.0
C      1  0.4924280000000  0.4799330000000  0.5198250000000 1.0
C      1  0.4926560000000  0.4918810000000  0.4720250000000 1.0
C      1  0.5247730000000  0.3871870000000  0.4744660000000 1.0
C      1  0.5249260000000  0.5773840000000  0.4151980000000 1.0
C      1  0.5249220000000  0.5339470000000  0.6089990000000 1.0
C      1  0.5001340000000  0.4686320000000  0.4235690000000 1.0
C      1  0.5001990000000  0.5808030000000  0.5107490000000 1.0
C      1  0.5003590000000  0.4496240000000  0.5639430000000 1.0
C      1  0.4647990000000  0.5250800000000  0.5167440000000 1.0
C      1  0.4650030000000  0.4720730000000  0.5127080000000 1.0
C      1  0.4650670000000  0.5019140000000  0.4686920000000 1.0
C      1  0.5480000000000  0.5073110000000  0.4085820000000 1.0
C      1  0.5483970000000  0.5748210000000  0.5514680000000 1.0
C      1  0.5481400000000  0.4171530000000  0.5384120000000 1.0
C      1  0.5098060000000  0.5181990000000  0.5489080000000 1.0
C      1  0.5105120000000  0.4482040000000  0.4904800000000 1.0
C      1  0.5097470000000  0.5332510000000  0.4588990000000 1.0
C      1  0.5915470000000  0.4787750000000  0.5704680000000 1.0
C      1  0.5883390000000  0.4490260000000  0.4459170000000 1.0
C      1  0.5914170000000  0.5715060000000  0.4823900000000 1.0
C      1  0.5793630000000  0.4260020000000  0.4443850000000 1.0
C      1  0.5810220000000  0.5845730000000  0.4637390000000 1.0
C      1  0.5811940000000  0.4884320000000  0.5911350000000 1.0
C      1  0.5358930000000  0.4189390000000  0.4340550000000 1.0
C      1  0.5358180000000  0.5963200000000  0.4622940000000 1.0
C      1  0.5359550000000  0.4836860000000  0.6018230000000 1.0
C      1  0.4953310000000  0.4503680000000  0.4465270000000 1.0
C      1  0.4951290000000  0.5701100000000  0.4832230000000 1.0
C      1  0.4952360000000  0.4787170000000  0.5686060000000 1.0
C      1  0.4284560000000  0.5802110000000  0.4764560000000 1.0
C      1  0.4284940000000  0.4793110000000  0.5807410000000 1.0
C      1  0.4283780000000  0.4394820000000  0.4411740000000 1.0
C      1  0.4087790000000  0.5667130000000  0.4900840000000 1.0
C      1  0.4088360000000  0.4742500000000  0.5622190000000 1.0
C      1  0.4086320000000  0.4579730000000  0.4460170000000 1.0
C      1  0.4955230000000  0.3927710000000  0.5155270000000 1.0
C      1  0.4958260000000  0.5391790000000  0.3989500000000 1.0
C      1  0.4956590000000  0.5670000000000  0.5841420000000 1.0
C      1  0.5392400000000  0.5927730000000  0.5307950000000 1.0
C      1  0.5392130000000  0.4263230000000  0.5641750000000 1.0
C      1  0.5392010000000  0.4803030000000  0.4034470000000 1.0
C      1  0.4381580000000  0.5413850000000  0.4468490000000 1.0
C      1  0.4381320000000  0.5243470000000  0.5619630000000 1.0
C      1  0.4382620000000  0.4333760000000  0.4895610000000 1.0
C      1  0.5365920000000  0.5051920000000  0.5522040000000 1.0
C      1  0.5356140000000  0.4468050000000  0.4775570000000 1.0
C      1  0.5363040000000  0.5425060000000  0.4687030000000 1.0
C      1  0.4596870000000  0.5078240000000  0.5402210000000 1.0
C      1  0.4599250000000  0.4604280000000  0.4860490000000 1.0
C      1  0.4597600000000  0.5307990000000  0.4720210000000 1.0
C      1  0.5314800000000  0.4549780000000  0.5595840000000 1.0
C      1  0.5313740000000  0.4700580000000  0.4310690000000 1.0
C      1  0.5313080000000  0.5745040000000  0.5083390000000 1.0
C      1  0.5039470000000  0.4997200000000  0.4994550000000 1.0
C      1  0.6001020000000  0.4997120000000  0.4997190000000 1.0
END
