TITL C-28404-6934-4 0.555555603904127 125000 -1280.81348569891 0 0 186 (C1) n - 1
REM
REM in /rds/project/t2_vol4/rds-t2-cs072/BORA/CARBON/from-Arr/AIRSS/Generating-Clusters/GAP-ML-2020/Higher-Symm/SD-CG/HFTN-CG/C160-200
REM
REM
REM
REM
REM
REM ./C.cell (6b4489405718ea1b717e0baf1da4c2d9)
REM AIRSS Version 0.9.1 bugfix July 2018 build 013d7b7c2542+ Fri, 06 Jul 2018 19:26:36 +0100
REM compiler GCC version 9.3.0
REM options -cpp -mtune=generic -march=x86-64 -g -O0
REM seed 1318041415 -1000918803 -926479623 -851680793 934165487 1736613350 -72226082 -2146890224 1888260957 831392234 -1505919113 -2066741424 -1525184948 192357527 540959541 -831861813 -789688008 -920266209 -646154495 -1523375437 -186374103 -1934338517 324788883 -498312885 466139494 -1447975513 1056180566 -1549759880 -1053588082 465614641 1297444801 1965597149 1045556229
REM
CELL 1.54180   50.00000   50.00000   50.00000   90.00000   90.00000   90.00000
LATT -1
SFAC C  
C      1  0.4810260000000  0.5372070000000  0.5032380000000 1.0
C      1  0.5032850000000  0.4734140000000  0.5503580000000 1.0
C      1  0.5469060000000  0.5065140000000  0.4708790000000 1.0
C      1  0.4779940000000  0.4544580000000  0.4888070000000 1.0
C      1  0.5192630000000  0.4633820000000  0.5042700000000 1.0
C      1  0.5220660000000  0.5472750000000  0.4889290000000 1.0
C      1  0.5016640000000  0.5288030000000  0.4517840000000 1.0
C      1  0.5028090000000  0.5227120000000  0.5459830000000 1.0
C      1  0.5065560000000  0.4796960000000  0.4562150000000 1.0
C      1  0.5383210000000  0.5036540000000  0.5172080000000 1.0
C      1  0.4573910000000  0.4940380000000  0.4714070000000 1.0
C      1  0.4595620000000  0.4975230000000  0.5194920000000 1.0
C      1  0.4748100000000  0.5093060000000  0.5480780000000 1.0
C      1  0.4933470000000  0.5463110000000  0.4772080000000 1.0
C      1  0.5449810000000  0.4761700000000  0.5067110000000 1.0
C      1  0.4782980000000  0.4890330000000  0.4481550000000 1.0
C      1  0.5172450000000  0.5059510000000  0.4653860000000 1.0
C      1  0.5171700000000  0.4989980000000  0.5380720000000 1.0
C      1  0.5036230000000  0.4521460000000  0.5280520000000 1.0
C      1  0.4966440000000  0.5472740000000  0.5279830000000 1.0
C      1  0.5065400000000  0.4574690000000  0.4784580000000 1.0
C      1  0.5294570000000  0.5174830000000  0.4912280000000 1.0
C      1  0.4685800000000  0.4827220000000  0.4952740000000 1.0
C      1  0.4547440000000  0.5246470000000  0.5063180000000 1.0
C      1  0.4525500000000  0.4925910000000  0.4083220000000 1.0
C      1  0.4147120000000  0.4522130000000  0.4919860000000 1.0
C      1  0.4878160000000  0.4071830000000  0.4439530000000 1.0
C      1  0.4528610000000  0.5084190000000  0.5921380000000 1.0
C      1  0.5473740000000  0.5087320000000  0.4084680000000 1.0
C      1  0.5469960000000  0.4912860000000  0.5914730000000 1.0
C      1  0.4145440000000  0.5498130000000  0.5070770000000 1.0
C      1  0.5855100000000  0.5486720000000  0.4911680000000 1.0
C      1  0.5854970000000  0.4515110000000  0.5074930000000 1.0
C      1  0.4893750000000  0.5927670000000  0.5552130000000 1.0
C      1  0.5134810000000  0.5944050000000  0.4437610000000 1.0
C      1  0.5121590000000  0.4072150000000  0.5561080000000 1.0
C      1  0.4520250000000  0.4131750000000  0.4933430000000 1.0
C      1  0.4150710000000  0.4929930000000  0.4456030000000 1.0
C      1  0.4879490000000  0.4427450000000  0.4058710000000 1.0
C      1  0.4521270000000  0.5890180000000  0.5078620000000 1.0
C      1  0.5484330000000  0.4122330000000  0.5083650000000 1.0
C      1  0.5483840000000  0.5876690000000  0.4932600000000 1.0
C      1  0.4119350000000  0.5114550000000  0.5573710000000 1.0
C      1  0.5857460000000  0.4896330000000  0.5569320000000 1.0
C      1  0.5853000000000  0.5074930000000  0.4442080000000 1.0
C      1  0.4869090000000  0.5565850000000  0.5940330000000 1.0
C      1  0.5113670000000  0.4433260000000  0.5942120000000 1.0
C      1  0.5100340000000  0.5560080000000  0.4065960000000 1.0
C      1  0.5615770000000  0.4562210000000  0.5266950000000 1.0
C      1  0.5304640000000  0.5704380000000  0.4482420000000 1.0
C      1  0.4563110000000  0.5268310000000  0.5660800000000 1.0
C      1  0.5668000000000  0.5488610000000  0.4685550000000 1.0
C      1  0.4379440000000  0.5446810000000  0.5258410000000 1.0
C      1  0.4332150000000  0.4519150000000  0.4691860000000 1.0
C      1  0.5226950000000  0.4340670000000  0.5459750000000 1.0
C      1  0.4673450000000  0.4286490000000  0.4468970000000 1.0
C      1  0.4765980000000  0.5654130000000  0.5461140000000 1.0
C      1  0.4579730000000  0.4728270000000  0.4317310000000 1.0
C      1  0.5469420000000  0.4680910000000  0.5719030000000 1.0
C      1  0.5458260000000  0.5302490000000  0.4289120000000 1.0
C      1  0.5621390000000  0.5258630000000  0.4520610000000 1.0
C      1  0.5224540000000  0.4545140000000  0.5676790000000 1.0
C      1  0.4536030000000  0.5688030000000  0.5295210000000 1.0
C      1  0.5662060000000  0.4681530000000  0.5525740000000 1.0
C      1  0.4325400000000  0.5315380000000  0.5509650000000 1.0
C      1  0.4378710000000  0.4750370000000  0.4537660000000 1.0
C      1  0.5228830000000  0.5466720000000  0.4336480000000 1.0
C      1  0.4669480000000  0.4465270000000  0.4264800000000 1.0
C      1  0.4698150000000  0.5512660000000  0.5702870000000 1.0
C      1  0.4569170000000  0.4361450000000  0.4723920000000 1.0
C      1  0.5432580000000  0.5646020000000  0.4729700000000 1.0
C      1  0.5463100000000  0.4317580000000  0.5303680000000 1.0
C      1  0.5465260000000  0.5712280000000  0.5186850000000 1.0
C      1  0.5146680000000  0.5592610000000  0.5822030000000 1.0
C      1  0.5695170000000  0.5159630000000  0.5552330000000 1.0
C      1  0.5486510000000  0.4263050000000  0.4811100000000 1.0
C      1  0.4539520000000  0.4296310000000  0.5184900000000 1.0
C      1  0.4516120000000  0.5760010000000  0.4804180000000 1.0
C      1  0.5145840000000  0.4437880000000  0.4211100000000 1.0
C      1  0.4870960000000  0.4280130000000  0.5921260000000 1.0
C      1  0.4853540000000  0.5676410000000  0.4151370000000 1.0
C      1  0.5702100000000  0.4817460000000  0.4439410000000 1.0
C      1  0.4286150000000  0.4841260000000  0.5564870000000 1.0
C      1  0.4308880000000  0.5188430000000  0.4454250000000 1.0
C      1  0.5464250000000  0.5186320000000  0.5772640000000 1.0
C      1  0.5145370000000  0.5841390000000  0.5663530000000 1.0
C      1  0.5689250000000  0.5482030000000  0.5177430000000 1.0
C      1  0.5480730000000  0.4814090000000  0.4228100000000 1.0
C      1  0.4536130000000  0.5192210000000  0.4240450000000 1.0
C      1  0.4533300000000  0.4819350000000  0.5772020000000 1.0
C      1  0.5148700000000  0.4219770000000  0.4435480000000 1.0
C      1  0.4849900000000  0.5828020000000  0.4407540000000 1.0
C      1  0.4873210000000  0.4090460000000  0.5709140000000 1.0
C      1  0.5703730000000  0.4492220000000  0.4809350000000 1.0
C      1  0.4300790000000  0.5526960000000  0.4807730000000 1.0
C      1  0.4307420000000  0.4524560000000  0.5187560000000 1.0
C      1  0.5794510000000  0.4046800000000  0.5142530000000 1.0
C      1  0.5283390000000  0.5798960000000  0.4004320000000 1.0
C      1  0.4058490000000  0.5162370000000  0.5873680000000 1.0
C      1  0.5768630000000  0.5964110000000  0.4905740000000 1.0
C      1  0.4212770000000  0.5965570000000  0.5145900000000 1.0
C      1  0.4235920000000  0.4041620000000  0.4898990000000 1.0
C      1  0.5326320000000  0.4189620000000  0.5985740000000 1.0
C      1  0.4853920000000  0.4135160000000  0.3968360000000 1.0
C      1  0.4714540000000  0.5832510000000  0.5982720000000 1.0
C      1  0.4062780000000  0.4869140000000  0.4166920000000 1.0
C      1  0.5948900000000  0.4864360000000  0.5864300000000 1.0
C      1  0.5945240000000  0.5137300000000  0.4164260000000 1.0
C      1  0.5770050000000  0.5147970000000  0.3982270000000 1.0
C      1  0.5330410000000  0.4023490000000  0.5799140000000 1.0
C      1  0.4043510000000  0.5777860000000  0.5139660000000 1.0
C      1  0.5759210000000  0.4874930000000  0.6031110000000 1.0
C      1  0.4257980000000  0.5158070000000  0.6028210000000 1.0
C      1  0.4242970000000  0.4858770000000  0.3988810000000 1.0
C      1  0.5267580000000  0.5996510000000  0.4158190000000 1.0
C      1  0.4845340000000  0.3963270000000  0.4153660000000 1.0
C      1  0.4717280000000  0.5994750000000  0.5791140000000 1.0
C      1  0.4050370000000  0.4214330000000  0.4903370000000 1.0
C      1  0.5951180000000  0.5789330000000  0.4902850000000 1.0
C      1  0.5959670000000  0.4238030000000  0.5138140000000 1.0
C      1  0.5799350000000  0.4370630000000  0.4548780000000 1.0
C      1  0.4556620000000  0.5889250000000  0.4334840000000 1.0
C      1  0.4427370000000  0.4554610000000  0.5858660000000 1.0
C      1  0.5780530000000  0.5606910000000  0.5443110000000 1.0
C      1  0.4201040000000  0.5641630000000  0.4549690000000 1.0
C      1  0.4229660000000  0.4389210000000  0.5450500000000 1.0
C      1  0.4594410000000  0.4136150000000  0.5665650000000 1.0
C      1  0.5424520000000  0.4143110000000  0.4338640000000 1.0
C      1  0.5429420000000  0.5867730000000  0.5677230000000 1.0
C      1  0.4418870000000  0.5461050000000  0.4150410000000 1.0
C      1  0.5608500000000  0.5440100000000  0.5862140000000 1.0
C      1  0.5604380000000  0.4545950000000  0.4137320000000 1.0
C      1  0.5798980000000  0.4554760000000  0.4344230000000 1.0
C      1  0.4591320000000  0.4329340000000  0.5886220000000 1.0
C      1  0.4383330000000  0.5858300000000  0.4547700000000 1.0
C      1  0.5795670000000  0.5424780000000  0.5649760000000 1.0
C      1  0.4218780000000  0.4566440000000  0.5659760000000 1.0
C      1  0.4216530000000  0.5451590000000  0.4351120000000 1.0
C      1  0.4572240000000  0.5693100000000  0.4116180000000 1.0
C      1  0.5420560000000  0.4337950000000  0.4131520000000 1.0
C      1  0.5438350000000  0.5656660000000  0.5881970000000 1.0
C      1  0.4435350000000  0.4193810000000  0.5443180000000 1.0
C      1  0.5582580000000  0.5807780000000  0.5448300000000 1.0
C      1  0.5608950000000  0.4163880000000  0.4547460000000 1.0
C      1  0.4750190000000  0.6082960000000  0.5103070000000 1.0
C      1  0.5087930000000  0.4657750000000  0.6126480000000 1.0
C      1  0.6046830000000  0.5086040000000  0.4662480000000 1.0
C      1  0.4755000000000  0.3936840000000  0.4909040000000 1.0
C      1  0.5257720000000  0.3926790000000  0.5105150000000 1.0
C      1  0.5250980000000  0.6073270000000  0.4905580000000 1.0
C      1  0.5081160000000  0.5335510000000  0.3878200000000 1.0
C      1  0.4882940000000  0.5340010000000  0.6105650000000 1.0
C      1  0.4860920000000  0.4650440000000  0.3889840000000 1.0
C      1  0.6028170000000  0.4888970000000  0.5343750000000 1.0
C      1  0.3954600000000  0.4921440000000  0.4671630000000 1.0
C      1  0.3947880000000  0.5135180000000  0.5349340000000 1.0
C      1  0.4772100000000  0.5103630000000  0.6100490000000 1.0
C      1  0.5148930000000  0.6107720000000  0.4665980000000 1.0
C      1  0.6023330000000  0.4773170000000  0.5108170000000 1.0
C      1  0.4766530000000  0.4892770000000  0.3902480000000 1.0
C      1  0.5246190000000  0.5117080000000  0.3892960000000 1.0
C      1  0.5248040000000  0.4879510000000  0.6106140000000 1.0
C      1  0.5100360000000  0.3898910000000  0.5327810000000 1.0
C      1  0.4908990000000  0.6109000000000  0.5325040000000 1.0
C      1  0.4858630000000  0.3914030000000  0.4670370000000 1.0
C      1  0.6044130000000  0.5256320000000  0.4874680000000 1.0
C      1  0.3963750000000  0.4755300000000  0.4887010000000 1.0
C      1  0.3975470000000  0.5242790000000  0.5108930000000 1.0
C      1  0.4803680000000  0.4417610000000  0.5141930000000 1.0
C      1  0.5214210000000  0.4705830000000  0.4323350000000 1.0
C      1  0.4440530000000  0.5223790000000  0.4757880000000 1.0
C      1  0.4784580000000  0.5691880000000  0.4680280000000 1.0
C      1  0.5198440000000  0.5592840000000  0.5147580000000 1.0
C      1  0.5213800000000  0.4337900000000  0.4698740000000 1.0
C      1  0.5194360000000  0.5311770000000  0.5692410000000 1.0
C      1  0.4809710000000  0.5147810000000  0.4365150000000 1.0
C      1  0.4791890000000  0.4851440000000  0.5620820000000 1.0
C      1  0.4384610000000  0.4797530000000  0.5290280000000 1.0
C      1  0.5573520000000  0.4784810000000  0.4763520000000 1.0
C      1  0.5602420000000  0.5210970000000  0.5277480000000 1.0
C      1  0.4980200000000  0.4914710000000  0.6165740000000 1.0
C      1  0.5027420000000  0.6141110000000  0.5076940000000 1.0
C      1  0.4974950000000  0.5081280000000  0.3837040000000 1.0
C      1  0.4982660000000  0.3868950000000  0.5076580000000 1.0
C      1  0.6092310000000  0.4979420000000  0.4915100000000 1.0
C      1  0.3909180000000  0.5033190000000  0.4920540000000 1.0
END
