TITL C-28432-6752-1 0.14109766252601 125000 -1228.68584786203 0 0 171 (C1) n - 1
REM
REM in /rds/project/t2_vol4/rds-t2-cs072/BORA/CARBON/from-Arr/AIRSS/Generating-Clusters/GAP-ML-2020/Higher-Symm/SD-CG/HFTN-CG/C160-200
REM
REM
REM
REM
REM
REM ./C.cell (6b4489405718ea1b717e0baf1da4c2d9)
REM AIRSS Version 0.9.1 bugfix July 2018 build 013d7b7c2542+ Fri, 06 Jul 2018 19:26:36 +0100
REM compiler GCC version 9.3.0
REM options -cpp -mtune=generic -march=x86-64 -g -O0
REM seed -1126531187 1881663531 1889107707 234007242 1447948079 2081694899 -1096183024 1298579236 -874197452 871211862 551540177 -416636041 -1112697638 -1757176371 -1939491271 -1137807912 1138216041 -841891497 151433397 -1351367213 -85358167 1214685118 -460854853 -313148345 -42676436 -484213497 -623388821 -901260170 1183633294 1848940377 551607055 1457186696 -1691872924
REM
CELL 1.54180   50.00000   50.00000   50.00000   90.00000   90.00000   90.00000
LATT -1
SFAC C  
C      1  0.5369710000000  0.4818210000000  0.5546860000000 1.0
C      1  0.5382330000000  0.4464920000000  0.5196410000000 1.0
C      1  0.5406720000000  0.4513820000000  0.4694540000000 1.0
C      1  0.5381980000000  0.4932010000000  0.4429350000000 1.0
C      1  0.5363130000000  0.5392610000000  0.4589210000000 1.0
C      1  0.5377810000000  0.5556900000000  0.5060130000000 1.0
C      1  0.5376870000000  0.5301580000000  0.5484940000000 1.0
C      1  0.5144080000000  0.5344040000000  0.5024280000000 1.0
C      1  0.5152730000000  0.5209140000000  0.5298660000000 1.0
C      1  0.5148590000000  0.4909820000000  0.5343310000000 1.0
C      1  0.5159560000000  0.4676680000000  0.5131410000000 1.0
C      1  0.5173080000000  0.4680690000000  0.4819380000000 1.0
C      1  0.5162390000000  0.4926260000000  0.4641490000000 1.0
C      1  0.5146620000000  0.5218730000000  0.4735270000000 1.0
C      1  0.5256480000000  0.4194600000000  0.4361350000000 1.0
C      1  0.5210500000000  0.5003150000000  0.3971920000000 1.0
C      1  0.5185050000000  0.5784550000000  0.4366490000000 1.0
C      1  0.5228660000000  0.5987120000000  0.5216940000000 1.0
C      1  0.5221870000000  0.5444320000000  0.5927350000000 1.0
C      1  0.5190920000000  0.4563520000000  0.5919700000000 1.0
C      1  0.5214110000000  0.4011460000000  0.5242900000000 1.0
C      1  0.6071610000000  0.5298720000000  0.5151590000000 1.0
C      1  0.6104950000000  0.5055170000000  0.5303970000000 1.0
C      1  0.6063980000000  0.4771010000000  0.5239260000000 1.0
C      1  0.6064780000000  0.4644350000000  0.4976270000000 1.0
C      1  0.6068510000000  0.4783390000000  0.4719580000000 1.0
C      1  0.6100260000000  0.5069480000000  0.4684890000000 1.0
C      1  0.6064290000000  0.5301520000000  0.4864560000000 1.0
C      1  0.4584190000000  0.4479160000000  0.4135250000000 1.0
C      1  0.4536260000000  0.5330640000000  0.4097060000000 1.0
C      1  0.4536130000000  0.5910510000000  0.4729300000000 1.0
C      1  0.4578830000000  0.5849740000000  0.5576380000000 1.0
C      1  0.4549910000000  0.5102900000000  0.5991300000000 1.0
C      1  0.4531200000000  0.4321930000000  0.5644280000000 1.0
C      1  0.4575110000000  0.4020240000000  0.4843390000000 1.0
C      1  0.4519810000000  0.4822200000000  0.5971430000000 1.0
C      1  0.4524520000000  0.4126050000000  0.5443350000000 1.0
C      1  0.4567260000000  0.4060470000000  0.4566140000000 1.0
C      1  0.4554340000000  0.4728230000000  0.4009670000000 1.0
C      1  0.4510730000000  0.5578110000000  0.4228880000000 1.0
C      1  0.4534700000000  0.6009960000000  0.4991200000000 1.0
C      1  0.4560640000000  0.5689260000000  0.5807300000000 1.0
C      1  0.5926680000000  0.5518710000000  0.4711100000000 1.0
C      1  0.5924190000000  0.5527550000000  0.5285950000000 1.0
C      1  0.6045270000000  0.5092490000000  0.5575460000000 1.0
C      1  0.5930470000000  0.4646680000000  0.5480150000000 1.0
C      1  0.5938290000000  0.4375070000000  0.4990190000000 1.0
C      1  0.5922040000000  0.4644560000000  0.4486950000000 1.0
C      1  0.6041540000000  0.5162260000000  0.4425930000000 1.0
C      1  0.5831870000000  0.4399940000000  0.4557150000000 1.0
C      1  0.5838710000000  0.5055660000000  0.4245460000000 1.0
C      1  0.5914910000000  0.5422850000000  0.4435760000000 1.0
C      1  0.5852940000000  0.5704640000000  0.5095120000000 1.0
C      1  0.5841680000000  0.5271040000000  0.5686700000000 1.0
C      1  0.5922080000000  0.4856100000000  0.5685210000000 1.0
C      1  0.5873690000000  0.4307920000000  0.5244240000000 1.0
C      1  0.4340480000000  0.4875780000000  0.4150840000000 1.0
C      1  0.4317040000000  0.5547120000000  0.4452170000000 1.0
C      1  0.4330480000000  0.5861630000000  0.5134040000000 1.0
C      1  0.4341300000000  0.5501830000000  0.5766230000000 1.0
C      1  0.4314780000000  0.4762040000000  0.5765700000000 1.0
C      1  0.4337530000000  0.4222750000000  0.5243710000000 1.0
C      1  0.4356850000000  0.4258270000000  0.4521310000000 1.0
C      1  0.5765710000000  0.4262250000000  0.4781940000000 1.0
C      1  0.5762700000000  0.4776430000000  0.4276720000000 1.0
C      1  0.5715690000000  0.5327930000000  0.4243430000000 1.0
C      1  0.5756320000000  0.5731420000000  0.4843960000000 1.0
C      1  0.5759640000000  0.5507450000000  0.5533640000000 1.0
C      1  0.5725170000000  0.5028640000000  0.5817790000000 1.0
C      1  0.5758230000000  0.4395030000000  0.5470610000000 1.0
C      1  0.4710880000000  0.4651800000000  0.4784280000000 1.0
C      1  0.4699110000000  0.4879360000000  0.4616830000000 1.0
C      1  0.4668190000000  0.5140450000000  0.4709480000000 1.0
C      1  0.4652240000000  0.5354480000000  0.5095840000000 1.0
C      1  0.4673720000000  0.5251470000000  0.5354030000000 1.0
C      1  0.4654980000000  0.4970490000000  0.5370990000000 1.0
C      1  0.4690290000000  0.4671860000000  0.5061530000000 1.0
C      1  0.5274230000000  0.5203870000000  0.5756140000000 1.0
C      1  0.5263760000000  0.4551390000000  0.5628090000000 1.0
C      1  0.5293710000000  0.4224920000000  0.5040970000000 1.0
C      1  0.5328340000000  0.4488540000000  0.4406100000000 1.0
C      1  0.5265810000000  0.5137620000000  0.4233750000000 1.0
C      1  0.5257640000000  0.5666140000000  0.4633290000000 1.0
C      1  0.5300190000000  0.5704630000000  0.5305690000000 1.0
C      1  0.4327590000000  0.5156100000000  0.4187520000000 1.0
C      1  0.4321740000000  0.5716590000000  0.4687100000000 1.0
C      1  0.4346980000000  0.5799600000000  0.5409490000000 1.0
C      1  0.4335120000000  0.5231160000000  0.5853430000000 1.0
C      1  0.4324680000000  0.4525430000000  0.5601550000000 1.0
C      1  0.4353340000000  0.4161910000000  0.4967940000000 1.0
C      1  0.4360240000000  0.4448280000000  0.4316550000000 1.0
C      1  0.4843820000000  0.5170270000000  0.5988430000000 1.0
C      1  0.4819580000000  0.4358010000000  0.5717550000000 1.0
C      1  0.4861990000000  0.4007730000000  0.4931940000000 1.0
C      1  0.4880790000000  0.4416420000000  0.4171360000000 1.0
C      1  0.4829570000000  0.5268610000000  0.4055250000000 1.0
C      1  0.4820260000000  0.5889360000000  0.4642780000000 1.0
C      1  0.4868310000000  0.5875740000000  0.5497760000000 1.0
C      1  0.5436360000000  0.4359580000000  0.5485080000000 1.0
C      1  0.5459950000000  0.4217980000000  0.4791910000000 1.0
C      1  0.5463700000000  0.4696910000000  0.4243740000000 1.0
C      1  0.5418690000000  0.5382460000000  0.4271950000000 1.0
C      1  0.5435730000000  0.5773680000000  0.4844720000000 1.0
C      1  0.5455840000000  0.5594690000000  0.5537110000000 1.0
C      1  0.5429090000000  0.4966140000000  0.5826070000000 1.0
C      1  0.4199540000000  0.5028250000000  0.5692620000000 1.0
C      1  0.4242990000000  0.4485860000000  0.5320070000000 1.0
C      1  0.4241650000000  0.4341180000000  0.4773270000000 1.0
C      1  0.4230590000000  0.4703120000000  0.4352250000000 1.0
C      1  0.4210770000000  0.5271180000000  0.4425270000000 1.0
C      1  0.4206000000000  0.5673900000000  0.4953250000000 1.0
C      1  0.4213630000000  0.5572120000000  0.5517590000000 1.0
C      1  0.4986640000000  0.4156060000000  0.4264820000000 1.0
C      1  0.4938500000000  0.5044450000000  0.3893130000000 1.0
C      1  0.4911160000000  0.5872910000000  0.4363810000000 1.0
C      1  0.4962920000000  0.6066710000000  0.5293020000000 1.0
C      1  0.4954630000000  0.5443560000000  0.6027060000000 1.0
C      1  0.4915240000000  0.4489320000000  0.5963580000000 1.0
C      1  0.4944600000000  0.3918750000000  0.5202760000000 1.0
C      1  0.5242330000000  0.4117430000000  0.5498580000000 1.0
C      1  0.5284600000000  0.4060800000000  0.4604160000000 1.0
C      1  0.5271350000000  0.4732740000000  0.4006280000000 1.0
C      1  0.5227530000000  0.5595510000000  0.4167130000000 1.0
C      1  0.5252200000000  0.5999990000000  0.4939530000000 1.0
C      1  0.5274610000000  0.5670260000000  0.5771390000000 1.0
C      1  0.5238700000000  0.4819920000000  0.6015820000000 1.0
C      1  0.4981640000000  0.6054640000000  0.4836390000000 1.0
C      1  0.5018650000000  0.5804930000000  0.5747660000000 1.0
C      1  0.4975710000000  0.4923620000000  0.6088280000000 1.0
C      1  0.4970450000000  0.4119520000000  0.5613060000000 1.0
C      1  0.5019120000000  0.3958780000000  0.4678500000000 1.0
C      1  0.5015120000000  0.4598590000000  0.3976890000000 1.0
C      1  0.4961750000000  0.5534360000000  0.4063400000000 1.0
C      1  0.5552640000000  0.5164090000000  0.5283150000000 1.0
C      1  0.5557320000000  0.4882770000000  0.5319720000000 1.0
C      1  0.5560740000000  0.4684710000000  0.5110940000000 1.0
C      1  0.5564410000000  0.4726260000000  0.4824380000000 1.0
C      1  0.5558400000000  0.4970110000000  0.4669780000000 1.0
C      1  0.5549590000000  0.5236590000000  0.4765600000000 1.0
C      1  0.5546810000000  0.5318640000000  0.5040310000000 1.0
C      1  0.4925140000000  0.5332320000000  0.5463440000000 1.0
C      1  0.4896290000000  0.4867910000000  0.5508460000000 1.0
C      1  0.4906870000000  0.4521910000000  0.5190640000000 1.0
C      1  0.4948810000000  0.4504690000000  0.4724050000000 1.0
C      1  0.4932740000000  0.4879560000000  0.4450180000000 1.0
C      1  0.4888500000000  0.5317440000000  0.4611310000000 1.0
C      1  0.4893330000000  0.5516830000000  0.5038200000000 1.0
C      1  0.4807630000000  0.6107890000000  0.5057780000000 1.0
C      1  0.4827430000000  0.5671400000000  0.5920190000000 1.0
C      1  0.4777330000000  0.4714530000000  0.6061840000000 1.0
C      1  0.4790000000000  0.3989910000000  0.5431210000000 1.0
C      1  0.4838620000000  0.4012390000000  0.4461550000000 1.0
C      1  0.4814920000000  0.4792340000000  0.3896360000000 1.0
C      1  0.4767700000000  0.5713470000000  0.4181650000000 1.0
C      1  0.4122420000000  0.5092410000000  0.4636990000000 1.0
C      1  0.4100480000000  0.5425110000000  0.5054280000000 1.0
C      1  0.4095140000000  0.5373800000000  0.5343760000000 1.0
C      1  0.4090080000000  0.5122320000000  0.5458990000000 1.0
C      1  0.4230370000000  0.4690560000000  0.5111900000000 1.0
C      1  0.4163870000000  0.4614450000000  0.4835060000000 1.0
C      1  0.4131670000000  0.4800140000000  0.4608140000000 1.0
C      1  0.4976190000000  0.5127930000000  0.5700850000000 1.0
C      1  0.4949850000000  0.4559050000000  0.5508410000000 1.0
C      1  0.4989930000000  0.4297640000000  0.4963400000000 1.0
C      1  0.5015580000000  0.4567260000000  0.4414040000000 1.0
C      1  0.4967110000000  0.5171040000000  0.4327140000000 1.0
C      1  0.4939790000000  0.5605640000000  0.4738160000000 1.0
C      1  0.4983620000000  0.5619880000000  0.5339780000000 1.0
C      1  0.4493310000000  0.5151920000000  0.4944670000000 1.0
C      1  0.4186070000000  0.5205630000000  0.4892430000000 1.0
C      1  0.4497480000000  0.4875400000000  0.5139530000000 1.0
END
