TITL C-28425-6703-4 705.262773958429 125000 -1119.74124763144 0 0 163 (C4) n - 1
REM
REM in /rds/project/t2_vol4/rds-t2-cs072/BORA/CARBON/from-Arr/AIRSS/Generating-Clusters/GAP-ML-2020/Higher-Symm/SD-CG/HFTN-CG/C160-200
REM
REM
REM
REM
REM
REM ./C.cell (6b4489405718ea1b717e0baf1da4c2d9)
REM AIRSS Version 0.9.1 bugfix July 2018 build 013d7b7c2542+ Fri, 06 Jul 2018 19:26:36 +0100
REM compiler GCC version 9.3.0
REM options -cpp -mtune=generic -march=x86-64 -g -O0
REM seed -1956720179 -933966749 1902379932 1445093138 -983990380 1725559093 445831262 -1717571588 -662225767 1215279575 -987398476 1564309847 -1924512534 -865152575 1660409526 -2088890362 418236553 2006339643 -1000087357 -1497815330 -1956160450 -743489495 -2093206495 -1065032853 -1859505821 -284736569 -1261861764 522895368 1219486595 1463919783 -439012389 -1265482689 -678348494
REM
CELL 1.54180   50.00000   50.00000   50.00000   90.00000   90.00000   90.00000
LATT -1
SFAC C  
C      1  0.5042190000000  0.4301330000000  0.5726530000000 1.0
C      1  0.5697800000000  0.5043300000000  0.5726720000000 1.0
C      1  0.4955820000000  0.5698910000000  0.5726730000000 1.0
C      1  0.4300220000000  0.4956930000000  0.5726540000000 1.0
C      1  0.4954790000000  0.4301090000000  0.4283540000000 1.0
C      1  0.4299940000000  0.5044720000000  0.4283580000000 1.0
C      1  0.5043560000000  0.5699570000000  0.4283760000000 1.0
C      1  0.5698420000000  0.4955950000000  0.4283730000000 1.0
C      1  0.5442720000000  0.4872130000000  0.5753490000000 1.0
C      1  0.5126990000000  0.5443830000000  0.5753540000000 1.0
C      1  0.4555290000000  0.5128100000000  0.5753430000000 1.0
C      1  0.4871020000000  0.4556390000000  0.5753380000000 1.0
C      1  0.4558300000000  0.4874890000000  0.4263240000000 1.0
C      1  0.4873730000000  0.5441220000000  0.4263360000000 1.0
C      1  0.5440060000000  0.5125780000000  0.4263380000000 1.0
C      1  0.5124630000000  0.4559450000000  0.4263260000000 1.0
C      1  0.4508760000000  0.4832430000000  0.5338500000000 1.0
C      1  0.5166800000000  0.4509890000000  0.5338520000000 1.0
C      1  0.5489340000000  0.5167920000000  0.5338660000000 1.0
C      1  0.4831310000000  0.5490460000000  0.5338630000000 1.0
C      1  0.5490190000000  0.4832440000000  0.4669640000000 1.0
C      1  0.4831300000000  0.4509220000000  0.4669510000000 1.0
C      1  0.4508080000000  0.5168110000000  0.4669570000000 1.0
C      1  0.5166970000000  0.5491330000000  0.4669700000000 1.0
C      1  0.4579250000000  0.4511400000000  0.5739980000000 1.0
C      1  0.5487720000000  0.4580360000000  0.5740100000000 1.0
C      1  0.5418770000000  0.5488830000000  0.5740220000000 1.0
C      1  0.4510290000000  0.5419870000000  0.5740110000000 1.0
C      1  0.5418390000000  0.4511740000000  0.4269790000000 1.0
C      1  0.4510580000000  0.4581130000000  0.4269690000000 1.0
C      1  0.4579970000000  0.5488930000000  0.4269830000000 1.0
C      1  0.5487770000000  0.5419540000000  0.4269930000000 1.0
C      1  0.4704120000000  0.4623640000000  0.5275540000000 1.0
C      1  0.5375600000000  0.4705250000000  0.5275630000000 1.0
C      1  0.5294000000000  0.5376730000000  0.5275720000000 1.0
C      1  0.4622520000000  0.5295120000000  0.5275630000000 1.0
C      1  0.5292930000000  0.4625210000000  0.4735290000000 1.0
C      1  0.4624070000000  0.4706460000000  0.4735220000000 1.0
C      1  0.4705320000000  0.5375320000000  0.4735330000000 1.0
C      1  0.5374180000000  0.5294070000000  0.4735400000000 1.0
C      1  0.6082230000000  0.5179310000000  0.4910630000000 1.0
C      1  0.4820040000000  0.6083360000000  0.4910620000000 1.0
C      1  0.3915980000000  0.4821170000000  0.4910320000000 1.0
C      1  0.5178170000000  0.3917120000000  0.4910340000000 1.0
C      1  0.3916390000000  0.5177830000000  0.5098750000000 1.0
C      1  0.5176690000000  0.6082900000000  0.5099030000000 1.0
C      1  0.6081770000000  0.4822590000000  0.5098950000000 1.0
C      1  0.4821470000000  0.3917520000000  0.5098670000000 1.0
C      1  0.6002530000000  0.5100990000000  0.5188920000000 1.0
C      1  0.4898280000000  0.6003650000000  0.5188930000000 1.0
C      1  0.3995620000000  0.4899400000000  0.5188660000000 1.0
C      1  0.5099860000000  0.3996750000000  0.5188650000000 1.0
C      1  0.3993420000000  0.5099500000000  0.4819850000000 1.0
C      1  0.5098360000000  0.6005940000000  0.4820110000000 1.0
C      1  0.6004810000000  0.4901010000000  0.4820050000000 1.0
C      1  0.4899870000000  0.3994560000000  0.4819790000000 1.0
C      1  0.4630110000000  0.5568350000000  0.4930100000000 1.0
C      1  0.4430980000000  0.4631240000000  0.4929940000000 1.0
C      1  0.5368090000000  0.4432120000000  0.4930010000000 1.0
C      1  0.5567220000000  0.5369230000000  0.4930180000000 1.0
C      1  0.5367750000000  0.5568850000000  0.5078600000000 1.0
C      1  0.5567720000000  0.4631550000000  0.5078480000000 1.0
C      1  0.4630420000000  0.4431570000000  0.5078340000000 1.0
C      1  0.4430440000000  0.5368880000000  0.5078460000000 1.0
C      1  0.4423770000000  0.4262490000000  0.4539400000000 1.0
C      1  0.5736950000000  0.4424920000000  0.4539580000000 1.0
C      1  0.5574520000000  0.5738100000000  0.4539760000000 1.0
C      1  0.4261340000000  0.5575670000000  0.4539580000000 1.0
C      1  0.5573260000000  0.4262280000000  0.5468670000000 1.0
C      1  0.4261160000000  0.4425930000000  0.5468550000000 1.0
C      1  0.4424820000000  0.5738030000000  0.5468760000000 1.0
C      1  0.5736910000000  0.5574380000000  0.5468890000000 1.0
C      1  0.5524700000000  0.5718960000000  0.5614930000000 1.0
C      1  0.4280190000000  0.5525810000000  0.5614760000000 1.0
C      1  0.4473340000000  0.4281300000000  0.5614590000000 1.0
C      1  0.5717850000000  0.4474450000000  0.5614760000000 1.0
C      1  0.4473970000000  0.5719510000000  0.4393460000000 1.0
C      1  0.5718350000000  0.5525510000000  0.4393580000000 1.0
C      1  0.5524360000000  0.4281130000000  0.4393370000000 1.0
C      1  0.4279970000000  0.4475120000000  0.4393260000000 1.0
C      1  0.4920420000000  0.5924580000000  0.4400660000000 1.0
C      1  0.4074900000000  0.4921570000000  0.4400410000000 1.0
C      1  0.5077910000000  0.4076060000000  0.4400400000000 1.0
C      1  0.5923420000000  0.5079060000000  0.4400650000000 1.0
C      1  0.5078260000000  0.5923380000000  0.5607620000000 1.0
C      1  0.5922260000000  0.4920890000000  0.5607570000000 1.0
C      1  0.4919780000000  0.4076890000000  0.5607320000000 1.0
C      1  0.4075780000000  0.5079380000000  0.5607380000000 1.0
C      1  0.5199000000000  0.5052980000000  0.4099990000000 1.0
C      1  0.4946580000000  0.5200160000000  0.4099980000000 1.0
C      1  0.4799400000000  0.4947740000000  0.4099930000000 1.0
C      1  0.5051820000000  0.4800560000000  0.4099930000000 1.0
C      1  0.4799140000000  0.5053800000000  0.5906290000000 1.0
C      1  0.5052700000000  0.5199930000000  0.5906340000000 1.0
C      1  0.5198830000000  0.4946380000000  0.5906320000000 1.0
C      1  0.4945280000000  0.4800240000000  0.5906270000000 1.0
C      1  0.3923110000000  0.5106220000000  0.4547210000000 1.0
C      1  0.4893220000000  0.3924260000000  0.4547140000000 1.0
C      1  0.6075180000000  0.4894370000000  0.4547430000000 1.0
C      1  0.5105070000000  0.6076320000000  0.4547490000000 1.0
C      1  0.6073440000000  0.5106360000000  0.5461550000000 1.0
C      1  0.5105240000000  0.3925760000000  0.5461270000000 1.0
C      1  0.3924640000000  0.4893950000000  0.5461270000000 1.0
C      1  0.4892830000000  0.6074550000000  0.5461560000000 1.0
C      1  0.5407220000000  0.3979210000000  0.4770380000000 1.0
C      1  0.6020170000000  0.5408370000000  0.4770660000000 1.0
C      1  0.4591020000000  0.6021300000000  0.4770580000000 1.0
C      1  0.3978070000000  0.4592160000000  0.4770300000000 1.0
C      1  0.4592250000000  0.3980720000000  0.5237610000000 1.0
C      1  0.3979590000000  0.5407010000000  0.5237750000000 1.0
C      1  0.5405880000000  0.6019660000000  0.5238010000000 1.0
C      1  0.6018540000000  0.4593370000000  0.5237860000000 1.0
C      1  0.4661490000000  0.4936370000000  0.4570730000000 1.0
C      1  0.5063070000000  0.4662640000000  0.4570730000000 1.0
C      1  0.5336790000000  0.5064210000000  0.4570820000000 1.0
C      1  0.4935220000000  0.5337940000000  0.4570820000000 1.0
C      1  0.5329930000000  0.4937250000000  0.5434980000000 1.0
C      1  0.4936130000000  0.4669280000000  0.5434890000000 1.0
C      1  0.4668160000000  0.5063070000000  0.5434920000000 1.0
C      1  0.5061950000000  0.5331040000000  0.5435010000000 1.0
C      1  0.4075640000000  0.4640930000000  0.4495270000000 1.0
C      1  0.5358530000000  0.4076790000000  0.4495340000000 1.0
C      1  0.5922660000000  0.5359680000000  0.4495590000000 1.0
C      1  0.4639780000000  0.5923810000000  0.4495530000000 1.0
C      1  0.5921400000000  0.4641040000000  0.5512750000000 1.0
C      1  0.4639920000000  0.4077780000000  0.5512520000000 1.0
C      1  0.4076660000000  0.5359260000000  0.5512640000000 1.0
C      1  0.5358140000000  0.5922520000000  0.5512880000000 1.0
C      1  0.5786150000000  0.5663770000000  0.5206920000000 1.0
C      1  0.4335500000000  0.5787280000000  0.5206770000000 1.0
C      1  0.4211990000000  0.4336630000000  0.5206530000000 1.0
C      1  0.5662630000000  0.4213110000000  0.5206680000000 1.0
C      1  0.4212040000000  0.5665270000000  0.4801930000000 1.0
C      1  0.5664130000000  0.5787330000000  0.4802120000000 1.0
C      1  0.5786190000000  0.4335230000000  0.4801920000000 1.0
C      1  0.4334100000000  0.4213190000000  0.4801730000000 1.0
C      1  0.4164680000000  0.4428820000000  0.4917100000000 1.0
C      1  0.5570510000000  0.4165810000000  0.4917230000000 1.0
C      1  0.5833530000000  0.5571660000000  0.4917470000000 1.0
C      1  0.4427690000000  0.5834660000000  0.4917340000000 1.0
C      1  0.5830210000000  0.4431390000000  0.5091120000000 1.0
C      1  0.4430260000000  0.4169090000000  0.5090910000000 1.0
C      1  0.4167950000000  0.5569040000000  0.5091090000000 1.0
C      1  0.5567910000000  0.5831340000000  0.5091290000000 1.0
C      1  0.4330740000000  0.4876440000000  0.5093660000000 1.0
C      1  0.5122850000000  0.4331870000000  0.5093670000000 1.0
C      1  0.5667420000000  0.5123980000000  0.5093850000000 1.0
C      1  0.4875310000000  0.5668550000000  0.5093840000000 1.0
C      1  0.5667790000000  0.4876870000000  0.4914510000000 1.0
C      1  0.4875740000000  0.4331550000000  0.4914330000000 1.0
C      1  0.4330410000000  0.5123610000000  0.4914390000000 1.0
C      1  0.5122470000000  0.5668930000000  0.4914560000000 1.0
C      1  0.4379020000000  0.4696520000000  0.5597040000000 1.0
C      1  0.5302640000000  0.4380140000000  0.5597100000000 1.0
C      1  0.5619020000000  0.5303760000000  0.5597270000000 1.0
C      1  0.4695400000000  0.5620130000000  0.5597210000000 1.0
C      1  0.5620450000000  0.4695220000000  0.4413010000000 1.0
C      1  0.4694060000000  0.4379030000000  0.4412860000000 1.0
C      1  0.4377870000000  0.5305410000000  0.4412960000000 1.0
C      1  0.5304260000000  0.5621600000000  0.4413120000000 1.0
C      1  0.4999040000000  0.5000160000000  0.5433880000000 1.0
C      1  0.4999140000000  0.5000290000000  0.4610300000000 1.0
C      1  0.4999100000000  0.5000240000000  0.4905200000000 1.0
END
