TITL C-28432-6752-4 -0.0206261034960768 125000 -1359.66380068782 0 0 193 (C1) n - 1
REM
REM in /rds/project/t2_vol4/rds-t2-cs072/BORA/CARBON/from-Arr/AIRSS/Generating-Clusters/GAP-ML-2020/Higher-Symm/SD-CG/HFTN-CG/C160-200
REM
REM
REM
REM
REM
REM ./C.cell (6b4489405718ea1b717e0baf1da4c2d9)
REM AIRSS Version 0.9.1 bugfix July 2018 build 013d7b7c2542+ Fri, 06 Jul 2018 19:26:36 +0100
REM compiler GCC version 9.3.0
REM options -cpp -mtune=generic -march=x86-64 -g -O0
REM seed 527330793 -876841379 -1156545900 -1249025180 -854121335 -936750214 349474723 -631820083 1188225688 1994160962 -591168612 452384383 2004190537 676922221 -2040613218 -89224328 -1141524791 120936992 49882333 -406973409 1945916996 -1626069808 675540259 -447226610 980141415 -1614151874 -274734720 -1045923767 -872571636 868689762 1097342829 139976669 -2121207674
REM
CELL 1.54180   50.00000   50.00000   50.00000   90.00000   90.00000   90.00000
LATT -1
SFAC C  
C      1  0.5669960000000  0.4114680000000  0.4773950000000 1.0
C      1  0.5642050000000  0.5657860000000  0.4343260000000 1.0
C      1  0.5656780000000  0.5259430000000  0.5890530000000 1.0
C      1  0.3921160000000  0.4974580000000  0.4912320000000 1.0
C      1  0.3942620000000  0.5080100000000  0.5179050000000 1.0
C      1  0.3887250000000  0.4692110000000  0.4927190000000 1.0
C      1  0.5018250000000  0.4999510000000  0.5336400000000 1.0
C      1  0.5040000000000  0.4732090000000  0.4773830000000 1.0
C      1  0.5013340000000  0.5312940000000  0.4853440000000 1.0
C      1  0.4788080000000  0.5201900000000  0.4432700000000 1.0
C      1  0.4780560000000  0.5373270000000  0.5426180000000 1.0
C      1  0.4828240000000  0.4408130000000  0.5097260000000 1.0
C      1  0.4081510000000  0.5077100000000  0.5633710000000 1.0
C      1  0.4087310000000  0.4329110000000  0.4731060000000 1.0
C      1  0.4051010000000  0.5530810000000  0.4585970000000 1.0
C      1  0.4743340000000  0.4003360000000  0.4547850000000 1.0
C      1  0.4703870000000  0.5887400000000  0.4365530000000 1.0
C      1  0.4720690000000  0.5099210000000  0.6078850000000 1.0
C      1  0.4543070000000  0.4480440000000  0.4724880000000 1.0
C      1  0.4514150000000  0.5509060000000  0.4686310000000 1.0
C      1  0.4536770000000  0.5010360000000  0.5597800000000 1.0
C      1  0.5510460000000  0.5218230000000  0.4835090000000 1.0
C      1  0.5509720000000  0.5052830000000  0.5265390000000 1.0
C      1  0.5520900000000  0.4763450000000  0.4903250000000 1.0
C      1  0.5621650000000  0.4790740000000  0.5200150000000 1.0
C      1  0.5617820000000  0.4955400000000  0.4706310000000 1.0
C      1  0.5597370000000  0.5305220000000  0.5100990000000 1.0
C      1  0.4736770000000  0.4791550000000  0.5686870000000 1.0
C      1  0.4717780000000  0.4481140000000  0.4464800000000 1.0
C      1  0.4697760000000  0.5719820000000  0.4815140000000 1.0
C      1  0.5138450000000  0.5648390000000  0.5845430000000 1.0
C      1  0.5144690000000  0.3940820000000  0.5140370000000 1.0
C      1  0.5118800000000  0.5417300000000  0.4010400000000 1.0
C      1  0.5108070000000  0.4248530000000  0.4243030000000 1.0
C      1  0.5083860000000  0.6032510000000  0.4728550000000 1.0
C      1  0.5097680000000  0.4728290000000  0.6028080000000 1.0
C      1  0.4181340000000  0.4668270000000  0.4278160000000 1.0
C      1  0.4172170000000  0.5791520000000  0.5086550000000 1.0
C      1  0.4178620000000  0.4521410000000  0.5604270000000 1.0
C      1  0.5831830000000  0.5680580000000  0.4909060000000 1.0
C      1  0.5840600000000  0.4773990000000  0.5626040000000 1.0
C      1  0.5848490000000  0.4596390000000  0.4479330000000 1.0
C      1  0.4937490000000  0.4746490000000  0.5447690000000 1.0
C      1  0.4784920000000  0.4894980000000  0.4793400000000 1.0
C      1  0.4763810000000  0.5179150000000  0.4935860000000 1.0
C      1  0.5579030000000  0.4091610000000  0.5312180000000 1.0
C      1  0.5567140000000  0.5206550000000  0.4049640000000 1.0
C      1  0.5596560000000  0.5755120000000  0.5656800000000 1.0
C      1  0.5309350000000  0.4015080000000  0.5368500000000 1.0
C      1  0.5295620000000  0.5191230000000  0.3960850000000 1.0
C      1  0.5314270000000  0.5822870000000  0.5682670000000 1.0
C      1  0.4580730000000  0.4516010000000  0.5757650000000 1.0
C      1  0.4586970000000  0.4572670000000  0.4206480000000 1.0
C      1  0.4586510000000  0.5880090000000  0.5036270000000 1.0
C      1  0.4602390000000  0.4316440000000  0.4957690000000 1.0
C      1  0.4570470000000  0.5374400000000  0.4432480000000 1.0
C      1  0.4587370000000  0.5300420000000  0.5620660000000 1.0
C      1  0.4391840000000  0.4806850000000  0.4137750000000 1.0
C      1  0.4399920000000  0.5814030000000  0.5265880000000 1.0
C      1  0.4401220000000  0.4334310000000  0.5582850000000 1.0
C      1  0.4014960000000  0.4763550000000  0.4487430000000 1.0
C      1  0.3996210000000  0.5567090000000  0.5072820000000 1.0
C      1  0.3999480000000  0.4632600000000  0.5404630000000 1.0
C      1  0.5436670000000  0.4569270000000  0.5305910000000 1.0
C      1  0.5420860000000  0.4957750000000  0.4471610000000 1.0
C      1  0.5355880000000  0.5481610000000  0.5194000000000 1.0
C      1  0.5055190000000  0.5618050000000  0.4511150000000 1.0
C      1  0.5071920000000  0.5116620000000  0.5770840000000 1.0
C      1  0.5086240000000  0.4277370000000  0.4700650000000 1.0
C      1  0.5485240000000  0.5123940000000  0.5544580000000 1.0
C      1  0.5505840000000  0.4487070000000  0.4806570000000 1.0
C      1  0.5479360000000  0.5431950000000  0.4639400000000 1.0
C      1  0.5078550000000  0.4471440000000  0.4074640000000 1.0
C      1  0.5065050000000  0.6071630000000  0.5007140000000 1.0
C      1  0.5067760000000  0.4463020000000  0.5934300000000 1.0
C      1  0.5172400000000  0.3990530000000  0.4816050000000 1.0
C      1  0.5139740000000  0.5671180000000  0.4213560000000 1.0
C      1  0.5157830000000  0.5345750000000  0.5968970000000 1.0
C      1  0.5351300000000  0.5937920000000  0.4622990000000 1.0
C      1  0.5368890000000  0.4871910000000  0.5998400000000 1.0
C      1  0.5382720000000  0.4206550000000  0.4377310000000 1.0
C      1  0.4472920000000  0.4029840000000  0.4628160000000 1.0
C      1  0.4432130000000  0.5801440000000  0.4348870000000 1.0
C      1  0.4448950000000  0.5146490000000  0.6008900000000 1.0
C      1  0.4736500000000  0.4034240000000  0.5427850000000 1.0
C      1  0.4715320000000  0.5110960000000  0.3962150000000 1.0
C      1  0.4727300000000  0.5829840000000  0.5616860000000 1.0
C      1  0.5907900000000  0.4819110000000  0.4644490000000 1.0
C      1  0.5887620000000  0.5425370000000  0.5017500000000 1.0
C      1  0.5902920000000  0.4807320000000  0.5350100000000 1.0
C      1  0.5743920000000  0.4699090000000  0.4235550000000 1.0
C      1  0.5755590000000  0.5845670000000  0.5137390000000 1.0
C      1  0.5738590000000  0.4510430000000  0.5661300000000 1.0
C      1  0.5552790000000  0.4670520000000  0.6039590000000 1.0
C      1  0.5567670000000  0.4281260000000  0.4186510000000 1.0
C      1  0.5542590000000  0.6054860000000  0.4784880000000 1.0
C      1  0.4527800000000  0.4759280000000  0.5161920000000 1.0
C      1  0.4385470000000  0.5003400000000  0.4706760000000 1.0
C      1  0.4369210000000  0.5278890000000  0.5129090000000 1.0
C      1  0.4833910000000  0.4618550000000  0.4049720000000 1.0
C      1  0.4827800000000  0.6005440000000  0.5153320000000 1.0
C      1  0.4825110000000  0.4354810000000  0.5821540000000 1.0
C      1  0.5323010000000  0.4445920000000  0.4577160000000 1.0
C      1  0.5287720000000  0.5642230000000  0.4718790000000 1.0
C      1  0.5313070000000  0.4930970000000  0.5693190000000 1.0
C      1  0.4870180000000  0.3901300000000  0.5204090000000 1.0
C      1  0.4843280000000  0.5373600000000  0.3949410000000 1.0
C      1  0.4859650000000  0.5710400000000  0.5842990000000 1.0
C      1  0.5679120000000  0.4994460000000  0.4240350000000 1.0
C      1  0.5777380000000  0.5743360000000  0.5414910000000 1.0
C      1  0.5682600000000  0.4366740000000  0.5399480000000 1.0
C      1  0.5165180000000  0.5544830000000  0.4975960000000 1.0
C      1  0.5228200000000  0.4688790000000  0.5517850000000 1.0
C      1  0.5213150000000  0.4719330000000  0.4517680000000 1.0
C      1  0.4472710000000  0.4139490000000  0.5390890000000 1.0
C      1  0.4448560000000  0.5075710000000  0.4077610000000 1.0
C      1  0.4462660000000  0.5744550000000  0.5529110000000 1.0
C      1  0.6055860000000  0.5039030000000  0.5291930000000 1.0
C      1  0.6061350000000  0.4758080000000  0.4874330000000 1.0
C      1  0.6042260000000  0.5257860000000  0.4846360000000 1.0
C      1  0.5184880000000  0.5971330000000  0.5461170000000 1.0
C      1  0.5187110000000  0.4131230000000  0.5613310000000 1.0
C      1  0.5181010000000  0.4918750000000  0.3946720000000 1.0
C      1  0.4459670000000  0.5423800000000  0.5928440000000 1.0
C      1  0.4477920000000  0.3958260000000  0.4907770000000 1.0
C      1  0.4445120000000  0.5582080000000  0.4159870000000 1.0
C      1  0.4509680000000  0.4755290000000  0.4864340000000 1.0
C      1  0.4464120000000  0.5265930000000  0.4849970000000 1.0
C      1  0.4494830000000  0.5005340000000  0.5301660000000 1.0
C      1  0.4336590000000  0.5305860000000  0.4251490000000 1.0
C      1  0.4353000000000  0.5489140000000  0.5652710000000 1.0
C      1  0.4372350000000  0.4162500000000  0.5101080000000 1.0
C      1  0.5239200000000  0.4850900000000  0.4933850000000 1.0
C      1  0.5232590000000  0.5139330000000  0.4905200000000 1.0
C      1  0.5231190000000  0.5010790000000  0.5165200000000 1.0
C      1  0.4081680000000  0.5335300000000  0.5239830000000 1.0
C      1  0.3972130000000  0.4518770000000  0.5141980000000 1.0
C      1  0.4077850000000  0.5022050000000  0.4626980000000 1.0
C      1  0.5972610000000  0.4485140000000  0.4927470000000 1.0
C      1  0.5955170000000  0.5350200000000  0.4584190000000 1.0
C      1  0.5972550000000  0.5216470000000  0.5505540000000 1.0
C      1  0.5429520000000  0.4023080000000  0.4646470000000 1.0
C      1  0.5396230000000  0.5807020000000  0.4327880000000 1.0
C      1  0.5412560000000  0.5190000000000  0.6030260000000 1.0
C      1  0.5300020000000  0.5234650000000  0.4466160000000 1.0
C      1  0.5286830000000  0.5367200000000  0.5453200000000 1.0
C      1  0.5324490000000  0.4432200000000  0.5053260000000 1.0
C      1  0.4126810000000  0.5339290000000  0.5538750000000 1.0
C      1  0.4117310000000  0.4299090000000  0.5014870000000 1.0
C      1  0.4105050000000  0.5283890000000  0.4450090000000 1.0
C      1  0.4692870000000  0.5605070000000  0.4013100000000 1.0
C      1  0.4710220000000  0.5543520000000  0.6019830000000 1.0
C      1  0.4731610000000  0.3836720000000  0.4966780000000 1.0
C      1  0.3964110000000  0.4917910000000  0.5419110000000 1.0
C      1  0.3943940000000  0.4570080000000  0.4677870000000 1.0
C      1  0.3912780000000  0.5510590000000  0.4820580000000 1.0
C      1  0.5708390000000  0.5421610000000  0.4186610000000 1.0
C      1  0.5721590000000  0.5514530000000  0.5768470000000 1.0
C      1  0.5725670000000  0.4102840000000  0.5060880000000 1.0
C      1  0.4901570000000  0.4143220000000  0.5637210000000 1.0
C      1  0.4896190000000  0.4885310000000  0.3957690000000 1.0
C      1  0.4900490000000  0.5959770000000  0.5429190000000 1.0
C      1  0.5896400000000  0.5496210000000  0.5535140000000 1.0
C      1  0.5875840000000  0.4335590000000  0.5154470000000 1.0
C      1  0.5862830000000  0.5227300000000  0.4339970000000 1.0
C      1  0.4889780000000  0.4909510000000  0.5922710000000 1.0
C      1  0.4896370000000  0.4242100000000  0.4454330000000 1.0
C      1  0.4870000000000  0.5851380000000  0.4615210000000 1.0
C      1  0.4880940000000  0.5335900000000  0.6104030000000 1.0
C      1  0.4902920000000  0.3869330000000  0.4743850000000 1.0
C      1  0.4862510000000  0.5787590000000  0.4149590000000 1.0
C      1  0.5544160000000  0.6030190000000  0.5061960000000 1.0
C      1  0.5549370000000  0.4451590000000  0.5870570000000 1.0
C      1  0.5555640000000  0.4541600000000  0.4086200000000 1.0
C      1  0.4328070000000  0.4427700000000  0.4311690000000 1.0
C      1  0.4307030000000  0.5879680000000  0.4855810000000 1.0
C      1  0.4310460000000  0.4672510000000  0.5805890000000 1.0
C      1  0.5770440000000  0.5585300000000  0.4619770000000 1.0
C      1  0.5792740000000  0.5067630000000  0.5691780000000 1.0
C      1  0.5792010000000  0.4393840000000  0.4703790000000 1.0
C      1  0.5046520000000  0.4461530000000  0.4927370000000 1.0
C      1  0.5019710000000  0.5321130000000  0.4549560000000 1.0
C      1  0.5021220000000  0.5239180000000  0.5499270000000 1.0
C      1  0.5286880000000  0.6059970000000  0.5196820000000 1.0
C      1  0.5294120000000  0.4313070000000  0.5821420000000 1.0
C      1  0.5296110000000  0.4651070000000  0.4002230000000 1.0
C      1  0.4290550000000  0.5718010000000  0.4603350000000 1.0
C      1  0.4308010000000  0.4967780000000  0.5802680000000 1.0
C      1  0.4321910000000  0.4280640000000  0.4569030000000 1.0
C      1  0.4655510000000  0.4981630000000  0.4542820000000 1.0
C      1  0.4647750000000  0.5235120000000  0.5206500000000 1.0
C      1  0.4760950000000  0.4623510000000  0.5253910000000 1.0
C      1  0.6103350000000  0.5018420000000  0.5002290000000 1.0
END
