TITL C-28427-6808-3 54.2350003734938 125000 -1271.47584660812 0 0 183 (C1) n - 1
REM
REM in /rds/project/t2_vol4/rds-t2-cs072/BORA/CARBON/from-Arr/AIRSS/Generating-Clusters/GAP-ML-2020/Higher-Symm/SD-CG/HFTN-CG/C160-200
REM
REM
REM
REM
REM
REM ./C.cell (6b4489405718ea1b717e0baf1da4c2d9)
REM AIRSS Version 0.9.1 bugfix July 2018 build 013d7b7c2542+ Fri, 06 Jul 2018 19:26:36 +0100
REM compiler GCC version 9.3.0
REM options -cpp -mtune=generic -march=x86-64 -g -O0
REM seed -1078432055 -1701887557 1107837550 873528459 656180745 1124193573 1114610910 -1764308653 -1044645379 -1320884838 -1984270919 -2112206997 1805479429 -199735316 948025110 -1605222863 -1519974148 1620425919 -1330937002 -232996439 -1215512082 -1310152802 694350013 1906656857 582699724 -365309996 2127574677 -1269268573 1957152566 2006727629 -1794515032 1274866648 -1788883891
REM
CELL 1.54180   50.00000   50.00000   50.00000   90.00000   90.00000   90.00000
LATT -1
SFAC C  
C      1  0.4068430000000  0.4841720000000  0.4427420000000 1.0
C      1  0.4477090000000  0.5714670000000  0.4452910000000 1.0
C      1  0.5708720000000  0.5674830000000  0.4423390000000 1.0
C      1  0.5940040000000  0.4705160000000  0.4418360000000 1.0
C      1  0.4907330000000  0.3984720000000  0.4409460000000 1.0
C      1  0.4022940000000  0.4654860000000  0.5506610000000 1.0
C      1  0.4379120000000  0.5800190000000  0.5548910000000 1.0
C      1  0.5603940000000  0.5840640000000  0.5535430000000 1.0
C      1  0.5956870000000  0.4662110000000  0.5517700000000 1.0
C      1  0.4816760000000  0.4076530000000  0.5544440000000 1.0
C      1  0.5197040000000  0.4658900000000  0.6127650000000 1.0
C      1  0.4506870000000  0.4488990000000  0.5968250000000 1.0
C      1  0.4441940000000  0.5270500000000  0.6020510000000 1.0
C      1  0.5307150000000  0.5751740000000  0.5918200000000 1.0
C      1  0.5782660000000  0.5068540000000  0.5989820000000 1.0
C      1  0.5392050000000  0.4488920000000  0.3999780000000 1.0
C      1  0.4610610000000  0.4390060000000  0.4015570000000 1.0
C      1  0.4419430000000  0.5156230000000  0.4042720000000 1.0
C      1  0.4987820000000  0.5683140000000  0.4031850000000 1.0
C      1  0.5628420000000  0.5231560000000  0.4005100000000 1.0
C      1  0.4424870000000  0.4864580000000  0.4073650000000 1.0
C      1  0.4756080000000  0.5508030000000  0.4058800000000 1.0
C      1  0.5458210000000  0.5465720000000  0.4043000000000 1.0
C      1  0.5460280000000  0.4782290000000  0.4022640000000 1.0
C      1  0.4902750000000  0.4353680000000  0.4043180000000 1.0
C      1  0.4407110000000  0.4983490000000  0.6007250000000 1.0
C      1  0.4888020000000  0.5505470000000  0.6027190000000 1.0
C      1  0.5374960000000  0.5306040000000  0.5988160000000 1.0
C      1  0.5403300000000  0.4791810000000  0.6000640000000 1.0
C      1  0.4789130000000  0.4408090000000  0.5959470000000 1.0
C      1  0.5452540000000  0.5523040000000  0.4332560000000 1.0
C      1  0.5411680000000  0.4815010000000  0.4301410000000 1.0
C      1  0.4930750000000  0.4306440000000  0.4333020000000 1.0
C      1  0.4387550000000  0.4818850000000  0.4365380000000 1.0
C      1  0.4705790000000  0.5503000000000  0.4353760000000 1.0
C      1  0.5458740000000  0.5391560000000  0.5714280000000 1.0
C      1  0.5502170000000  0.4700280000000  0.5726340000000 1.0
C      1  0.4870820000000  0.4361060000000  0.5668070000000 1.0
C      1  0.4377780000000  0.4939340000000  0.5709310000000 1.0
C      1  0.4790780000000  0.5562670000000  0.5735410000000 1.0
C      1  0.6041830000000  0.5066600000000  0.5282680000000 1.0
C      1  0.5458370000000  0.4055270000000  0.5260980000000 1.0
C      1  0.4191250000000  0.4324860000000  0.5255490000000 1.0
C      1  0.4105290000000  0.5507100000000  0.5309540000000 1.0
C      1  0.5294180000000  0.6003880000000  0.5246500000000 1.0
C      1  0.6025300000000  0.5089660000000  0.4680770000000 1.0
C      1  0.5452660000000  0.4087720000000  0.4673560000000 1.0
C      1  0.4204580000000  0.4324990000000  0.4666770000000 1.0
C      1  0.4119350000000  0.5496120000000  0.4691440000000 1.0
C      1  0.5223200000000  0.6002100000000  0.4681840000000 1.0
C      1  0.4350650000000  0.5907690000000  0.5272270000000 1.0
C      1  0.5715220000000  0.5815780000000  0.5265160000000 1.0
C      1  0.6020500000000  0.4596370000000  0.5245900000000 1.0
C      1  0.4919550000000  0.3976720000000  0.5280940000000 1.0
C      1  0.3930100000000  0.4713890000000  0.5238080000000 1.0
C      1  0.4487610000000  0.5764990000000  0.4759570000000 1.0
C      1  0.5711880000000  0.5782720000000  0.4685890000000 1.0
C      1  0.6005370000000  0.4620020000000  0.4686610000000 1.0
C      1  0.4983540000000  0.3925260000000  0.4685940000000 1.0
C      1  0.3964330000000  0.4765990000000  0.4680220000000 1.0
C      1  0.4414140000000  0.4262030000000  0.4850100000000 1.0
C      1  0.4123330000000  0.5233210000000  0.4846870000000 1.0
C      1  0.4971970000000  0.5922810000000  0.4873280000000 1.0
C      1  0.5884180000000  0.5309150000000  0.4840380000000 1.0
C      1  0.5575000000000  0.4324480000000  0.4826460000000 1.0
C      1  0.4455820000000  0.4234290000000  0.5139170000000 1.0
C      1  0.4099030000000  0.5236500000000  0.5170610000000 1.0
C      1  0.5046630000000  0.5916540000000  0.5152730000000 1.0
C      1  0.5891740000000  0.5303620000000  0.5159470000000 1.0
C      1  0.5588090000000  0.4302990000000  0.5132420000000 1.0
C      1  0.5440570000000  0.4785770000000  0.5183280000000 1.0
C      1  0.4875090000000  0.4528920000000  0.5149400000000 1.0
C      1  0.4493770000000  0.4918530000000  0.5191190000000 1.0
C      1  0.4766130000000  0.5502900000000  0.5192950000000 1.0
C      1  0.5373620000000  0.5347520000000  0.5183770000000 1.0
C      1  0.5458760000000  0.4803040000000  0.4904780000000 1.0
C      1  0.4853970000000  0.4519640000000  0.4864080000000 1.0
C      1  0.4489650000000  0.4876040000000  0.4913370000000 1.0
C      1  0.4691700000000  0.5532360000000  0.4902380000000 1.0
C      1  0.5357270000000  0.5316920000000  0.4896320000000 1.0
C      1  0.4411220000000  0.4360210000000  0.5694490000000 1.0
C      1  0.4279620000000  0.5368970000000  0.5771290000000 1.0
C      1  0.5168210000000  0.5871710000000  0.5704520000000 1.0
C      1  0.5852590000000  0.5099940000000  0.5732910000000 1.0
C      1  0.5611180000000  0.4287920000000  0.5633300000000 1.0
C      1  0.4496530000000  0.4195360000000  0.4264890000000 1.0
C      1  0.4248760000000  0.5256160000000  0.4293020000000 1.0
C      1  0.4920410000000  0.5894510000000  0.4282890000000 1.0
C      1  0.5811110000000  0.5227550000000  0.4270100000000 1.0
C      1  0.5560470000000  0.4373840000000  0.4261190000000 1.0
C      1  0.4112460000000  0.4856180000000  0.5650490000000 1.0
C      1  0.4594300000000  0.5777560000000  0.5700320000000 1.0
C      1  0.5545650000000  0.5673550000000  0.5761930000000 1.0
C      1  0.5761860000000  0.4530800000000  0.5678470000000 1.0
C      1  0.4552120000000  0.4093010000000  0.5626690000000 1.0
C      1  0.4016410000000  0.5093100000000  0.4335090000000 1.0
C      1  0.4628810000000  0.5922700000000  0.4308560000000 1.0
C      1  0.5903100000000  0.5496850000000  0.4337220000000 1.0
C      1  0.5809620000000  0.4520030000000  0.4269820000000 1.0
C      1  0.4661680000000  0.3946340000000  0.4294240000000 1.0
C      1  0.5631770000000  0.5275630000000  0.5292810000000 1.0
C      1  0.5455090000000  0.4523260000000  0.5279810000000 1.0
C      1  0.4632310000000  0.4443680000000  0.5261880000000 1.0
C      1  0.4340090000000  0.5136230000000  0.5295380000000 1.0
C      1  0.4923850000000  0.5713980000000  0.5301080000000 1.0
C      1  0.5608380000000  0.5276340000000  0.4742060000000 1.0
C      1  0.5400620000000  0.4564310000000  0.4753130000000 1.0
C      1  0.4673750000000  0.4268060000000  0.4742920000000 1.0
C      1  0.4399940000000  0.5109580000000  0.4771250000000 1.0
C      1  0.4933950000000  0.5646470000000  0.4767190000000 1.0
C      1  0.5994760000000  0.4948000000000  0.5541370000000 1.0
C      1  0.5585190000000  0.4049830000000  0.5512210000000 1.0
C      1  0.4171780000000  0.4408500000000  0.5524000000000 1.0
C      1  0.4217220000000  0.5560650000000  0.5573740000000 1.0
C      1  0.5355470000000  0.5978570000000  0.5517620000000 1.0
C      1  0.5951790000000  0.5005910000000  0.4418100000000 1.0
C      1  0.5479700000000  0.4128340000000  0.4406640000000 1.0
C      1  0.4263490000000  0.4265570000000  0.4404480000000 1.0
C      1  0.4238110000000  0.5524820000000  0.4432410000000 1.0
C      1  0.5141700000000  0.6016250000000  0.4424480000000 1.0
C      1  0.4427450000000  0.4723810000000  0.6096940000000 1.0
C      1  0.4655350000000  0.5403490000000  0.6134950000000 1.0
C      1  0.5176970000000  0.5512890000000  0.6047920000000 1.0
C      1  0.5501510000000  0.5060020000000  0.6058640000000 1.0
C      1  0.4989450000000  0.4514860000000  0.6116760000000 1.0
C      1  0.4494840000000  0.4624180000000  0.3962740000000 1.0
C      1  0.4598400000000  0.5328410000000  0.3927310000000 1.0
C      1  0.5234990000000  0.5605250000000  0.3963620000000 1.0
C      1  0.5561470000000  0.4993910000000  0.3882170000000 1.0
C      1  0.5149950000000  0.4405750000000  0.3937880000000 1.0
C      1  0.5571000000000  0.5276320000000  0.4447360000000 1.0
C      1  0.5390810000000  0.4566100000000  0.4425220000000 1.0
C      1  0.4661770000000  0.4362140000000  0.4452340000000 1.0
C      1  0.4435250000000  0.5094040000000  0.4474740000000 1.0
C      1  0.4935530000000  0.5649450000000  0.4457700000000 1.0
C      1  0.5612010000000  0.5184340000000  0.5571420000000 1.0
C      1  0.5363250000000  0.4486090000000  0.5561980000000 1.0
C      1  0.4628170000000  0.4509950000000  0.5549430000000 1.0
C      1  0.4420080000000  0.5207240000000  0.5580010000000 1.0
C      1  0.5020840000000  0.5651830000000  0.5570030000000 1.0
C      1  0.4022650000000  0.4509620000000  0.4795810000000 1.0
C      1  0.4216450000000  0.5704090000000  0.4856950000000 1.0
C      1  0.5496990000000  0.5942110000000  0.4803110000000 1.0
C      1  0.6086120000000  0.4853230000000  0.4829770000000 1.0
C      1  0.5226110000000  0.3966060000000  0.4831900000000 1.0
C      1  0.4019270000000  0.4489160000000  0.5082860000000 1.0
C      1  0.4173080000000  0.5725870000000  0.5135610000000 1.0
C      1  0.5523640000000  0.5953130000000  0.5088720000000 1.0
C      1  0.6093720000000  0.4842140000000  0.5111170000000 1.0
C      1  0.5201930000000  0.3980180000000  0.5131440000000 1.0
C      1  0.5213820000000  0.5420940000000  0.5548780000000 1.0
C      1  0.5442570000000  0.4939550000000  0.5562250000000 1.0
C      1  0.5080550000000  0.4534220000000  0.5553120000000 1.0
C      1  0.4644700000000  0.4813510000000  0.5600430000000 1.0
C      1  0.4723650000000  0.5276030000000  0.5613040000000 1.0
C      1  0.5176450000000  0.5477040000000  0.4452040000000 1.0
C      1  0.5352240000000  0.5046740000000  0.4459040000000 1.0
C      1  0.5113430000000  0.4481570000000  0.4456140000000 1.0
C      1  0.4579440000000  0.4643560000000  0.4497780000000 1.0
C      1  0.4699490000000  0.5235730000000  0.4481400000000 1.0
C      1  0.4534210000000  0.6049940000000  0.5122390000000 1.0
C      1  0.5888650000000  0.5623090000000  0.5141880000000 1.0
C      1  0.5890030000000  0.4385310000000  0.5106420000000 1.0
C      1  0.4696430000000  0.3990440000000  0.5107000000000 1.0
C      1  0.3911400000000  0.4977960000000  0.5127500000000 1.0
C      1  0.4656240000000  0.5988190000000  0.4887420000000 1.0
C      1  0.5881000000000  0.5618350000000  0.4859290000000 1.0
C      1  0.5875640000000  0.4403180000000  0.4824890000000 1.0
C      1  0.4755810000000  0.4003950000000  0.4834950000000 1.0
C      1  0.3930450000000  0.4995820000000  0.4848330000000 1.0
C      1  0.4844970000000  0.5238280000000  0.5340440000000 1.0
C      1  0.5153390000000  0.5229750000000  0.5349000000000 1.0
C      1  0.5243080000000  0.4935030000000  0.5350700000000 1.0
C      1  0.5003620000000  0.4735060000000  0.5334750000000 1.0
C      1  0.4749820000000  0.4923180000000  0.5336590000000 1.0
C      1  0.4658800000000  0.5264390000000  0.4790050000000 1.0
C      1  0.5127210000000  0.5414860000000  0.4750920000000 1.0
C      1  0.5424290000000  0.5037310000000  0.4761920000000 1.0
C      1  0.5101920000000  0.4525050000000  0.4727330000000 1.0
C      1  0.4657300000000  0.4716060000000  0.4754080000000 1.0
C      1  0.4820370000000  0.5012820000000  0.5738440000000 1.0
C      1  0.5098810000000  0.5185540000000  0.4416680000000 1.0
C      1  0.4926350000000  0.5182690000000  0.4656290000000 1.0
END
