TITL C-29621-2250-7 -0.0438352810245789 125000 -222.558091894762 0 0 33 (C1) n - 1
REM
REM in /rds/project/t2_vol4/rds-t2-cs072/BORA/CARBON/from-Arr/AIRSS/Generating-Clusters/GAP-ML-2020/Higher-Symm/SD-CG/HFTN-CG
REM
REM
REM
REM
REM
REM ./C.cell (b20cbc046b6831c77cfcea5457e17084)
REM AIRSS Version 0.9.1 bugfix July 2018 build 013d7b7c2542+ Fri, 06 Jul 2018 19:26:36 +0100
REM compiler GCC version 9.3.0
REM options -cpp -mtune=generic -march=x86-64 -g -O0
REM seed 1677933422 642896206 -1997962133 -734625884 -1275023967 -1604598333 -1523091906 1669160180 -516954327 -1080649379 1678542363 -1472830185 1992197503 -1272264636 -573363252 290786169 -1349227557 1425493754 1966111936 192766166 1394739852 550891218 -639169393 -1065223267 1375710674 -2033836141 -1704298364 -1023434791 -110791461 1843983985 1742312380 -1507210845 1562488822
REM
CELL 1.54180   50.00000   50.00000   50.00000   90.00000   90.00000   90.00000
LATT -1
SFAC C  
C      1  0.5140660000000  0.5164340000000  0.5345100000000 1.0
C      1  0.5222820000000  0.5142480000000  0.4661500000000 1.0
C      1  0.4568130000000  0.5124720000000  0.4921480000000 1.0
C      1  0.4837670000000  0.5154360000000  0.5344650000000 1.0
C      1  0.4720150000000  0.5122850000000  0.4657110000000 1.0
C      1  0.5380440000000  0.5152740000000  0.4922680000000 1.0
C      1  0.5268450000000  0.5577300000000  0.5113340000000 1.0
C      1  0.4949950000000  0.5515570000000  0.4789970000000 1.0
C      1  0.4908580000000  0.5683730000000  0.5229880000000 1.0
C      1  0.4780060000000  0.5524400000000  0.5043170000000 1.0
C      1  0.5194100000000  0.5640430000000  0.4844520000000 1.0
C      1  0.5147170000000  0.5750230000000  0.5305390000000 1.0
C      1  0.5457400000000  0.4878970000000  0.4885210000000 1.0
C      1  0.4668530000000  0.4842180000000  0.4629370000000 1.0
C      1  0.4841040000000  0.4881590000000  0.5435420000000 1.0
C      1  0.4516830000000  0.4845400000000  0.4896210000000 1.0
C      1  0.5299400000000  0.4866170000000  0.4623500000000 1.0
C      1  0.5146180000000  0.4889670000000  0.5438230000000 1.0
C      1  0.4841870000000  0.4638820000000  0.4573190000000 1.0
C      1  0.4706780000000  0.4662490000000  0.5339930000000 1.0
C      1  0.5437300000000  0.4674860000000  0.5068180000000 1.0
C      1  0.5142780000000  0.4648980000000  0.4567070000000 1.0
C      1  0.5288690000000  0.4680120000000  0.5332330000000 1.0
C      1  0.4556530000000  0.4646910000000  0.5079670000000 1.0
C      1  0.5142600000000  0.4434800000000  0.5251440000000 1.0
C      1  0.5149970000000  0.4416590000000  0.4755240000000 1.0
C      1  0.4719530000000  0.4412160000000  0.5000280000000 1.0
C      1  0.4868190000000  0.4425070000000  0.5256020000000 1.0
C      1  0.4854710000000  0.4408720000000  0.4760520000000 1.0
C      1  0.5288210000000  0.4430400000000  0.4992320000000 1.0
C      1  0.4678940000000  0.5272780000000  0.5134330000000 1.0
C      1  0.4962890000000  0.5265100000000  0.4642280000000 1.0
C      1  0.5313450000000  0.5299190000000  0.5160480000000 1.0
END
