TITL C-29640-3663-2 -66.1260566382086 125000 -401.843055777354 0 0 59 (C1) n - 1
REM
REM in /rds/project/t2_vol4/rds-t2-cs072/BORA/CARBON/from-Arr/AIRSS/Generating-Clusters/GAP-ML-2020/Higher-Symm/SD-CG/HFTN-CG
REM
REM
REM
REM
REM
REM ./C.cell (b20cbc046b6831c77cfcea5457e17084)
REM AIRSS Version 0.9.1 bugfix July 2018 build 013d7b7c2542+ Fri, 06 Jul 2018 19:26:36 +0100
REM compiler GCC version 9.3.0
REM options -cpp -mtune=generic -march=x86-64 -g -O0
REM seed -1141980370 -1693278205 -355464017 927168867 554094904 -1770157411 -313247167 2029789834 -1478207964 -923803661 1849380711 -32828210 1362052274 1477238193 -1553498840 1617758623 1229045481 399701180 -578589685 1926750091 1967923175 -976247975 -1341170318 488583240 1668967412 -1014603116 -1135647537 1332313037 1933964231 398027073 605291041 229296878 1199720402
REM
CELL 1.54180   50.00000   50.00000   50.00000   90.00000   90.00000   90.00000
LATT -1
SFAC C  
C      1  0.5543540000000  0.5248050000000  0.4845160000000 1.0
C      1  0.5557340000000  0.5245270000000  0.5121160000000 1.0
C      1  0.4779890000000  0.4305380000000  0.5227760000000 1.0
C      1  0.4804340000000  0.4289520000000  0.4736980000000 1.0
C      1  0.4636670000000  0.4997760000000  0.5548880000000 1.0
C      1  0.4621580000000  0.4963720000000  0.4484670000000 1.0
C      1  0.5770150000000  0.4839490000000  0.5099480000000 1.0
C      1  0.5761740000000  0.4838140000000  0.4842770000000 1.0
C      1  0.5263630000000  0.4327100000000  0.4838750000000 1.0
C      1  0.5253570000000  0.4336700000000  0.5138790000000 1.0
C      1  0.4895460000000  0.5064020000000  0.4377060000000 1.0
C      1  0.4915670000000  0.5097840000000  0.5544460000000 1.0
C      1  0.5540490000000  0.4978110000000  0.5251480000000 1.0
C      1  0.5521460000000  0.4983280000000  0.4708530000000 1.0
C      1  0.4294300000000  0.5380620000000  0.5417000000000 1.0
C      1  0.4309280000000  0.5318130000000  0.4689220000000 1.0
C      1  0.4810120000000  0.4529430000000  0.5426970000000 1.0
C      1  0.4830990000000  0.4519630000000  0.4562770000000 1.0
C      1  0.5420290000000  0.5447780000000  0.4703430000000 1.0
C      1  0.5451030000000  0.5444770000000  0.5275590000000 1.0
C      1  0.5271870000000  0.4562550000000  0.4685680000000 1.0
C      1  0.5264990000000  0.4573350000000  0.5287380000000 1.0
C      1  0.5133670000000  0.4898960000000  0.5572310000000 1.0
C      1  0.5120050000000  0.4892390000000  0.4393990000000 1.0
C      1  0.5098330000000  0.5796280000000  0.4702440000000 1.0
C      1  0.5119210000000  0.5777310000000  0.5296980000000 1.0
C      1  0.5327030000000  0.5306450000000  0.5498210000000 1.0
C      1  0.5286000000000  0.5315640000000  0.4479760000000 1.0
C      1  0.4906800000000  0.5617520000000  0.4640290000000 1.0
C      1  0.4952860000000  0.5578210000000  0.5383280000000 1.0
C      1  0.5323570000000  0.5667590000000  0.5144720000000 1.0
C      1  0.5308800000000  0.5669600000000  0.4844980000000 1.0
C      1  0.4756710000000  0.5457680000000  0.4876020000000 1.0
C      1  0.4765530000000  0.5433960000000  0.5194820000000 1.0
C      1  0.5053830000000  0.5017570000000  0.4852530000000 1.0
C      1  0.5097360000000  0.5063930000000  0.5118970000000 1.0
C      1  0.5080490000000  0.4630120000000  0.5492610000000 1.0
C      1  0.5089510000000  0.4619680000000  0.4477150000000 1.0
C      1  0.4418200000000  0.5148930000000  0.4525180000000 1.0
C      1  0.4436000000000  0.5178880000000  0.5503550000000 1.0
C      1  0.4614080000000  0.4727790000000  0.5415060000000 1.0
C      1  0.4652850000000  0.4722020000000  0.4664880000000 1.0
C      1  0.5029260000000  0.4162730000000  0.4838160000000 1.0
C      1  0.5018400000000  0.4179540000000  0.5140850000000 1.0
C      1  0.4995740000000  0.5337440000000  0.4486630000000 1.0
C      1  0.5060120000000  0.5362880000000  0.5551910000000 1.0
C      1  0.4636320000000  0.4995710000000  0.5064200000000 1.0
C      1  0.4772930000000  0.4945380000000  0.4824560000000 1.0
C      1  0.4453770000000  0.5430800000000  0.4904480000000 1.0
C      1  0.4454080000000  0.5442560000000  0.5190300000000 1.0
C      1  0.4512680000000  0.4758930000000  0.5150750000000 1.0
C      1  0.4517280000000  0.4597050000000  0.4918860000000 1.0
C      1  0.5360300000000  0.5043220000000  0.4462860000000 1.0
C      1  0.5382890000000  0.5029470000000  0.5505620000000 1.0
C      1  0.4837830000000  0.5144440000000  0.5234720000000 1.0
C      1  0.4894530000000  0.5238380000000  0.4746340000000 1.0
C      1  0.5311670000000  0.4815830000000  0.4830390000000 1.0
C      1  0.5314400000000  0.4825610000000  0.5138220000000 1.0
C      1  0.4630160000000  0.4350460000000  0.4970780000000 1.0
END
