TITL C-29564-8705-3 426.070937035311 125000 -238.202318327708 0 0 36 (C1) n - 1
REM
REM in /rds/project/t2_vol4/rds-t2-cs072/BORA/CARBON/from-Arr/AIRSS/Generating-Clusters/GAP-ML-2020/Higher-Symm/SD-CG/HFTN-CG
REM
REM
REM
REM
REM
REM ./C.cell (b20cbc046b6831c77cfcea5457e17084)
REM AIRSS Version 0.9.1 bugfix July 2018 build 013d7b7c2542+ Fri, 06 Jul 2018 19:26:36 +0100
REM compiler GCC version 9.3.0
REM options -cpp -mtune=generic -march=x86-64 -g -O0
REM seed 1633107607 939020738 -543235027 -1696385695 -900433456 48396179 1050194987 -1355588140 -989237336 -1437230817 -1756840399 871797852 1986276798 -80197736 1470339889 2101194421 730339437 -1657317634 -1270021468 -1855943619 -1731076362 -1917956604 427743850 269943883 -711019364 -616872227 848723531 1850473315 1976221284 784047354 1093467116 -1450440919 1495277316
REM
CELL 1.54180   50.00000   50.00000   50.00000   90.00000   90.00000   90.00000
LATT -1
SFAC C  
C      1  0.5088440000000  0.4251640000000  0.4653500000000 1.0
C      1  0.4858230000000  0.4136100000000  0.4628540000000 1.0
C      1  0.4668630000000  0.4139040000000  0.4807250000000 1.0
C      1  0.4578160000000  0.4189750000000  0.5045780000000 1.0
C      1  0.4766160000000  0.4325850000000  0.5187560000000 1.0
C      1  0.4963240000000  0.4465350000000  0.5247080000000 1.0
C      1  0.5192510000000  0.4618660000000  0.5196860000000 1.0
C      1  0.5337890000000  0.4539410000000  0.4966220000000 1.0
C      1  0.5276790000000  0.4377870000000  0.4777340000000 1.0
C      1  0.4500140000000  0.5065350000000  0.4930690000000 1.0
C      1  0.4482580000000  0.5310590000000  0.5336560000000 1.0
C      1  0.4820880000000  0.5087500000000  0.5569840000000 1.0
C      1  0.5179610000000  0.5285290000000  0.5530560000000 1.0
C      1  0.5394560000000  0.5315050000000  0.5360230000000 1.0
C      1  0.5520510000000  0.5115100000000  0.4969030000000 1.0
C      1  0.5478880000000  0.5219770000000  0.4519660000000 1.0
C      1  0.5003840000000  0.5135010000000  0.4474880000000 1.0
C      1  0.4698810000000  0.5350000000000  0.4642090000000 1.0
C      1  0.5247130000000  0.4866130000000  0.5331570000000 1.0
C      1  0.5431740000000  0.5054260000000  0.5230140000000 1.0
C      1  0.5476570000000  0.5011850000000  0.4706710000000 1.0
C      1  0.5269110000000  0.5036460000000  0.4491500000000 1.0
C      1  0.4734440000000  0.5062650000000  0.4555960000000 1.0
C      1  0.4605500000000  0.4893500000000  0.4723030000000 1.0
C      1  0.4451390000000  0.5039380000000  0.5204130000000 1.0
C      1  0.4566670000000  0.5059410000000  0.5450650000000 1.0
C      1  0.5091930000000  0.5001810000000  0.5531870000000 1.0
C      1  0.5421330000000  0.5461340000000  0.4683960000000 1.0
C      1  0.5174580000000  0.5568630000000  0.4646170000000 1.0
C      1  0.4964990000000  0.5412300000000  0.4563110000000 1.0
C      1  0.4564260000000  0.5339890000000  0.4881260000000 1.0
C      1  0.4578780000000  0.5478490000000  0.5129300000000 1.0
C      1  0.4721760000000  0.5494330000000  0.5359640000000 1.0
C      1  0.4907370000000  0.5367650000000  0.5533250000000 1.0
C      1  0.5464340000000  0.5521930000000  0.5187890000000 1.0
C      1  0.5518240000000  0.5402660000000  0.4946180000000 1.0
END
