TITL C-29636-2590-8 0.117099128105789 125000 -796.473821781217 0 0 112 (C1) n - 1
REM
REM in /rds/project/t2_vol4/rds-t2-cs072/BORA/CARBON/from-Arr/AIRSS/Generating-Clusters/GAP-ML-2020/Higher-Symm/SD-CG/HFTN-CG
REM
REM
REM
REM
REM
REM ./C.cell (b20cbc046b6831c77cfcea5457e17084)
REM AIRSS Version 0.9.1 bugfix July 2018 build 013d7b7c2542+ Fri, 06 Jul 2018 19:26:36 +0100
REM compiler GCC version 9.3.0
REM options -cpp -mtune=generic -march=x86-64 -g -O0
REM seed -1505874157 1512040259 1929513235 335559218 -981912092 -1369094697 1097933015 1292743274 1782064668 -942322608 2112801892 -1724172617 818161597 -743011846 -1670090886 1825580561 2078786713 -489183215 -242137143 -947742093 2005424299 -763110243 1630888367 -2005487042 1967294591 -893232094 1845017568 -1609844802 810970425 1902609552 -38067659 1244635865 -818086890
REM
CELL 1.54180   50.00000   50.00000   50.00000   90.00000   90.00000   90.00000
LATT -1
SFAC C  
C      1  0.5609410000000  0.5652090000000  0.4790230000000 1.0
C      1  0.5227810000000  0.5804990000000  0.5375480000000 1.0
C      1  0.5396940000000  0.5858290000000  0.5158890000000 1.0
C      1  0.5368790000000  0.4431710000000  0.5572600000000 1.0
C      1  0.5469430000000  0.4330260000000  0.5324260000000 1.0
C      1  0.4392350000000  0.4407420000000  0.5428450000000 1.0
C      1  0.4947100000000  0.5804300000000  0.5295020000000 1.0
C      1  0.5703710000000  0.4735920000000  0.5403230000000 1.0
C      1  0.4678880000000  0.4177500000000  0.5150000000000 1.0
C      1  0.5008620000000  0.5975460000000  0.4859360000000 1.0
C      1  0.5157230000000  0.5250840000000  0.4168070000000 1.0
C      1  0.5568860000000  0.5453250000000  0.5525430000000 1.0
C      1  0.5407680000000  0.4485940000000  0.4360170000000 1.0
C      1  0.4822460000000  0.5886160000000  0.5052280000000 1.0
C      1  0.4564560000000  0.5009520000000  0.5646810000000 1.0
C      1  0.5395080000000  0.5811460000000  0.4684400000000 1.0
C      1  0.5009690000000  0.4660070000000  0.4741550000000 1.0
C      1  0.5303720000000  0.5327090000000  0.4670670000000 1.0
C      1  0.4151130000000  0.4991270000000  0.5079790000000 1.0
C      1  0.5023740000000  0.4984060000000  0.5927950000000 1.0
C      1  0.5315890000000  0.4132160000000  0.5183760000000 1.0
C      1  0.5136280000000  0.5438780000000  0.5809930000000 1.0
C      1  0.4174550000000  0.4719410000000  0.5168050000000 1.0
C      1  0.5691250000000  0.5143240000000  0.4505280000000 1.0
C      1  0.5293810000000  0.5560190000000  0.5567780000000 1.0
C      1  0.5541490000000  0.4966000000000  0.4340420000000 1.0
C      1  0.4855300000000  0.4887410000000  0.4088790000000 1.0
C      1  0.4772670000000  0.5110500000000  0.5855930000000 1.0
C      1  0.5231180000000  0.5193590000000  0.5908290000000 1.0
C      1  0.4657150000000  0.5153870000000  0.4778780000000 1.0
C      1  0.5615820000000  0.5373550000000  0.4710690000000 1.0
C      1  0.4592200000000  0.5758030000000  0.4911510000000 1.0
C      1  0.5653470000000  0.4522450000000  0.5201360000000 1.0
C      1  0.4789330000000  0.4093860000000  0.4901650000000 1.0
C      1  0.5449070000000  0.4285890000000  0.4532400000000 1.0
C      1  0.5029090000000  0.4696260000000  0.5201220000000 1.0
C      1  0.4842320000000  0.5384300000000  0.5814770000000 1.0
C      1  0.4450700000000  0.4742250000000  0.5643820000000 1.0
C      1  0.4405690000000  0.5415680000000  0.5231050000000 1.0
C      1  0.5474480000000  0.5078540000000  0.5824860000000 1.0
C      1  0.4990300000000  0.5031990000000  0.4991250000000 1.0
C      1  0.4670100000000  0.4508730000000  0.4325090000000 1.0
C      1  0.4630800000000  0.4867980000000  0.4925030000000 1.0
C      1  0.5711960000000  0.4708140000000  0.4703070000000 1.0
C      1  0.5285460000000  0.5951160000000  0.4908070000000 1.0
C      1  0.4852090000000  0.4368220000000  0.5616430000000 1.0
C      1  0.5806590000000  0.5227580000000  0.5190470000000 1.0
C      1  0.5114210000000  0.4570120000000  0.4976860000000 1.0
C      1  0.5789930000000  0.5200750000000  0.4908250000000 1.0
C      1  0.4370790000000  0.5307440000000  0.4761760000000 1.0
C      1  0.4682830000000  0.5521590000000  0.5631850000000 1.0
C      1  0.4695980000000  0.5310210000000  0.4190780000000 1.0
C      1  0.4334470000000  0.5183370000000  0.5562760000000 1.0
C      1  0.4852080000000  0.5297300000000  0.4955360000000 1.0
C      1  0.5802850000000  0.4984820000000  0.4719760000000 1.0
C      1  0.5105810000000  0.5443970000000  0.4899490000000 1.0
C      1  0.5753100000000  0.5027750000000  0.5402110000000 1.0
C      1  0.5089720000000  0.4080100000000  0.5318130000000 1.0
C      1  0.4728180000000  0.4653550000000  0.4764210000000 1.0
C      1  0.5159120000000  0.4520280000000  0.4220050000000 1.0
C      1  0.4941180000000  0.5864120000000  0.4602700000000 1.0
C      1  0.5157630000000  0.4726170000000  0.5864720000000 1.0
C      1  0.5702440000000  0.5487680000000  0.5273020000000 1.0
C      1  0.4430040000000  0.5447590000000  0.5538750000000 1.0
C      1  0.5433100000000  0.4800030000000  0.5824780000000 1.0
C      1  0.5622510000000  0.5689140000000  0.5086670000000 1.0
C      1  0.4414760000000  0.4932370000000  0.4359170000000 1.0
C      1  0.5305260000000  0.5043290000000  0.4763910000000 1.0
C      1  0.5671990000000  0.4505130000000  0.4907800000000 1.0
C      1  0.5315600000000  0.4120640000000  0.4898800000000 1.0
C      1  0.4367300000000  0.5411470000000  0.4488460000000 1.0
C      1  0.4850560000000  0.5100460000000  0.4568240000000 1.0
C      1  0.5625610000000  0.5188940000000  0.5612960000000 1.0
C      1  0.4782110000000  0.4858870000000  0.5161750000000 1.0
C      1  0.5201970000000  0.4914600000000  0.5289120000000 1.0
C      1  0.4551530000000  0.4447280000000  0.4591940000000 1.0
C      1  0.4707800000000  0.5339260000000  0.5218220000000 1.0
C      1  0.4928020000000  0.4376480000000  0.4313530000000 1.0
C      1  0.4300160000000  0.4572570000000  0.4705890000000 1.0
C      1  0.5119360000000  0.5380500000000  0.5396630000000 1.0
C      1  0.4585860000000  0.4479580000000  0.5628860000000 1.0
C      1  0.4258360000000  0.4663640000000  0.5435820000000 1.0
C      1  0.4623820000000  0.4766160000000  0.4220760000000 1.0
C      1  0.5572550000000  0.4701170000000  0.4448570000000 1.0
C      1  0.5245630000000  0.5357070000000  0.5129270000000 1.0
C      1  0.5183160000000  0.5737330000000  0.4497820000000 1.0
C      1  0.5303940000000  0.5007870000000  0.4186200000000 1.0
C      1  0.4652180000000  0.5788260000000  0.4627520000000 1.0
C      1  0.4263630000000  0.4845110000000  0.4603040000000 1.0
C      1  0.4672270000000  0.4184830000000  0.4649990000000 1.0
C      1  0.5529660000000  0.4277230000000  0.4786580000000 1.0
C      1  0.4931340000000  0.4172210000000  0.4517610000000 1.0
C      1  0.4469580000000  0.5662820000000  0.4467050000000 1.0
C      1  0.4904020000000  0.5340820000000  0.4403670000000 1.0
C      1  0.4272920000000  0.4513790000000  0.4991000000000 1.0
C      1  0.4851900000000  0.5546580000000  0.5390860000000 1.0
C      1  0.4200560000000  0.5055690000000  0.4801690000000 1.0
C      1  0.5049830000000  0.5098310000000  0.5449250000000 1.0
C      1  0.4759560000000  0.5073530000000  0.5367240000000 1.0
C      1  0.5110000000000  0.4478810000000  0.5710630000000 1.0
C      1  0.4892370000000  0.5167650000000  0.4055430000000 1.0
C      1  0.5182320000000  0.5446100000000  0.4408250000000 1.0
C      1  0.4239930000000  0.5176130000000  0.5278470000000 1.0
C      1  0.5057150000000  0.4085990000000  0.4774890000000 1.0
C      1  0.5282580000000  0.5074670000000  0.5063920000000 1.0
C      1  0.5055670000000  0.4936430000000  0.4692770000000 1.0
C      1  0.5118930000000  0.4783100000000  0.4129130000000 1.0
C      1  0.4448230000000  0.5211370000000  0.4298250000000 1.0
C      1  0.5554550000000  0.4642630000000  0.5632140000000 1.0
C      1  0.4405090000000  0.5545020000000  0.4972690000000 1.0
C      1  0.4431700000000  0.4330110000000  0.5161970000000 1.0
C      1  0.4856430000000  0.4184810000000  0.5385780000000 1.0
END
