TITL C-29640-3663-9 -8.99490667386885 125000 -394.342410875652 0 0 57 (C1) n - 1
REM
REM in /rds/project/t2_vol4/rds-t2-cs072/BORA/CARBON/from-Arr/AIRSS/Generating-Clusters/GAP-ML-2020/Higher-Symm/SD-CG/HFTN-CG
REM
REM
REM
REM
REM
REM ./C.cell (b20cbc046b6831c77cfcea5457e17084)
REM AIRSS Version 0.9.1 bugfix July 2018 build 013d7b7c2542+ Fri, 06 Jul 2018 19:26:36 +0100
REM compiler GCC version 9.3.0
REM options -cpp -mtune=generic -march=x86-64 -g -O0
REM seed 132580140 -639121098 -735700082 1371448111 -1633316264 -1404197974 996000520 -1496305137 -1992096711 -446774117 973427353 -573263443 1473385888 -1299218277 108520781 141048735 1253022371 -2071699534 1853547312 426253771 -1051119934 -1449416928 71155819 -2043766011 94418300 739404297 -1297479500 766162547 151262859 -1001033098 -345126329 494657988 109553804
REM
CELL 1.54180   50.00000   50.00000   50.00000   90.00000   90.00000   90.00000
LATT -1
SFAC C  
C      1  0.5443590000000  0.4850350000000  0.4467890000000 1.0
C      1  0.5001250000000  0.4546080000000  0.4422680000000 1.0
C      1  0.4570280000000  0.4864580000000  0.4422420000000 1.0
C      1  0.4753960000000  0.5383090000000  0.4469240000000 1.0
C      1  0.5293050000000  0.5361980000000  0.4492120000000 1.0
C      1  0.4393860000000  0.4799040000000  0.4903600000000 1.0
C      1  0.4640750000000  0.5552630000000  0.4948450000000 1.0
C      1  0.5365390000000  0.5478130000000  0.5001050000000 1.0
C      1  0.5579670000000  0.4789590000000  0.4971010000000 1.0
C      1  0.4982330000000  0.4363750000000  0.4913370000000 1.0
C      1  0.4535190000000  0.4737290000000  0.5364160000000 1.0
C      1  0.4486000000000  0.5391230000000  0.5374310000000 1.0
C      1  0.5210380000000  0.5530610000000  0.5444270000000 1.0
C      1  0.5553680000000  0.4910290000000  0.5427680000000 1.0
C      1  0.5115480000000  0.4365610000000  0.5363330000000 1.0
C      1  0.5468050000000  0.4643340000000  0.5403070000000 1.0
C      1  0.4836130000000  0.4403140000000  0.5359820000000 1.0
C      1  0.4397610000000  0.4987300000000  0.5352560000000 1.0
C      1  0.4769360000000  0.5460450000000  0.5399630000000 1.0
C      1  0.5427360000000  0.5348810000000  0.5453290000000 1.0
C      1  0.5573020000000  0.4801000000000  0.4701270000000 1.0
C      1  0.4988780000000  0.4391810000000  0.4645400000000 1.0
C      1  0.4418630000000  0.4796720000000  0.4637630000000 1.0
C      1  0.4668670000000  0.5517300000000  0.4685360000000 1.0
C      1  0.5371000000000  0.5460690000000  0.4731760000000 1.0
C      1  0.4520210000000  0.4614810000000  0.5103950000000 1.0
C      1  0.4444970000000  0.5378800000000  0.5087770000000 1.0
C      1  0.5151000000000  0.5595250000000  0.5159480000000 1.0
C      1  0.5604190000000  0.5015590000000  0.5170110000000 1.0
C      1  0.5221480000000  0.4382420000000  0.5101410000000 1.0
C      1  0.4880620000000  0.4831270000000  0.4065650000000 1.0
C      1  0.4797720000000  0.5106580000000  0.4083070000000 1.0
C      1  0.5035500000000  0.5268300000000  0.4104990000000 1.0
C      1  0.5262980000000  0.5093480000000  0.4104710000000 1.0
C      1  0.5168000000000  0.4825180000000  0.4082330000000 1.0
C      1  0.5403150000000  0.5093010000000  0.5590210000000 1.0
C      1  0.5232740000000  0.4555060000000  0.5541120000000 1.0
C      1  0.4768460000000  0.4641340000000  0.5506670000000 1.0
C      1  0.4350250000000  0.5196760000000  0.5515670000000 1.0
C      1  0.4980870000000  0.5516590000000  0.5587110000000 1.0
C      1  0.5090040000000  0.5077830000000  0.5290670000000 1.0
C      1  0.5104460000000  0.4910660000000  0.5059250000000 1.0
C      1  0.4947330000000  0.4983070000000  0.4868490000000 1.0
C      1  0.4724970000000  0.5092010000000  0.5035560000000 1.0
C      1  0.4857820000000  0.5217860000000  0.5245320000000 1.0
C      1  0.5456580000000  0.4566520000000  0.5129930000000 1.0
C      1  0.4737020000000  0.4413960000000  0.5092550000000 1.0
C      1  0.4426210000000  0.5068480000000  0.5053050000000 1.0
C      1  0.4857410000000  0.5594200000000  0.5143050000000 1.0
C      1  0.5517460000000  0.5300420000000  0.5187970000000 1.0
C      1  0.5400070000000  0.5121960000000  0.4353440000000 1.0
C      1  0.5243710000000  0.4683930000000  0.4318800000000 1.0
C      1  0.4776680000000  0.4692010000000  0.4292500000000 1.0
C      1  0.4642640000000  0.5140590000000  0.4320170000000 1.0
C      1  0.5031160000000  0.5405390000000  0.4353510000000 1.0
C      1  0.5130950000000  0.5007260000000  0.5577550000000 1.0
C      1  0.5027450000000  0.4746190000000  0.5614370000000 1.0
END
