TITL C-29569-9712-6 0.201244278731784 125000 -537.409755863388 0 0 79 (C1) n - 1
REM
REM in /rds/project/t2_vol4/rds-t2-cs072/BORA/CARBON/from-Arr/AIRSS/Generating-Clusters/GAP-ML-2020/Higher-Symm/SD-CG/HFTN-CG
REM
REM
REM
REM
REM
REM ./C.cell (b20cbc046b6831c77cfcea5457e17084)
REM AIRSS Version 0.9.1 bugfix July 2018 build 013d7b7c2542+ Fri, 06 Jul 2018 19:26:36 +0100
REM compiler GCC version 9.3.0
REM options -cpp -mtune=generic -march=x86-64 -g -O0
REM seed -1533307646 1423502145 -15739241 -1897979095 85975789 1893412369 -193376396 -1939450869 1428481916 1569882865 1765901299 -1274165260 -1903125760 2023193861 -561418604 1962789235 1588137008 1702592600 -1084931564 -979052036 6249912 -862887955 1838392737 -2009862798 2008724889 -970003185 1469092383 1380755650 -760623970 -2103700843 -999963697 346255922 -1156354358
REM
CELL 1.54180   50.00000   50.00000   50.00000   90.00000   90.00000   90.00000
LATT -1
SFAC C  
C      1  0.5329460000000  0.5017560000000  0.4877090000000 1.0
C      1  0.5011940000000  0.5295130000000  0.4859530000000 1.0
C      1  0.4616040000000  0.5043860000000  0.4844310000000 1.0
C      1  0.5005610000000  0.4737830000000  0.4857000000000 1.0
C      1  0.5374900000000  0.5002130000000  0.5164120000000 1.0
C      1  0.5036390000000  0.5403300000000  0.5145110000000 1.0
C      1  0.4757110000000  0.5026650000000  0.5122340000000 1.0
C      1  0.4989800000000  0.4619450000000  0.5143070000000 1.0
C      1  0.5052420000000  0.5664000000000  0.4491810000000 1.0
C      1  0.4265150000000  0.4876670000000  0.4610370000000 1.0
C      1  0.4882740000000  0.4351630000000  0.4489870000000 1.0
C      1  0.5732090000000  0.4913680000000  0.4547990000000 1.0
C      1  0.4856510000000  0.5739700000000  0.5407080000000 1.0
C      1  0.4365780000000  0.5058480000000  0.5496950000000 1.0
C      1  0.4931360000000  0.4282690000000  0.5463210000000 1.0
C      1  0.5708280000000  0.5040040000000  0.5508790000000 1.0
C      1  0.4572960000000  0.4541020000000  0.4815870000000 1.0
C      1  0.5534820000000  0.4638760000000  0.4873870000000 1.0
C      1  0.5373670000000  0.5552880000000  0.4825030000000 1.0
C      1  0.4575150000000  0.5507050000000  0.4894510000000 1.0
C      1  0.4514840000000  0.4603020000000  0.5110140000000 1.0
C      1  0.5449510000000  0.4510150000000  0.5108130000000 1.0
C      1  0.5501290000000  0.5490870000000  0.5068430000000 1.0
C      1  0.4521760000000  0.5433900000000  0.5181090000000 1.0
C      1  0.4916600000000  0.4330940000000  0.5193610000000 1.0
C      1  0.5678100000000  0.4970230000000  0.5251770000000 1.0
C      1  0.5047400000000  0.5706400000000  0.5199700000000 1.0
C      1  0.4315120000000  0.5203010000000  0.5276980000000 1.0
C      1  0.4759450000000  0.4307510000000  0.4729090000000 1.0
C      1  0.5757970000000  0.4820700000000  0.4804920000000 1.0
C      1  0.5156560000000  0.5734290000000  0.4734780000000 1.0
C      1  0.4310300000000  0.5074280000000  0.4811740000000 1.0
C      1  0.4270340000000  0.4736540000000  0.5047810000000 1.0
C      1  0.5358310000000  0.4256150000000  0.5061890000000 1.0
C      1  0.5768940000000  0.5428890000000  0.5046350000000 1.0
C      1  0.4621880000000  0.5713190000000  0.5246890000000 1.0
C      1  0.4298790000000  0.4651840000000  0.4772750000000 1.0
C      1  0.5183620000000  0.4095700000000  0.4961010000000 1.0
C      1  0.5959790000000  0.5258920000000  0.5003630000000 1.0
C      1  0.4696720000000  0.5754530000000  0.4970850000000 1.0
C      1  0.4724990000000  0.5309210000000  0.4745500000000 1.0
C      1  0.4732270000000  0.4782360000000  0.4718680000000 1.0
C      1  0.5293620000000  0.4738370000000  0.4735290000000 1.0
C      1  0.5298390000000  0.5285370000000  0.4726060000000 1.0
C      1  0.4774950000000  0.5287460000000  0.5263390000000 1.0
C      1  0.4731190000000  0.4743750000000  0.5238420000000 1.0
C      1  0.5261470000000  0.4711770000000  0.5265040000000 1.0
C      1  0.5312480000000  0.5307090000000  0.5242740000000 1.0
C      1  0.5354830000000  0.5341360000000  0.5536690000000 1.0
C      1  0.4740230000000  0.5341250000000  0.5570460000000 1.0
C      1  0.4648660000000  0.4679710000000  0.5516080000000 1.0
C      1  0.5240780000000  0.4680820000000  0.5565350000000 1.0
C      1  0.5369040000000  0.5243160000000  0.4438290000000 1.0
C      1  0.4694360000000  0.5364320000000  0.4446440000000 1.0
C      1  0.4679280000000  0.4794790000000  0.4418520000000 1.0
C      1  0.5297640000000  0.4635600000000  0.4437850000000 1.0
C      1  0.5039380000000  0.4524640000000  0.4353010000000 1.0
C      1  0.5561460000000  0.5026020000000  0.4376670000000 1.0
C      1  0.4951840000000  0.5458350000000  0.4337010000000 1.0
C      1  0.4435860000000  0.4947670000000  0.4389960000000 1.0
C      1  0.5070450000000  0.4464290000000  0.5634200000000 1.0
C      1  0.5482790000000  0.5098890000000  0.5646940000000 1.0
C      1  0.4907560000000  0.5561010000000  0.5621630000000 1.0
C      1  0.4558200000000  0.4920300000000  0.5644300000000 1.0
C      1  0.5264320000000  0.4930640000000  0.5717270000000 1.0
C      1  0.5124930000000  0.5391580000000  0.5691140000000 1.0
C      1  0.4761350000000  0.5108240000000  0.5726900000000 1.0
C      1  0.4789560000000  0.4464760000000  0.5624930000000 1.0
C      1  0.5373150000000  0.4840060000000  0.4254560000000 1.0
C      1  0.5144770000000  0.5246470000000  0.4262580000000 1.0
C      1  0.4490030000000  0.5215900000000  0.4350330000000 1.0
C      1  0.4910920000000  0.4769430000000  0.4255690000000 1.0
C      1  0.4975840000000  0.5818790000000  0.4945090000000 1.0
C      1  0.5843630000000  0.4996140000000  0.5020910000000 1.0
C      1  0.4214730000000  0.5020110000000  0.5076740000000 1.0
C      1  0.4913670000000  0.4185300000000  0.4947080000000 1.0
C      1  0.5045350000000  0.5119730000000  0.5775680000000 1.0
C      1  0.5120090000000  0.4964890000000  0.4184740000000 1.0
C      1  0.5021160000000  0.5015370000000  0.4967070000000 1.0
END
