TITL C-29550-8486-7 -2.8795067251809 125000 -547.881590427632 0 0 81 (C1) n - 1
REM
REM in /rds/project/t2_vol4/rds-t2-cs072/BORA/CARBON/from-Arr/AIRSS/Generating-Clusters/GAP-ML-2020/Higher-Symm/SD-CG/HFTN-CG
REM
REM
REM
REM
REM
REM ./C.cell (b20cbc046b6831c77cfcea5457e17084)
REM AIRSS Version 0.9.1 bugfix July 2018 build 013d7b7c2542+ Fri, 06 Jul 2018 19:26:36 +0100
REM compiler GCC version 9.3.0
REM options -cpp -mtune=generic -march=x86-64 -g -O0
REM seed -1168295457 -310947132 1420750313 1040455031 -1431385840 -280790928 -535543348 -398157759 -1196368882 -1684160989 -619658091 -948588462 -30562120 -491206163 2058622932 572582866 -1237939947 -988179160 -617276305 1587425955 -1378360515 155519572 -2141108240 -266500236 2104443765 -614321640 199109742 -73244670 1066975395 -858257913 -730408630 -1927496350 1907162362
REM
CELL 1.54180   50.00000   50.00000   50.00000   90.00000   90.00000   90.00000
LATT -1
SFAC C  
C      1  0.5511580000000  0.5033880000000  0.5326330000000 1.0
C      1  0.5302250000000  0.4960150000000  0.4529570000000 1.0
C      1  0.4508610000000  0.4984230000000  0.4622260000000 1.0
C      1  0.4692550000000  0.4997150000000  0.5515930000000 1.0
C      1  0.5500260000000  0.4989150000000  0.4734700000000 1.0
C      1  0.5284300000000  0.5000070000000  0.5510840000000 1.0
C      1  0.4476070000000  0.5010930000000  0.5316450000000 1.0
C      1  0.4727670000000  0.4961110000000  0.4423650000000 1.0
C      1  0.5547820000000  0.5277610000000  0.5179680000000 1.0
C      1  0.5153180000000  0.5210330000000  0.4486690000000 1.0
C      1  0.4449140000000  0.5258200000000  0.4668350000000 1.0
C      1  0.4820020000000  0.5241300000000  0.5578340000000 1.0
C      1  0.5585870000000  0.4763530000000  0.4872330000000 1.0
C      1  0.5164690000000  0.4744800000000  0.5565220000000 1.0
C      1  0.4443430000000  0.4780610000000  0.5152230000000 1.0
C      1  0.4846660000000  0.4709310000000  0.4419340000000 1.0
C      1  0.5114430000000  0.4294600000000  0.5390790000000 1.0
C      1  0.5574580000000  0.4274010000000  0.4972810000000 1.0
C      1  0.5116820000000  0.4180400000000  0.4611840000000 1.0
C      1  0.4535490000000  0.4318540000000  0.5046370000000 1.0
C      1  0.5051930000000  0.5663160000000  0.4499200000000 1.0
C      1  0.5391990000000  0.5739690000000  0.5115200000000 1.0
C      1  0.4912970000000  0.5688050000000  0.5474380000000 1.0
C      1  0.4595910000000  0.5840980000000  0.5054160000000 1.0
C      1  0.4957340000000  0.5574160000000  0.4769500000000 1.0
C      1  0.4718150000000  0.5586700000000  0.4952270000000 1.0
C      1  0.4916560000000  0.5536890000000  0.5183860000000 1.0
C      1  0.5146000000000  0.5591720000000  0.5002200000000 1.0
C      1  0.5006510000000  0.4426210000000  0.5142580000000 1.0
C      1  0.4823050000000  0.4249130000000  0.4985110000000 1.0
C      1  0.4885510000000  0.4344170000000  0.4691160000000 1.0
C      1  0.5211550000000  0.4530530000000  0.4939700000000 1.0
C      1  0.5484670000000  0.4498480000000  0.4792480000000 1.0
C      1  0.4694560000000  0.4482440000000  0.4523110000000 1.0
C      1  0.4507330000000  0.4521590000000  0.5257010000000 1.0
C      1  0.5297500000000  0.4506570000000  0.5492510000000 1.0
C      1  0.5477200000000  0.5521700000000  0.5306130000000 1.0
C      1  0.4699020000000  0.5494520000000  0.5548090000000 1.0
C      1  0.4493180000000  0.5417930000000  0.4450500000000 1.0
C      1  0.5288130000000  0.5475600000000  0.4488310000000 1.0
C      1  0.5195170000000  0.4057270000000  0.5233690000000 1.0
C      1  0.5386840000000  0.4066140000000  0.5016650000000 1.0
C      1  0.5183430000000  0.4009350000000  0.4822660000000 1.0
C      1  0.4986080000000  0.4008310000000  0.5032540000000 1.0
C      1  0.5045160000000  0.6047580000000  0.4985810000000 1.0
C      1  0.5216580000000  0.5966550000000  0.5198650000000 1.0
C      1  0.4965010000000  0.5946290000000  0.5358340000000 1.0
C      1  0.4807040000000  0.6016930000000  0.5122300000000 1.0
C      1  0.4519390000000  0.4786950000000  0.4846410000000 1.0
C      1  0.4859250000000  0.4756010000000  0.5488330000000 1.0
C      1  0.5530370000000  0.4789710000000  0.5175640000000 1.0
C      1  0.5159960000000  0.4706130000000  0.4501830000000 1.0
C      1  0.4434960000000  0.5274130000000  0.5210170000000 1.0
C      1  0.4883880000000  0.5197120000000  0.4368770000000 1.0
C      1  0.5498190000000  0.5254120000000  0.4873700000000 1.0
C      1  0.5109460000000  0.5224140000000  0.5482080000000 1.0
C      1  0.5225830000000  0.4777690000000  0.5097930000000 1.0
C      1  0.5001660000000  0.4632620000000  0.4750790000000 1.0
C      1  0.4828160000000  0.4818130000000  0.4932530000000 1.0
C      1  0.4943940000000  0.4718840000000  0.5188530000000 1.0
C      1  0.5210830000000  0.5306380000000  0.4968020000000 1.0
C      1  0.5004020000000  0.5252760000000  0.5179350000000 1.0
C      1  0.4565120000000  0.5320540000000  0.4944790000000 1.0
C      1  0.5002600000000  0.5279960000000  0.4749420000000 1.0
C      1  0.4853170000000  0.4291350000000  0.5503610000000 1.0
C      1  0.5686980000000  0.4345380000000  0.5215900000000 1.0
C      1  0.5305560000000  0.4224820000000  0.4403250000000 1.0
C      1  0.4357210000000  0.4326910000000  0.4836110000000 1.0
C      1  0.4867650000000  0.5699900000000  0.4311240000000 1.0
C      1  0.5508500000000  0.5724060000000  0.4850000000000 1.0
C      1  0.5151520000000  0.5660600000000  0.5626360000000 1.0
C      1  0.4433220000000  0.5749950000000  0.5252780000000 1.0
C      1  0.4744440000000  0.5451630000000  0.4345260000000 1.0
C      1  0.4467890000000  0.5506800000000  0.5377080000000 1.0
C      1  0.5287570000000  0.5468260000000  0.5509940000000 1.0
C      1  0.5487530000000  0.5503870000000  0.4693340000000 1.0
C      1  0.4690520000000  0.4504170000000  0.5480040000000 1.0
C      1  0.4476030000000  0.4529360000000  0.4706250000000 1.0
C      1  0.5354420000000  0.4467540000000  0.4518030000000 1.0
C      1  0.5533060000000  0.4537330000000  0.5327850000000 1.0
C      1  0.4840270000000  0.5132630000000  0.4958340000000 1.0
END
