TITL C-29544-8504-4 -169.222357417337 125000 -152.357379500571 0 0 24 (C1) n - 1
REM
REM in /rds/project/t2_vol4/rds-t2-cs072/BORA/CARBON/from-Arr/AIRSS/Generating-Clusters/GAP-ML-2020/Higher-Symm/SD-CG/HFTN-CG
REM
REM
REM
REM
REM
REM ./C.cell (b20cbc046b6831c77cfcea5457e17084)
REM AIRSS Version 0.9.1 bugfix July 2018 build 013d7b7c2542+ Fri, 06 Jul 2018 19:26:36 +0100
REM compiler GCC version 9.3.0
REM options -cpp -mtune=generic -march=x86-64 -g -O0
REM seed 652120291 1175373249 -923216519 991870640 -991993499 -939342606 -43428839 -52597916 1358345393 -148271902 -1281938828 -346414599 -1153387739 -1056189580 -936762632 -1616564669 -1642810299 -484481757 2130994532 -1199416056 78161489 -323417336 1371287201 191080906 165185256 943762112 418317595 418892968 -262588618 496321570 1522998113 1019316938 827559354
REM
CELL 1.54180   50.00000   50.00000   50.00000   90.00000   90.00000   90.00000
LATT -1
SFAC C  
C      1  0.4728030000000  0.5079560000000  0.4609190000000 1.0
C      1  0.4834550000000  0.5268880000000  0.5247420000000 1.0
C      1  0.4726250000000  0.4624790000000  0.5116380000000 1.0
C      1  0.5746950000000  0.5181580000000  0.4657720000000 1.0
C      1  0.5425090000000  0.5446710000000  0.5293840000000 1.0
C      1  0.5607000000000  0.4482630000000  0.5172800000000 1.0
C      1  0.5535780000000  0.5311610000000  0.4599160000000 1.0
C      1  0.5457040000000  0.5238570000000  0.5446920000000 1.0
C      1  0.5447370000000  0.4528000000000  0.4976100000000 1.0
C      1  0.4990390000000  0.4521820000000  0.4747600000000 1.0
C      1  0.5043780000000  0.5415400000000  0.4663450000000 1.0
C      1  0.5079520000000  0.4917290000000  0.5489810000000 1.0
C      1  0.4387920000000  0.4969780000000  0.4875420000000 1.0
C      1  0.4430930000000  0.5197630000000  0.5038570000000 1.0
C      1  0.4408830000000  0.4944700000000  0.5155110000000 1.0
C      1  0.4608610000000  0.4860960000000  0.4715660000000 1.0
C      1  0.4695110000000  0.5325010000000  0.5020540000000 1.0
C      1  0.4648400000000  0.4831660000000  0.5271230000000 1.0
C      1  0.4747280000000  0.4631720000000  0.4834690000000 1.0
C      1  0.4806420000000  0.5308090000000  0.4750440000000 1.0
C      1  0.4839290000000  0.5022570000000  0.5385220000000 1.0
C      1  0.5279260000000  0.5365740000000  0.4607980000000 1.0
C      1  0.5305870000000  0.5023130000000  0.5478210000000 1.0
C      1  0.5220340000000  0.4502170000000  0.4846550000000 1.0
END
