TITL C-29619-2337-2 -0.172804726036241 125000 -699.052216915517 0 0 101 (C2) n - 1
REM
REM in /rds/project/t2_vol4/rds-t2-cs072/BORA/CARBON/from-Arr/AIRSS/Generating-Clusters/GAP-ML-2020/Higher-Symm/SD-CG/HFTN-CG
REM
REM
REM
REM
REM
REM ./C.cell (b20cbc046b6831c77cfcea5457e17084)
REM AIRSS Version 0.9.1 bugfix July 2018 build 013d7b7c2542+ Fri, 06 Jul 2018 19:26:36 +0100
REM compiler GCC version 9.3.0
REM options -cpp -mtune=generic -march=x86-64 -g -O0
REM seed 114594556 1778962978 -2016794985 1509242289 1761998945 -1616162197 -1620176020 1433640930 -568231958 145054692 2002843403 -1168461593 1681352609 -257679804 190160852 -1865324900 727753003 1525647645 1065215870 1301297224 -1090247933 941169453 518592567 -1947635880 739257614 -1740798462 -727972356 -1084964863 -102230326 961831563 1445062554 625655218 -772966476
REM
CELL 1.54180   50.00000   50.00000   50.00000   90.00000   90.00000   90.00000
LATT -1
SFAC C  
C      1  0.4495110000000  0.5679280000000  0.4759170000000 1.0
C      1  0.5499970000000  0.5682240000000  0.5233990000000 1.0
C      1  0.4989190000000  0.4426230000000  0.4612640000000 1.0
C      1  0.5004130000000  0.4432300000000  0.5399850000000 1.0
C      1  0.5643690000000  0.5483300000000  0.5357790000000 1.0
C      1  0.4351120000000  0.5478650000000  0.4638460000000 1.0
C      1  0.4296810000000  0.4495590000000  0.4509150000000 1.0
C      1  0.5696610000000  0.4502280000000  0.5502260000000 1.0
C      1  0.5471450000000  0.4996420000000  0.4369470000000 1.0
C      1  0.4522680000000  0.5006850000000  0.5634180000000 1.0
C      1  0.4563440000000  0.5167050000000  0.4137320000000 1.0
C      1  0.5430930000000  0.5179770000000  0.5863670000000 1.0
C      1  0.4273120000000  0.5280680000000  0.5241270000000 1.0
C      1  0.5721400000000  0.5275930000000  0.4758110000000 1.0
C      1  0.5435450000000  0.5298310000000  0.4354730000000 1.0
C      1  0.4559110000000  0.5308880000000  0.5644250000000 1.0
C      1  0.4393620000000  0.5213350000000  0.4781990000000 1.0
C      1  0.5600810000000  0.5215870000000  0.5218360000000 1.0
C      1  0.5836770000000  0.5014790000000  0.4770400000000 1.0
C      1  0.4157380000000  0.5019550000000  0.5233000000000 1.0
C      1  0.4982130000000  0.4732600000000  0.5488340000000 1.0
C      1  0.5011610000000  0.4725100000000  0.4519520000000 1.0
C      1  0.4609860000000  0.5561030000000  0.5019250000000 1.0
C      1  0.5385050000000  0.5560150000000  0.4975760000000 1.0
C      1  0.4650680000000  0.5425230000000  0.4250300000000 1.0
C      1  0.5344050000000  0.5436290000000  0.5746720000000 1.0
C      1  0.5174820000000  0.5079070000000  0.5797630000000 1.0
C      1  0.4819410000000  0.5067020000000  0.4204920000000 1.0
C      1  0.5158480000000  0.4290130000000  0.4801510000000 1.0
C      1  0.4834650000000  0.4293530000000  0.5213100000000 1.0
C      1  0.5310740000000  0.5820060000000  0.5384920000000 1.0
C      1  0.4684540000000  0.5814490000000  0.4606130000000 1.0
C      1  0.5591920000000  0.5428160000000  0.4553470000000 1.0
C      1  0.4402820000000  0.5435870000000  0.5443530000000 1.0
C      1  0.5184020000000  0.5448630000000  0.4341870000000 1.0
C      1  0.4810740000000  0.5459030000000  0.5654790000000 1.0
C      1  0.5274330000000  0.4877410000000  0.4563400000000 1.0
C      1  0.4719630000000  0.4884580000000  0.5442110000000 1.0
C      1  0.5301700000000  0.4998530000000  0.4835160000000 1.0
C      1  0.4692430000000  0.5001530000000  0.5168510000000 1.0
C      1  0.5027610000000  0.5103760000000  0.4854690000000 1.0
C      1  0.4966660000000  0.5106060000000  0.5147360000000 1.0
C      1  0.5608210000000  0.5451190000000  0.5630330000000 1.0
C      1  0.4386540000000  0.5442290000000  0.4366440000000 1.0
C      1  0.5435730000000  0.4314460000000  0.4880120000000 1.0
C      1  0.4557430000000  0.4317040000000  0.5134120000000 1.0
C      1  0.5778490000000  0.4978410000000  0.5552770000000 1.0
C      1  0.4215600000000  0.4971000000000  0.4451290000000 1.0
C      1  0.5498580000000  0.4777880000000  0.4151960000000 1.0
C      1  0.4495250000000  0.4791740000000  0.5855040000000 1.0
C      1  0.4915010000000  0.5322800000000  0.4359900000000 1.0
C      1  0.5079570000000  0.5332560000000  0.5638710000000 1.0
C      1  0.5106640000000  0.5556280000000  0.5101980000000 1.0
C      1  0.4888270000000  0.5554820000000  0.4893110000000 1.0
C      1  0.5468680000000  0.4299480000000  0.5163400000000 1.0
C      1  0.4524460000000  0.4297730000000  0.4851100000000 1.0
C      1  0.5054430000000  0.5759830000000  0.5327090000000 1.0
C      1  0.4940760000000  0.5754800000000  0.4664890000000 1.0
C      1  0.4594180000000  0.4658870000000  0.4262850000000 1.0
C      1  0.5399470000000  0.4669750000000  0.5746010000000 1.0
C      1  0.4578590000000  0.5632140000000  0.5307300000000 1.0
C      1  0.5416420000000  0.5626760000000  0.4686650000000 1.0
C      1  0.4844000000000  0.4793850000000  0.4272120000000 1.0
C      1  0.5149840000000  0.4804930000000  0.5734650000000 1.0
C      1  0.4878660000000  0.5307610000000  0.4690860000000 1.0
C      1  0.5115900000000  0.5312210000000  0.5308020000000 1.0
C      1  0.4686610000000  0.4799160000000  0.4961220000000 1.0
C      1  0.5307240000000  0.4799370000000  0.5045550000000 1.0
C      1  0.5432190000000  0.4432680000000  0.5594860000000 1.0
C      1  0.4561130000000  0.4424200000000  0.4417640000000 1.0
C      1  0.5805620000000  0.5012420000000  0.5260260000000 1.0
C      1  0.4188520000000  0.5009570000000  0.4743240000000 1.0
C      1  0.5176590000000  0.4898600000000  0.5265740000000 1.0
C      1  0.4817390000000  0.4894780000000  0.4739530000000 1.0
C      1  0.4490490000000  0.5274330000000  0.5048800000000 1.0
C      1  0.5504020000000  0.5272860000000  0.4950650000000 1.0
C      1  0.4283490000000  0.4438800000000  0.4780780000000 1.0
C      1  0.5709850000000  0.4441270000000  0.5231540000000 1.0
C      1  0.4407050000000  0.4575190000000  0.5750500000000 1.0
C      1  0.5586470000000  0.4562850000000  0.4259830000000 1.0
C      1  0.5679120000000  0.5186570000000  0.5720830000000 1.0
C      1  0.4315260000000  0.5176400000000  0.4280040000000 1.0
C      1  0.4269450000000  0.4901490000000  0.5456930000000 1.0
C      1  0.5724540000000  0.4893450000000  0.4548330000000 1.0
C      1  0.4327160000000  0.4472440000000  0.5236530000000 1.0
C      1  0.5666220000000  0.4467940000000  0.4775320000000 1.0
C      1  0.5808590000000  0.4581610000000  0.5000620000000 1.0
C      1  0.4184950000000  0.4582820000000  0.5009500000000 1.0
C      1  0.5346370000000  0.5130920000000  0.5354190000000 1.0
C      1  0.4647930000000  0.5125960000000  0.4647500000000 1.0
C      1  0.5866640000000  0.4867020000000  0.5022020000000 1.0
C      1  0.4127300000000  0.4867950000000  0.4983700000000 1.0
C      1  0.4809370000000  0.5674670000000  0.5459580000000 1.0
C      1  0.5185700000000  0.5667250000000  0.4533730000000 1.0
C      1  0.4314460000000  0.4732390000000  0.4345200000000 1.0
C      1  0.5679300000000  0.4741600000000  0.5662530000000 1.0
C      1  0.5277440000000  0.4338330000000  0.5385070000000 1.0
C      1  0.4715750000000  0.4332880000000  0.4628870000000 1.0
C      1  0.5690640000000  0.4604860000000  0.4529330000000 1.0
C      1  0.4302940000000  0.4613180000000  0.5480380000000 1.0
C      1  0.4996510000000  0.4212550000000  0.5007920000000 1.0
END
