TITL C-29568-9544-5 -0.347127211067989 125000 -1021.72560541037 0 0 144 (D3) n - 1
REM
REM in /rds/project/t2_vol4/rds-t2-cs072/BORA/CARBON/from-Arr/AIRSS/Generating-Clusters/GAP-ML-2020/Higher-Symm/SD-CG/HFTN-CG
REM
REM
REM
REM
REM
REM ./C.cell (b20cbc046b6831c77cfcea5457e17084)
REM AIRSS Version 0.9.1 bugfix July 2018 build 013d7b7c2542+ Fri, 06 Jul 2018 19:26:36 +0100
REM compiler GCC version 9.3.0
REM options -cpp -mtune=generic -march=x86-64 -g -O0
REM seed 1510320398 -1167325978 992738301 -911299905 -83361836 1680781079 2136265003 2034403056 -1168805066 1898419439 -1979001018 694412682 1460958364 55990840 -1616875992 1671298158 -1495118468 -1659997083 529966251 -1384671042 864664485 1477293671 1787711019 -785414001 1158415291 -451633988 1112805397 1143909319 2035184899 -16424419 124190669 506265307 -659126721
REM
CELL 1.54180   50.00000   50.00000   50.00000   90.00000   90.00000   90.00000
LATT -1
SFAC C  
C      1  0.4461180000000  0.5065130000000  0.4851660000000 1.0
C      1  0.4461170000000  0.4838990000000  0.5017770000000 1.0
C      1  0.4461170000000  0.5095910000000  0.5130550000000 1.0
C      1  0.5538830000000  0.5065100000000  0.5148340000000 1.0
C      1  0.5538820000000  0.4838970000000  0.4982220000000 1.0
C      1  0.5538830000000  0.5095900000000  0.4869450000000 1.0
C      1  0.4277820000000  0.5629800000000  0.5058710000000 1.0
C      1  0.4277810000000  0.4735970000000  0.4425220000000 1.0
C      1  0.4277800000000  0.4634270000000  0.5516050000000 1.0
C      1  0.5722200000000  0.5629780000000  0.4941310000000 1.0
C      1  0.5722180000000  0.4735920000000  0.5574770000000 1.0
C      1  0.5722190000000  0.4634260000000  0.4483940000000 1.0
C      1  0.4640850000000  0.5588310000000  0.4411970000000 1.0
C      1  0.4640820000000  0.4196610000000  0.4784530000000 1.0
C      1  0.4640830000000  0.5215100000000  0.5803490000000 1.0
C      1  0.5359170000000  0.5588270000000  0.5588050000000 1.0
C      1  0.5359150000000  0.4196590000000  0.5215450000000 1.0
C      1  0.5359180000000  0.5215110000000  0.4196520000000 1.0
C      1  0.5052090000000  0.4816340000000  0.4092110000000 1.0
C      1  0.5052060000000  0.4305580000000  0.5613000000000 1.0
C      1  0.5052100000000  0.5878080000000  0.5294890000000 1.0
C      1  0.4947900000000  0.4816310000000  0.5907880000000 1.0
C      1  0.4947910000000  0.4305600000000  0.4386980000000 1.0
C      1  0.4947940000000  0.5878100000000  0.4705140000000 1.0
C      1  0.4274900000000  0.4432470000000  0.5305610000000 1.0
C      1  0.4274920000000  0.5548450000000  0.5338690000000 1.0
C      1  0.4274920000000  0.5019110000000  0.4355680000000 1.0
C      1  0.5725080000000  0.4432460000000  0.4694370000000 1.0
C      1  0.5725100000000  0.5548440000000  0.4661330000000 1.0
C      1  0.5725080000000  0.5019060000000  0.5644320000000 1.0
C      1  0.5878950000000  0.4486430000000  0.4937500000000 1.0
C      1  0.5878960000000  0.5202630000000  0.5476010000000 1.0
C      1  0.5878970000000  0.5310890000000  0.4586510000000 1.0
C      1  0.4121030000000  0.4486460000000  0.5062480000000 1.0
C      1  0.4121040000000  0.5202680000000  0.4523990000000 1.0
C      1  0.4121040000000  0.5310910000000  0.5413500000000 1.0
C      1  0.5556690000000  0.4354800000000  0.5340920000000 1.0
C      1  0.5556710000000  0.5617830000000  0.5388300000000 1.0
C      1  0.5556710000000  0.5027340000000  0.4270790000000 1.0
C      1  0.4443280000000  0.4354830000000  0.4659060000000 1.0
C      1  0.4443310000000  0.5617860000000  0.4611720000000 1.0
C      1  0.4443290000000  0.5027340000000  0.5729210000000 1.0
C      1  0.5119280000000  0.5356960000000  0.4587030000000 1.0
C      1  0.5119260000000  0.4463870000000  0.4897340000000 1.0
C      1  0.5119270000000  0.5179160000000  0.5515630000000 1.0
C      1  0.4880730000000  0.5356950000000  0.5412980000000 1.0
C      1  0.4880720000000  0.4463880000000  0.5102640000000 1.0
C      1  0.4880740000000  0.5179180000000  0.4484380000000 1.0
C      1  0.4938010000000  0.5363590000000  0.4111970000000 1.0
C      1  0.4937980000000  0.4049150000000  0.5129140000000 1.0
C      1  0.4938000000000  0.5587260000000  0.5758890000000 1.0
C      1  0.5062000000000  0.5363550000000  0.5888040000000 1.0
C      1  0.5061990000000  0.4049150000000  0.4870830000000 1.0
C      1  0.5062020000000  0.5587290000000  0.4241130000000 1.0
C      1  0.3946060000000  0.5096640000000  0.4729040000000 1.0
C      1  0.3946050000000  0.4717060000000  0.5051790000000 1.0
C      1  0.3946060000000  0.5186360000000  0.5219140000000 1.0
C      1  0.6053940000000  0.5096590000000  0.5270960000000 1.0
C      1  0.6053940000000  0.4717020000000  0.4948200000000 1.0
C      1  0.6053950000000  0.5186330000000  0.4780860000000 1.0
C      1  0.4779790000000  0.5973530000000  0.5209510000000 1.0
C      1  0.4779780000000  0.4694690000000  0.4052140000000 1.0
C      1  0.4779760000000  0.4331800000000  0.5738340000000 1.0
C      1  0.5220250000000  0.5973530000000  0.4790520000000 1.0
C      1  0.5220210000000  0.4694650000000  0.5947850000000 1.0
C      1  0.5220220000000  0.4331810000000  0.4261640000000 1.0
C      1  0.3936540000000  0.4899390000000  0.5265960000000 1.0
C      1  0.3936550000000  0.5280670000000  0.4954150000000 1.0
C      1  0.3936540000000  0.4820000000000  0.4779850000000 1.0
C      1  0.6063460000000  0.4899360000000  0.4734040000000 1.0
C      1  0.6063460000000  0.5280630000000  0.5045860000000 1.0
C      1  0.6063450000000  0.4819950000000  0.5220140000000 1.0
C      1  0.4199470000000  0.5469560000000  0.4623070000000 1.0
C      1  0.4199450000000  0.4438820000000  0.4781820000000 1.0
C      1  0.4199450000000  0.5091670000000  0.5595090000000 1.0
C      1  0.5800550000000  0.5469520000000  0.5376950000000 1.0
C      1  0.5800530000000  0.4438780000000  0.5218160000000 1.0
C      1  0.5800550000000  0.5091660000000  0.4404910000000 1.0
C      1  0.5029660000000  0.4510170000000  0.4594880000000 1.0
C      1  0.5029660000000  0.4894070000000  0.5626770000000 1.0
C      1  0.5029680000000  0.5595760000000  0.4778360000000 1.0
C      1  0.4970320000000  0.4510160000000  0.5405100000000 1.0
C      1  0.4970330000000  0.4894090000000  0.4373230000000 1.0
C      1  0.4970340000000  0.5595750000000  0.5221660000000 1.0
C      1  0.5909270000000  0.4845850000000  0.4501640000000 1.0
C      1  0.5909260000000  0.4645450000000  0.5382680000000 1.0
C      1  0.5909280000000  0.5508650000000  0.5115700000000 1.0
C      1  0.4090720000000  0.4845860000000  0.5498350000000 1.0
C      1  0.4090720000000  0.4645500000000  0.4617310000000 1.0
C      1  0.4090740000000  0.5508690000000  0.4884310000000 1.0
C      1  0.5157980000000  0.4890380000000  0.4759780000000 1.0
C      1  0.5157980000000  0.4846770000000  0.5215050000000 1.0
C      1  0.5157990000000  0.5262840000000  0.5025180000000 1.0
C      1  0.4842010000000  0.4890370000000  0.5240210000000 1.0
C      1  0.4842020000000  0.4846790000000  0.4784950000000 1.0
C      1  0.4842020000000  0.5262850000000  0.4974830000000 1.0
C      1  0.5279260000000  0.4461560000000  0.5765860000000 1.0
C      1  0.5279290000000  0.5932470000000  0.5083370000000 1.0
C      1  0.5279280000000  0.4605960000000  0.4150770000000 1.0
C      1  0.4720720000000  0.4461590000000  0.4234120000000 1.0
C      1  0.4720740000000  0.5932480000000  0.4916660000000 1.0
C      1  0.4720710000000  0.4605940000000  0.5849220000000 1.0
C      1  0.5266250000000  0.5113770000000  0.5253370000000 1.0
C      1  0.5266250000000  0.5162530000000  0.4774790000000 1.0
C      1  0.5266240000000  0.4723680000000  0.4971850000000 1.0
C      1  0.4733760000000  0.5113790000000  0.4746630000000 1.0
C      1  0.4733750000000  0.5162530000000  0.5225220000000 1.0
C      1  0.4733750000000  0.4723690000000  0.5028140000000 1.0
C      1  0.4793790000000  0.4756020000000  0.5491210000000 1.0
C      1  0.4793810000000  0.5547400000000  0.4965690000000 1.0
C      1  0.4793800000000  0.4696600000000  0.4543100000000 1.0
C      1  0.5206200000000  0.4756030000000  0.4508790000000 1.0
C      1  0.5206210000000  0.5547390000000  0.5034330000000 1.0
C      1  0.5206190000000  0.4696580000000  0.5456890000000 1.0
C      1  0.5499180000000  0.5102520000000  0.5807280000000 1.0
C      1  0.5499210000000  0.5647850000000  0.4507580000000 1.0
C      1  0.5499180000000  0.4249610000000  0.4685160000000 1.0
C      1  0.4500820000000  0.5102560000000  0.4192730000000 1.0
C      1  0.4500820000000  0.5647850000000  0.5492440000000 1.0
C      1  0.4500790000000  0.4249620000000  0.5314810000000 1.0
C      1  0.5118890000000  0.5733770000000  0.5573940000000 1.0
C      1  0.5118890000000  0.5130150000000  0.4077570000000 1.0
C      1  0.5118860000000  0.4136070000000  0.5348500000000 1.0
C      1  0.4881140000000  0.5733790000000  0.4426090000000 1.0
C      1  0.4881110000000  0.5130130000000  0.5922440000000 1.0
C      1  0.4881110000000  0.4136090000000  0.4651470000000 1.0
C      1  0.5474800000000  0.4552180000000  0.5552470000000 1.0
C      1  0.5474820000000  0.5702350000000  0.5111590000000 1.0
C      1  0.5474810000000  0.4745450000000  0.4335950000000 1.0
C      1  0.4525190000000  0.4552220000000  0.4447510000000 1.0
C      1  0.4525200000000  0.5702370000000  0.4888440000000 1.0
C      1  0.4525180000000  0.4745440000000  0.5664040000000 1.0
C      1  0.5394620000000  0.5880910000000  0.4601430000000 1.0
C      1  0.5394590000000  0.4214360000000  0.4436390000000 1.0
C      1  0.5394590000000  0.4904710000000  0.5962190000000 1.0
C      1  0.4605410000000  0.5880910000000  0.5398600000000 1.0
C      1  0.4605380000000  0.4214350000000  0.5563580000000 1.0
C      1  0.4605410000000  0.4904760000000  0.4037810000000 1.0
C      1  0.5301190000000  0.5467910000000  0.4357550000000 1.0
C      1  0.5301170000000  0.4209650000000  0.4916000000000 1.0
C      1  0.5301180000000  0.5322420000000  0.5726460000000 1.0
C      1  0.4698820000000  0.5467900000000  0.5642470000000 1.0
C      1  0.4698810000000  0.4209660000000  0.5083970000000 1.0
C      1  0.4698830000000  0.5322450000000  0.4273550000000 1.0
END
