TITL C-29544-8504-7 -33.4328512571683 125000 -298.203836898571 0 0 45 (C1) n - 1
REM
REM in /rds/project/t2_vol4/rds-t2-cs072/BORA/CARBON/from-Arr/AIRSS/Generating-Clusters/GAP-ML-2020/Higher-Symm/SD-CG/HFTN-CG
REM
REM
REM
REM
REM
REM ./C.cell (b20cbc046b6831c77cfcea5457e17084)
REM AIRSS Version 0.9.1 bugfix July 2018 build 013d7b7c2542+ Fri, 06 Jul 2018 19:26:36 +0100
REM compiler GCC version 9.3.0
REM options -cpp -mtune=generic -march=x86-64 -g -O0
REM seed -584977007 1508348863 109857314 519287320 -1445858608 -1437948059 676224557 616614288 117292565 197404590 -406364690 254438051 -937080848 -361824155 -797845396 -152696317 755930521 -448868329 1125796303 -559208743 1384989603 -2115274788 1980366670 124195520 -1078565152 226891251 -342022486 -1199743116 -286079495 404921079 1079940157 -412935801 722644280
REM
CELL 1.54180   50.00000   50.00000   50.00000   90.00000   90.00000   90.00000
LATT -1
SFAC C  
C      1  0.4455600000000  0.5567630000000  0.5169020000000 1.0
C      1  0.4418880000000  0.4674160000000  0.5285960000000 1.0
C      1  0.5140250000000  0.4138740000000  0.5130090000000 1.0
C      1  0.5750610000000  0.4802770000000  0.5247580000000 1.0
C      1  0.5436490000000  0.5686100000000  0.5200190000000 1.0
C      1  0.4986230000000  0.5473850000000  0.4813630000000 1.0
C      1  0.4430320000000  0.5172160000000  0.4894150000000 1.0
C      1  0.4621210000000  0.4511430000000  0.4869360000000 1.0
C      1  0.5265740000000  0.4612210000000  0.4806750000000 1.0
C      1  0.5305680000000  0.5108330000000  0.4898860000000 1.0
C      1  0.5658760000000  0.4714100000000  0.5020350000000 1.0
C      1  0.5563470000000  0.5571900000000  0.4997150000000 1.0
C      1  0.4555130000000  0.5637390000000  0.4942090000000 1.0
C      1  0.4256010000000  0.4811770000000  0.5146990000000 1.0
C      1  0.4964210000000  0.4215080000000  0.4947800000000 1.0
C      1  0.4836480000000  0.5268320000000  0.5206770000000 1.0
C      1  0.4896250000000  0.4740270000000  0.5163240000000 1.0
C      1  0.5166730000000  0.4663170000000  0.5082010000000 1.0
C      1  0.5272060000000  0.4954280000000  0.5160780000000 1.0
C      1  0.5018080000000  0.5483770000000  0.5132280000000 1.0
C      1  0.5445340000000  0.4941320000000  0.4691020000000 1.0
C      1  0.5227620000000  0.5458210000000  0.4639520000000 1.0
C      1  0.4554630000000  0.5287910000000  0.4663260000000 1.0
C      1  0.4475930000000  0.4709160000000  0.4718520000000 1.0
C      1  0.5035920000000  0.4562760000000  0.4637100000000 1.0
C      1  0.4922950000000  0.4779860000000  0.4504260000000 1.0
C      1  0.5433560000000  0.5063020000000  0.4437800000000 1.0
C      1  0.5218650000000  0.5238340000000  0.4441500000000 1.0
C      1  0.4683210000000  0.5110890000000  0.4494490000000 1.0
C      1  0.4639140000000  0.4831120000000  0.4523740000000 1.0
C      1  0.4559490000000  0.5297080000000  0.5137310000000 1.0
C      1  0.4660660000000  0.4599770000000  0.5149390000000 1.0
C      1  0.5243970000000  0.4389710000000  0.5157660000000 1.0
C      1  0.5510910000000  0.4919250000000  0.5314810000000 1.0
C      1  0.5189260000000  0.5632510000000  0.5280330000000 1.0
C      1  0.5433300000000  0.5395770000000  0.4840420000000 1.0
C      1  0.4708890000000  0.5528390000000  0.4736390000000 1.0
C      1  0.4339240000000  0.4906980000000  0.4893100000000 1.0
C      1  0.4848710000000  0.4380930000000  0.4769730000000 1.0
C      1  0.5540010000000  0.4689120000000  0.4784870000000 1.0
C      1  0.4978520000000  0.5073400000000  0.4517400000000 1.0
C      1  0.4903450000000  0.5084180000000  0.5787060000000 1.0
C      1  0.4951450000000  0.5000640000000  0.5559250000000 1.0
C      1  0.5043520000000  0.5178460000000  0.4788710000000 1.0
C      1  0.4969180000000  0.5001860000000  0.5275770000000 1.0
END
