TITL C-29564-8705-2 1214.11508253645 125000 -634.723735594172 0 0 89 (C1) n - 1
REM
REM in /rds/project/t2_vol4/rds-t2-cs072/BORA/CARBON/from-Arr/AIRSS/Generating-Clusters/GAP-ML-2020/Higher-Symm/SD-CG/HFTN-CG
REM
REM
REM
REM
REM
REM ./C.cell (b20cbc046b6831c77cfcea5457e17084)
REM AIRSS Version 0.9.1 bugfix July 2018 build 013d7b7c2542+ Fri, 06 Jul 2018 19:26:36 +0100
REM compiler GCC version 9.3.0
REM options -cpp -mtune=generic -march=x86-64 -g -O0
REM seed -555612324 -1909609847 76527434 -1515607238 -1767917564 -912248071 776542608 574939104 849780313 1724164614 1730569187 -1777847015 -220085182 -1932739425 1881102902 744838023 -1147501292 1091718811 -2032546956 -1338622225 -1363292942 730583902 2007685012 -1160820643 -894355005 1980057506 -1353305453 1890078525 1207477567 -882436874 1236028889 -163879552 -1302224230
REM
CELL 1.54180   50.00000   50.00000   50.00000   90.00000   90.00000   90.00000
LATT -1
SFAC C  
C      1  0.5228760000000  0.4325350000000  0.5404780000000 1.0
C      1  0.5321200000000  0.5005150000000  0.4251540000000 1.0
C      1  0.5245480000000  0.5664420000000  0.5399650000000 1.0
C      1  0.4653070000000  0.4343130000000  0.5360710000000 1.0
C      1  0.4745250000000  0.4997400000000  0.4220390000000 1.0
C      1  0.4669520000000  0.5668070000000  0.5372730000000 1.0
C      1  0.5569290000000  0.5113190000000  0.4782570000000 1.0
C      1  0.5531520000000  0.5180580000000  0.5253380000000 1.0
C      1  0.5545800000000  0.4700900000000  0.5081590000000 1.0
C      1  0.4439590000000  0.5099780000000  0.4693490000000 1.0
C      1  0.4399220000000  0.5176510000000  0.5194410000000 1.0
C      1  0.4416960000000  0.4734430000000  0.5004390000000 1.0
C      1  0.4714790000000  0.5197650000000  0.5197410000000 1.0
C      1  0.4730380000000  0.4725350000000  0.5043230000000 1.0
C      1  0.4754220000000  0.5089440000000  0.4707760000000 1.0
C      1  0.5221320000000  0.5193650000000  0.5230750000000 1.0
C      1  0.5234900000000  0.4712270000000  0.5083880000000 1.0
C      1  0.5259670000000  0.5087930000000  0.4749080000000 1.0
C      1  0.5784750000000  0.4681850000000  0.4672820000000 1.0
C      1  0.5599760000000  0.5410300000000  0.4829610000000 1.0
C      1  0.5732790000000  0.4833110000000  0.5515980000000 1.0
C      1  0.4394640000000  0.4617240000000  0.4723060000000 1.0
C      1  0.4202150000000  0.5486360000000  0.4860310000000 1.0
C      1  0.4346960000000  0.4986030000000  0.5421510000000 1.0
C      1  0.5348900000000  0.5053310000000  0.5715110000000 1.0
C      1  0.5408380000000  0.4371810000000  0.4725430000000 1.0
C      1  0.5263290000000  0.5471880000000  0.4455450000000 1.0
C      1  0.4693770000000  0.5255450000000  0.5673330000000 1.0
C      1  0.4739300000000  0.4277360000000  0.4862540000000 1.0
C      1  0.4595160000000  0.5569900000000  0.4584810000000 1.0
C      1  0.4377680000000  0.5396950000000  0.4671710000000 1.0
C      1  0.4516450000000  0.5030070000000  0.5653160000000 1.0
C      1  0.4575430000000  0.4399140000000  0.4662480000000 1.0
C      1  0.5426550000000  0.5577880000000  0.4666640000000 1.0
C      1  0.5572240000000  0.5051400000000  0.5526490000000 1.0
C      1  0.5616010000000  0.4543820000000  0.4833020000000 1.0
C      1  0.4865680000000  0.4823160000000  0.4790370000000 1.0
C      1  0.4844460000000  0.5259410000000  0.4937630000000 1.0
C      1  0.4829860000000  0.4918450000000  0.5246570000000 1.0
C      1  0.5145320000000  0.4823850000000  0.4818070000000 1.0
C      1  0.5124810000000  0.5264330000000  0.4957200000000 1.0
C      1  0.5110560000000  0.4916770000000  0.5261720000000 1.0
C      1  0.4920200000000  0.5179970000000  0.5823970000000 1.0
C      1  0.4983680000000  0.4197030000000  0.4743860000000 1.0
C      1  0.4791270000000  0.5470350000000  0.4407130000000 1.0
C      1  0.5166350000000  0.5268720000000  0.5712400000000 1.0
C      1  0.5212080000000  0.4261520000000  0.4898410000000 1.0
C      1  0.5026890000000  0.5626020000000  0.4436780000000 1.0
C      1  0.5374650000000  0.4609320000000  0.4292030000000 1.0
C      1  0.5317270000000  0.5851390000000  0.5052210000000 1.0
C      1  0.5269020000000  0.4556900000000  0.5729590000000 1.0
C      1  0.4692660000000  0.4599260000000  0.4232130000000 1.0
C      1  0.4633670000000  0.5833030000000  0.5008400000000 1.0
C      1  0.4585840000000  0.4554490000000  0.5695820000000 1.0
C      1  0.5122510000000  0.4413390000000  0.5141610000000 1.0
C      1  0.5184740000000  0.5182500000000  0.4447640000000 1.0
C      1  0.5110650000000  0.5405390000000  0.5451620000000 1.0
C      1  0.4803520000000  0.4421290000000  0.5116780000000 1.0
C      1  0.4866490000000  0.5180400000000  0.4421500000000 1.0
C      1  0.4792060000000  0.5402650000000  0.5430460000000 1.0
C      1  0.5470050000000  0.5668240000000  0.5212870000000 1.0
C      1  0.5446420000000  0.4480500000000  0.5515250000000 1.0
C      1  0.5535760000000  0.4842900000000  0.4355930000000 1.0
C      1  0.4459080000000  0.5672250000000  0.5175410000000 1.0
C      1  0.4436410000000  0.4516740000000  0.5450800000000 1.0
C      1  0.4526210000000  0.4821390000000  0.4304320000000 1.0
C      1  0.5631660000000  0.4628660000000  0.5363780000000 1.0
C      1  0.5688730000000  0.4920240000000  0.4579590000000 1.0
C      1  0.5606660000000  0.5447340000000  0.5114190000000 1.0
C      1  0.4327610000000  0.4723550000000  0.5302790000000 1.0
C      1  0.4380630000000  0.4839770000000  0.4540610000000 1.0
C      1  0.4293940000000  0.5452440000000  0.5118410000000 1.0
C      1  0.4903810000000  0.4775050000000  0.4124500000000 1.0
C      1  0.4829390000000  0.5859990000000  0.5227670000000 1.0
C      1  0.4789150000000  0.4357960000000  0.5616780000000 1.0
C      1  0.5176360000000  0.4775760000000  0.4151990000000 1.0
C      1  0.5101860000000  0.5868630000000  0.5251930000000 1.0
C      1  0.5061950000000  0.4367600000000  0.5636460000000 1.0
C      1  0.4655970000000  0.4811300000000  0.5780650000000 1.0
C      1  0.4741650000000  0.4402060000000  0.4422310000000 1.0
C      1  0.4722840000000  0.5777240000000  0.4745680000000 1.0
C      1  0.5200870000000  0.4818830000000  0.5809980000000 1.0
C      1  0.5285820000000  0.4402160000000  0.4464180000000 1.0
C      1  0.5267250000000  0.5790020000000  0.4784690000000 1.0
C      1  0.4923820000000  0.4898350000000  0.5865080000000 1.0
C      1  0.5002640000000  0.5802560000000  0.4658600000000 1.0
C      1  0.5010070000000  0.4300390000000  0.4480160000000 1.0
C      1  0.4344970000000  0.5009040000000  0.4957110000000 1.0
C      1  0.5625850000000  0.4991110000000  0.5046570000000 1.0
END
