TITL C-29555-8534-9 0.109031811506079 125000 -253.229859878031 0 0 39 (C1) n - 1
REM
REM in /rds/project/t2_vol4/rds-t2-cs072/BORA/CARBON/from-Arr/AIRSS/Generating-Clusters/GAP-ML-2020/Higher-Symm/SD-CG/HFTN-CG
REM
REM
REM
REM
REM
REM ./C.cell (b20cbc046b6831c77cfcea5457e17084)
REM AIRSS Version 0.9.1 bugfix July 2018 build 013d7b7c2542+ Fri, 06 Jul 2018 19:26:36 +0100
REM compiler GCC version 9.3.0
REM options -cpp -mtune=generic -march=x86-64 -g -O0
REM seed 1206853845 -1328080211 2103314733 1099925932 -1849570302 -501399834 966404039 -347231079 1307044836 -241633773 -497811739 1156541549 1860323152 284241973 1210531789 -2104207236 -2009543755 -1501439756 1157630017 -1667105713 -1773866986 -1752055180 530375772 -820887154 -1458236400 -843637255 -1151470576 -1756726098 1529216275 929374934 -492359537 -424366613 914245451
REM
CELL 1.54180   50.00000   50.00000   50.00000   90.00000   90.00000   90.00000
LATT -1
SFAC C  
C      1  0.4839250000000  0.5515020000000  0.5475370000000 1.0
C      1  0.4852780000000  0.4540010000000  0.4468850000000 1.0
C      1  0.5098810000000  0.5471320000000  0.5504980000000 1.0
C      1  0.5105470000000  0.4478440000000  0.4461030000000 1.0
C      1  0.4843640000000  0.5441700000000  0.4449730000000 1.0
C      1  0.4897040000000  0.4573780000000  0.5643310000000 1.0
C      1  0.5105200000000  0.5429760000000  0.4431790000000 1.0
C      1  0.5143830000000  0.4486940000000  0.5641780000000 1.0
C      1  0.4569840000000  0.4844620000000  0.5354480000000 1.0
C      1  0.4464240000000  0.5208430000000  0.4655110000000 1.0
C      1  0.5424160000000  0.4791080000000  0.5339860000000 1.0
C      1  0.5460850000000  0.5105180000000  0.4625470000000 1.0
C      1  0.4574580000000  0.4931660000000  0.4632340000000 1.0
C      1  0.4483590000000  0.5121750000000  0.5361630000000 1.0
C      1  0.5494620000000  0.4809180000000  0.4597050000000 1.0
C      1  0.5389350000000  0.5081830000000  0.5375810000000 1.0
C      1  0.5262550000000  0.4718200000000  0.4448710000000 1.0
C      1  0.5169150000000  0.5186290000000  0.5533050000000 1.0
C      1  0.4801800000000  0.4841500000000  0.4474560000000 1.0
C      1  0.4701590000000  0.5266190000000  0.5500580000000 1.0
C      1  0.5338240000000  0.4606630000000  0.5517930000000 1.0
C      1  0.5221300000000  0.5177960000000  0.4469040000000 1.0
C      1  0.4782070000000  0.4806970000000  0.5556700000000 1.0
C      1  0.4595990000000  0.5413480000000  0.4512280000000 1.0
C      1  0.5497510000000  0.5256530000000  0.4870350000000 1.0
C      1  0.5438160000000  0.4705670000000  0.5041260000000 1.0
C      1  0.4324720000000  0.5237270000000  0.4906130000000 1.0
C      1  0.4631570000000  0.4729730000000  0.5093990000000 1.0
C      1  0.5467750000000  0.5254210000000  0.5150530000000 1.0
C      1  0.5591540000000  0.4671860000000  0.4821770000000 1.0
C      1  0.4312380000000  0.5219720000000  0.5155760000000 1.0
C      1  0.4507950000000  0.4786980000000  0.4861000000000 1.0
C      1  0.5022690000000  0.5241720000000  0.4970190000000 1.0
C      1  0.5167590000000  0.4745130000000  0.4937390000000 1.0
C      1  0.4918570000000  0.4724740000000  0.5053230000000 1.0
C      1  0.5270920000000  0.5376730000000  0.4993660000000 1.0
C      1  0.5077550000000  0.4936150000000  0.4419380000000 1.0
C      1  0.4903800000000  0.5066650000000  0.5582690000000 1.0
C      1  0.5029910000000  0.4977710000000  0.5004890000000 1.0
END
