TITL C-29633-2584-5 0.000192527365530849 125000 -16.4263740355988 0 0 4 (Td) n - 1
REM
REM in /rds/project/t2_vol4/rds-t2-cs072/BORA/CARBON/from-Arr/AIRSS/Generating-Clusters/GAP-ML-2020/Higher-Symm/SD-CG/HFTN-CG
REM
REM
REM
REM
REM
REM ./C.cell (b20cbc046b6831c77cfcea5457e17084)
REM AIRSS Version 0.9.1 bugfix July 2018 build 013d7b7c2542+ Fri, 06 Jul 2018 19:26:36 +0100
REM compiler GCC version 9.3.0
REM options -cpp -mtune=generic -march=x86-64 -g -O0
REM seed 1163494518 1981109066 1783344037 761037952 761822406 1587196225 -1697287740 1342527506 1353221363 1243652509 -1031610342 1581205662 -1302961822 -1502979535 -1482687003 -485628012 -407733173 2120467038 -577734222 -782610232 870584684 1531108163 -525433763 -63891469 45213836 -2038709939 -1280626034 1653429846 -1287311637 -1195165148 2133499589 1486641320 1863724892
REM
CELL 1.54180   50.00000   50.00000   50.00000   90.00000   90.00000   90.00000
LATT -1
SFAC C  
C      1  0.4912230000000  0.5118200000000  0.4930590000000 1.0
C      1  0.5111930000000  0.4918480000000  0.4930560000000 1.0
C      1  0.4912250000000  0.4918490000000  0.5130300000000 1.0
C      1  0.5111960000000  0.5118190000000  0.5130270000000 1.0
END
