TITL C-29549-8764-9 -0.0576455598065406 125000 -408.458943554637 0 0 62 (C1) n - 1
REM
REM in /rds/project/t2_vol4/rds-t2-cs072/BORA/CARBON/from-Arr/AIRSS/Generating-Clusters/GAP-ML-2020/Higher-Symm/SD-CG/HFTN-CG
REM
REM
REM
REM
REM
REM ./C.cell (b20cbc046b6831c77cfcea5457e17084)
REM AIRSS Version 0.9.1 bugfix July 2018 build 013d7b7c2542+ Fri, 06 Jul 2018 19:26:36 +0100
REM compiler GCC version 9.3.0
REM options -cpp -mtune=generic -march=x86-64 -g -O0
REM seed -211867830 298769211 38263721 -645952198 715734699 195354978 1551980381 2122192302 159359540 551338041 -822066336 -1017482788 -1144285824 -1296545474 -2143541002 1546575776 1306457090 1852985736 1551367067 1622229448 1232962331 -2145961339 -1818466092 -1410828345 -1889086412 1062802003 -399854111 -1228168001 -14529874 66497228 -1722675659 -1450868473 -1654491144
REM
CELL 1.54180   50.00000   50.00000   50.00000   90.00000   90.00000   90.00000
LATT -1
SFAC C  
C      1  0.4867930000000  0.5275290000000  0.5670090000000 1.0
C      1  0.5166130000000  0.5230570000000  0.5604760000000 1.0
C      1  0.5308260000000  0.4980690000000  0.5709240000000 1.0
C      1  0.5146890000000  0.4734710000000  0.5702050000000 1.0
C      1  0.4844410000000  0.4755770000000  0.5685480000000 1.0
C      1  0.4705390000000  0.5027130000000  0.5678760000000 1.0
C      1  0.4889910000000  0.4709540000000  0.4329740000000 1.0
C      1  0.5190820000000  0.4714040000000  0.4316720000000 1.0
C      1  0.5331400000000  0.4971470000000  0.4317270000000 1.0
C      1  0.5168310000000  0.5211130000000  0.4416510000000 1.0
C      1  0.4867740000000  0.5229140000000  0.4351600000000 1.0
C      1  0.4728320000000  0.4967030000000  0.4337340000000 1.0
C      1  0.5398230000000  0.5648220000000  0.5394710000000 1.0
C      1  0.5736380000000  0.4974030000000  0.5410400000000 1.0
C      1  0.5326670000000  0.4351500000000  0.5397490000000 1.0
C      1  0.4605540000000  0.4400220000000  0.5383990000000 1.0
C      1  0.4263410000000  0.5039650000000  0.5393250000000 1.0
C      1  0.4645600000000  0.5671760000000  0.5413050000000 1.0
C      1  0.5386030000000  0.4340390000000  0.4620570000000 1.0
C      1  0.5753880000000  0.4994710000000  0.4624300000000 1.0
C      1  0.5376360000000  0.5648120000000  0.4608250000000 1.0
C      1  0.4619230000000  0.5610190000000  0.4608750000000 1.0
C      1  0.4282070000000  0.4948720000000  0.4617870000000 1.0
C      1  0.4666560000000  0.4338510000000  0.4625090000000 1.0
C      1  0.4385400000000  0.5019460000000  0.5145180000000 1.0
C      1  0.4629590000000  0.5567270000000  0.5160270000000 1.0
C      1  0.5283380000000  0.5603040000000  0.5146620000000 1.0
C      1  0.5630600000000  0.4944270000000  0.5157040000000 1.0
C      1  0.5249800000000  0.4429460000000  0.5143470000000 1.0
C      1  0.4666830000000  0.4512580000000  0.5137010000000 1.0
C      1  0.4391700000000  0.4967970000000  0.4870580000000 1.0
C      1  0.4701410000000  0.4486950000000  0.4860600000000 1.0
C      1  0.5279760000000  0.4429940000000  0.4859900000000 1.0
C      1  0.5637540000000  0.4957420000000  0.4872210000000 1.0
C      1  0.5274600000000  0.5607440000000  0.4861720000000 1.0
C      1  0.4607250000000  0.5530680000000  0.4872480000000 1.0
C      1  0.4458500000000  0.4949500000000  0.4420630000000 1.0
C      1  0.4730720000000  0.5465410000000  0.4417360000000 1.0
C      1  0.5318480000000  0.5483340000000  0.4417080000000 1.0
C      1  0.5586470000000  0.4998650000000  0.4423640000000 1.0
C      1  0.5336050000000  0.4478800000000  0.4403210000000 1.0
C      1  0.4766780000000  0.4466960000000  0.4416740000000 1.0
C      1  0.4433970000000  0.5040930000000  0.5595750000000 1.0
C      1  0.4698570000000  0.4528630000000  0.5595490000000 1.0
C      1  0.5275170000000  0.4491440000000  0.5612730000000 1.0
C      1  0.5565680000000  0.4985900000000  0.5606680000000 1.0
C      1  0.5335590000000  0.5489180000000  0.5589940000000 1.0
C      1  0.4752030000000  0.5524570000000  0.5607760000000 1.0
C      1  0.4838210000000  0.4767130000000  0.5158870000000 1.0
C      1  0.4690380000000  0.5028180000000  0.5167410000000 1.0
C      1  0.4792970000000  0.5308230000000  0.5175660000000 1.0
C      1  0.5088300000000  0.5363190000000  0.5159870000000 1.0
C      1  0.5320250000000  0.4947000000000  0.5172850000000 1.0
C      1  0.5132030000000  0.4712380000000  0.5155860000000 1.0
C      1  0.4784800000000  0.5286100000000  0.4863940000000 1.0
C      1  0.4696680000000  0.4999310000000  0.4852390000000 1.0
C      1  0.4858020000000  0.4747840000000  0.4838990000000 1.0
C      1  0.5152810000000  0.4708320000000  0.4839550000000 1.0
C      1  0.5328560000000  0.4951760000000  0.4847160000000 1.0
C      1  0.5080400000000  0.5359500000000  0.4858060000000 1.0
C      1  0.5200910000000  0.5162220000000  0.5319540000000 1.0
C      1  0.5208740000000  0.5166380000000  0.4702620000000 1.0
END
