TITL C-29618-2234-2 -0.0579190278352221 125000 -387.023628347186 0 0 59 (Cs) n - 1
REM
REM in /rds/project/t2_vol4/rds-t2-cs072/BORA/CARBON/from-Arr/AIRSS/Generating-Clusters/GAP-ML-2020/Higher-Symm/SD-CG/HFTN-CG
REM
REM
REM
REM
REM
REM ./C.cell (b20cbc046b6831c77cfcea5457e17084)
REM AIRSS Version 0.9.1 bugfix July 2018 build 013d7b7c2542+ Fri, 06 Jul 2018 19:26:36 +0100
REM compiler GCC version 9.3.0
REM options -cpp -mtune=generic -march=x86-64 -g -O0
REM seed 1605788354 -1118473188 -433098277 -1213436029 308500937 929697157 2050862587 953587758 -1156118254 621333176 1495714651 -1403405721 298868604 -704890815 -609170205 -1931149575 498559923 1872547023 -189967303 -955141349 -799498354 -157964061 -772658265 808462438 385253040 -562702957 1218603906 1674459406 420870413 -214021020 -326134160 802520686 1871187890
REM
CELL 1.54180   50.00000   50.00000   50.00000   90.00000   90.00000   90.00000
LATT -1
SFAC C  
C      1  0.4718980000000  0.5520780000000  0.4628700000000 1.0
C      1  0.5395260000000  0.5476750000000  0.5336640000000 1.0
C      1  0.4649010000000  0.4507120000000  0.4624230000000 1.0
C      1  0.5342460000000  0.4445990000000  0.5380100000000 1.0
C      1  0.5348150000000  0.5493370000000  0.4644490000000 1.0
C      1  0.4636000000000  0.5509820000000  0.5317580000000 1.0
C      1  0.5329900000000  0.4477460000000  0.4641320000000 1.0
C      1  0.4596790000000  0.4478470000000  0.5361390000000 1.0
C      1  0.4433840000000  0.5282260000000  0.5365770000000 1.0
C      1  0.5536990000000  0.5264130000000  0.4665650000000 1.0
C      1  0.4411310000000  0.4713050000000  0.5403850000000 1.0
C      1  0.5552590000000  0.4670330000000  0.4617560000000 1.0
C      1  0.5574220000000  0.5232580000000  0.5394390000000 1.0
C      1  0.4510110000000  0.5308860000000  0.4639880000000 1.0
C      1  0.5545260000000  0.4663650000000  0.5432310000000 1.0
C      1  0.4445390000000  0.4718560000000  0.4589770000000 1.0
C      1  0.4456500000000  0.4853110000000  0.5145310000000 1.0
C      1  0.5519740000000  0.4823640000000  0.4863060000000 1.0
C      1  0.4364330000000  0.5137530000000  0.5136990000000 1.0
C      1  0.5629800000000  0.5103910000000  0.4882280000000 1.0
C      1  0.5525410000000  0.4806550000000  0.5172140000000 1.0
C      1  0.4479110000000  0.4868970000000  0.4836940000000 1.0
C      1  0.5642250000000  0.5081860000000  0.5169060000000 1.0
C      1  0.4393000000000  0.5157790000000  0.4851240000000 1.0
C      1  0.4616360000000  0.5137690000000  0.5545650000000 1.0
C      1  0.5384140000000  0.5128990000000  0.4452690000000 1.0
C      1  0.4604760000000  0.4859190000000  0.5573610000000 1.0
C      1  0.5382120000000  0.4851680000000  0.4430290000000 1.0
C      1  0.5371050000000  0.5104810000000  0.5564590000000 1.0
C      1  0.4661100000000  0.5160490000000  0.4434540000000 1.0
C      1  0.5356990000000  0.4826420000000  0.5592490000000 1.0
C      1  0.4640130000000  0.4884000000000  0.4411670000000 1.0
C      1  0.4705520000000  0.4380920000000  0.4877470000000 1.0
C      1  0.5369620000000  0.4339690000000  0.5134080000000 1.0
C      1  0.4786450000000  0.5689560000000  0.4855410000000 1.0
C      1  0.5418470000000  0.5619750000000  0.5115190000000 1.0
C      1  0.5250030000000  0.4357200000000  0.4891130000000 1.0
C      1  0.4572850000000  0.4374400000000  0.5114090000000 1.0
C      1  0.5284330000000  0.5667870000000  0.4867900000000 1.0
C      1  0.4636420000000  0.5653810000000  0.5095560000000 1.0
C      1  0.4870530000000  0.5168420000000  0.4884000000000 1.0
C      1  0.5148710000000  0.5114410000000  0.5196540000000 1.0
C      1  0.4790460000000  0.4883980000000  0.4810870000000 1.0
C      1  0.5204860000000  0.4822170000000  0.5205600000000 1.0
C      1  0.5153960000000  0.5156070000000  0.4891120000000 1.0
C      1  0.4856840000000  0.5127120000000  0.5189220000000 1.0
C      1  0.5212560000000  0.4865590000000  0.4821460000000 1.0
C      1  0.4775120000000  0.4840890000000  0.5194810000000 1.0
C      1  0.4842200000000  0.5312700000000  0.5439070000000 1.0
C      1  0.5175420000000  0.5346310000000  0.4456710000000 1.0
C      1  0.4822620000000  0.4678330000000  0.5454740000000 1.0
C      1  0.5150660000000  0.4698060000000  0.4539140000000 1.0
C      1  0.5166890000000  0.5298550000000  0.5447220000000 1.0
C      1  0.4887460000000  0.5358860000000  0.4449480000000 1.0
C      1  0.5130460000000  0.4664920000000  0.5462470000000 1.0
C      1  0.4851630000000  0.4711090000000  0.4531640000000 1.0
C      1  0.4979400000000  0.4441240000000  0.4944790000000 1.0
C      1  0.5041050000000  0.5792160000000  0.4833170000000 1.0
C      1  0.4990580000000  0.4726890000000  0.4995140000000 1.0
END
