TITL C-29547-8429-6 0.0181286081563654 125000 -66.3616346428125 0 0 11 (C2v) n - 1
REM
REM in /rds/project/t2_vol4/rds-t2-cs072/BORA/CARBON/from-Arr/AIRSS/Generating-Clusters/GAP-ML-2020/Higher-Symm/SD-CG/HFTN-CG
REM
REM
REM
REM
REM
REM ./C.cell (b20cbc046b6831c77cfcea5457e17084)
REM AIRSS Version 0.9.1 bugfix July 2018 build 013d7b7c2542+ Fri, 06 Jul 2018 19:26:36 +0100
REM compiler GCC version 9.3.0
REM options -cpp -mtune=generic -march=x86-64 -g -O0
REM seed 1484053447 -638798782 -708602240 2018661732 -381663766 -431519102 1063845105 -2028749508 -833157499 -1006075762 174646589 -1245847098 2036317265 -1985150182 -1708322905 -1887884788 1016542004 -182724498 471222569 63067754 1059321105 1022475343 1087825214 12089683 32974154 -2050356292 295039682 1552062261 920031974 580982489 785475763 -582912262 -1662975201
REM
CELL 1.54180   50.00000   50.00000   50.00000   90.00000   90.00000   90.00000
LATT -1
SFAC C  
C      1  0.5277640000000  0.5003970000000  0.4779780000000 1.0
C      1  0.5128260000000  0.4997370000000  0.4551430000000 1.0
C      1  0.4873660000000  0.4987060000000  0.4616480000000 1.0
C      1  0.4635730000000  0.4977510000000  0.4716330000000 1.0
C      1  0.4589160000000  0.4976140000000  0.4974390000000 1.0
C      1  0.4621610000000  0.4978010000000  0.5234590000000 1.0
C      1  0.4853770000000  0.4987760000000  0.5347220000000 1.0
C      1  0.5104440000000  0.4998210000000  0.5426010000000 1.0
C      1  0.5266030000000  0.5004380000000  0.5206110000000 1.0
C      1  0.5460080000000  0.5011910000000  0.4998060000000 1.0
C      1  0.5089900000000  0.4996700000000  0.4988000000000 1.0
END
