TITL C-29565-9154-10 -16.8822995005008 125000 -181.741643450111 0 0 27 (C1) n - 1
REM
REM in /rds/project/t2_vol4/rds-t2-cs072/BORA/CARBON/from-Arr/AIRSS/Generating-Clusters/GAP-ML-2020/Higher-Symm/SD-CG/HFTN-CG
REM
REM
REM
REM
REM
REM ./C.cell (b20cbc046b6831c77cfcea5457e17084)
REM AIRSS Version 0.9.1 bugfix July 2018 build 013d7b7c2542+ Fri, 06 Jul 2018 19:26:36 +0100
REM compiler GCC version 9.3.0
REM options -cpp -mtune=generic -march=x86-64 -g -O0
REM seed 1896580057 702698171 -677678515 1305133828 -924614424 1921690110 -1710833862 -1819613478 -811385509 -1261379533 805852085 -1108679498 1929578125 -103477087 -320941313 -1001371179 559882226 1759420111 1311850143 -553465774 -239500484 -661472751 -2074433958 1669437620 -773030754 -1141768537 -116645681 -1196742367 -1092549529 1029307425 -459959936 1987399917 -365264315
REM
CELL 1.54180   50.00000   50.00000   50.00000   90.00000   90.00000   90.00000
LATT -1
SFAC C  
C      1  0.4709000000000  0.4687190000000  0.5014290000000 1.0
C      1  0.5131250000000  0.4723150000000  0.5266280000000 1.0
C      1  0.5140550000000  0.4675340000000  0.4770980000000 1.0
C      1  0.5281630000000  0.4703960000000  0.5025820000000 1.0
C      1  0.4840960000000  0.4699240000000  0.5262310000000 1.0
C      1  0.4860280000000  0.4692770000000  0.4767950000000 1.0
C      1  0.4732470000000  0.4885550000000  0.5457040000000 1.0
C      1  0.5499710000000  0.4886670000000  0.4981440000000 1.0
C      1  0.4735390000000  0.4880590000000  0.4588640000000 1.0
C      1  0.5198450000000  0.4925600000000  0.5459380000000 1.0
C      1  0.4479990000000  0.4861850000000  0.4980070000000 1.0
C      1  0.5282730000000  0.4829830000000  0.4572090000000 1.0
C      1  0.5318400000000  0.5165250000000  0.5347340000000 1.0
C      1  0.5173810000000  0.5097390000000  0.4517820000000 1.0
C      1  0.4508700000000  0.5132080000000  0.5098530000000 1.0
C      1  0.4641490000000  0.5145790000000  0.5344310000000 1.0
C      1  0.4892710000000  0.5125930000000  0.4537760000000 1.0
C      1  0.5474440000000  0.5144990000000  0.5112990000000 1.0
C      1  0.5411970000000  0.5211750000000  0.4662450000000 1.0
C      1  0.4526970000000  0.5238130000000  0.4812760000000 1.0
C      1  0.5126730000000  0.5374630000000  0.5389650000000 1.0
C      1  0.4725820000000  0.5336090000000  0.4651700000000 1.0
C      1  0.5459270000000  0.5340250000000  0.4903430000000 1.0
C      1  0.4885140000000  0.5270900000000  0.5474760000000 1.0
C      1  0.4500930000000  0.4965010000000  0.4719980000000 1.0
C      1  0.4954510000000  0.5008990000000  0.5576680000000 1.0
C      1  0.5506700000000  0.4941090000000  0.4703560000000 1.0
END
