TITL C-29545-8949-4 17.5185492472969 125000 -671.781054092949 0 0 99 (Cs) n - 1
REM
REM in /rds/project/t2_vol4/rds-t2-cs072/BORA/CARBON/from-Arr/AIRSS/Generating-Clusters/GAP-ML-2020/Higher-Symm/SD-CG/HFTN-CG
REM
REM
REM
REM
REM
REM ./C.cell (b20cbc046b6831c77cfcea5457e17084)
REM AIRSS Version 0.9.1 bugfix July 2018 build 013d7b7c2542+ Fri, 06 Jul 2018 19:26:36 +0100
REM compiler GCC version 9.3.0
REM options -cpp -mtune=generic -march=x86-64 -g -O0
REM seed -503501877 617031021 -428431662 1768761689 -73291330 -217876420 -1551931962 829483341 -2011386357 -1086137479 146571780 1982030634 290969606 -130729436 -306129575 -1401845213 -153638525 323225569 890310397 -1454474137 647138697 1724728298 1383194592 -478976029 -1843029214 2005343911 -1477832620 -940290255 410760217 360041605 -136684145 1875548240 2058827040
REM
CELL 1.54180   50.00000   50.00000   50.00000   90.00000   90.00000   90.00000
LATT -1
SFAC C  
C      1  0.4698080000000  0.4467010000000  0.5509150000000 1.0
C      1  0.4719540000000  0.5589010000000  0.5533990000000 1.0
C      1  0.5596840000000  0.4955270000000  0.5535960000000 1.0
C      1  0.4697970000000  0.4466960000000  0.4483500000000 1.0
C      1  0.4719430000000  0.5588960000000  0.4458550000000 1.0
C      1  0.5596740000000  0.4955230000000  0.4456470000000 1.0
C      1  0.5309650000000  0.4460420000000  0.5521640000000 1.0
C      1  0.5291640000000  0.5545760000000  0.5544130000000 1.0
C      1  0.4381710000000  0.4953240000000  0.5543010000000 1.0
C      1  0.5309540000000  0.4460370000000  0.4470880000000 1.0
C      1  0.5291530000000  0.5545710000000  0.4448300000000 1.0
C      1  0.4381600000000  0.4953190000000  0.4449660000000 1.0
C      1  0.5886530000000  0.4697090000000  0.5228300000000 1.0
C      1  0.4328800000000  0.4335510000000  0.5224450000000 1.0
C      1  0.4821150000000  0.5967470000000  0.5228150000000 1.0
C      1  0.5886480000000  0.4697060000000  0.4764090000000 1.0
C      1  0.4328760000000  0.4335490000000  0.4768280000000 1.0
C      1  0.4821100000000  0.5967450000000  0.4764340000000 1.0
C      1  0.4100430000000  0.4689560000000  0.5229170000000 1.0
C      1  0.5691410000000  0.4321250000000  0.5235920000000 1.0
C      1  0.5240260000000  0.5934320000000  0.5228930000000 1.0
C      1  0.4100380000000  0.4689540000000  0.4763580000000 1.0
C      1  0.5691360000000  0.4321230000000  0.4756530000000 1.0
C      1  0.5240210000000  0.5934300000000  0.4763470000000 1.0
C      1  0.5137170000000  0.4737960000000  0.5553140000000 1.0
C      1  0.4672860000000  0.4982790000000  0.5618390000000 1.0
C      1  0.5161400000000  0.5271320000000  0.5615460000000 1.0
C      1  0.5137060000000  0.4737910000000  0.4439390000000 1.0
C      1  0.4672730000000  0.4982730000000  0.4374220000000 1.0
C      1  0.5161270000000  0.5271270000000  0.4377020000000 1.0
C      1  0.4832920000000  0.4718630000000  0.5615790000000 1.0
C      1  0.5305180000000  0.5004900000000  0.5621140000000 1.0
C      1  0.4841210000000  0.5275060000000  0.5550360000000 1.0
C      1  0.4832800000000  0.4718570000000  0.4376810000000 1.0
C      1  0.5305050000000  0.5004840000000  0.4371340000000 1.0
C      1  0.4841100000000  0.5275010000000  0.4442180000000 1.0
C      1  0.5497130000000  0.5607940000000  0.5326940000000 1.0
C      1  0.5241510000000  0.4293200000000  0.5263880000000 1.0
C      1  0.4221850000000  0.5103090000000  0.5327190000000 1.0
C      1  0.5497070000000  0.5607910000000  0.4665450000000 1.0
C      1  0.5241460000000  0.4293180000000  0.4728670000000 1.0
C      1  0.4221780000000  0.5103060000000  0.4665500000000 1.0
C      1  0.4524170000000  0.5660140000000  0.5315350000000 1.0
C      1  0.4768450000000  0.4250240000000  0.5301710000000 1.0
C      1  0.5732770000000  0.5092650000000  0.5311880000000 1.0
C      1  0.4524100000000  0.5660110000000  0.4677230000000 1.0
C      1  0.4768390000000  0.4250210000000  0.4690940000000 1.0
C      1  0.5732710000000  0.5092620000000  0.4680510000000 1.0
C      1  0.4050600000000  0.4946830000000  0.5145010000000 1.0
C      1  0.5487200000000  0.5842540000000  0.5146950000000 1.0
C      1  0.5477960000000  0.4172160000000  0.5139010000000 1.0
C      1  0.4050570000000  0.4946820000000  0.4847730000000 1.0
C      1  0.5487170000000  0.5842530000000  0.4845410000000 1.0
C      1  0.5477930000000  0.4172140000000  0.4853500000000 1.0
C      1  0.5929150000000  0.4958410000000  0.5142250000000 1.0
C      1  0.4567000000000  0.5891870000000  0.5143650000000 1.0
C      1  0.4545780000000  0.4183310000000  0.5138930000000 1.0
C      1  0.5929120000000  0.4958400000000  0.4850110000000 1.0
C      1  0.4566970000000  0.5891860000000  0.4848900000000 1.0
C      1  0.4545750000000  0.4183300000000  0.4853770000000 1.0
C      1  0.5503800000000  0.5150060000000  0.4843230000000 1.0
C      1  0.4997630000000  0.4198950000000  0.4841980000000 1.0
C      1  0.4574620000000  0.5437880000000  0.4844420000000 1.0
C      1  0.5503830000000  0.5150080000000  0.5149200000000 1.0
C      1  0.4997670000000  0.4198970000000  0.5150630000000 1.0
C      1  0.4574650000000  0.5437900000000  0.5148170000000 1.0
C      1  0.4408370000000  0.5199330000000  0.4844690000000 1.0
C      1  0.5270570000000  0.4580190000000  0.4859700000000 1.0
C      1  0.5398530000000  0.5411710000000  0.4842970000000 1.0
C      1  0.4408400000000  0.5199350000000  0.5147960000000 1.0
C      1  0.5270590000000  0.4580200000000  0.5132820000000 1.0
C      1  0.5398560000000  0.5411720000000  0.5149450000000 1.0
C      1  0.5724040000000  0.4705990000000  0.5483240000000 1.0
C      1  0.4416330000000  0.4473270000000  0.5466920000000 1.0
C      1  0.4881910000000  0.5808350000000  0.5479170000000 1.0
C      1  0.5723940000000  0.4705950000000  0.4509180000000 1.0
C      1  0.4416230000000  0.4473230000000  0.4525780000000 1.0
C      1  0.4881810000000  0.5808310000000  0.4513320000000 1.0
C      1  0.4268230000000  0.4705450000000  0.5478520000000 1.0
C      1  0.5592270000000  0.4463210000000  0.5484350000000 1.0
C      1  0.5157710000000  0.5787080000000  0.5482310000000 1.0
C      1  0.4268130000000  0.4705410000000  0.4514190000000 1.0
C      1  0.5592180000000  0.4463160000000  0.4508110000000 1.0
C      1  0.5157610000000  0.5787040000000  0.4510130000000 1.0
C      1  0.5099560000000  0.4778680000000  0.4744160000000 1.0
C      1  0.4684470000000  0.5034820000000  0.4847320000000 1.0
C      1  0.5092100000000  0.5309450000000  0.4853640000000 1.0
C      1  0.5099610000000  0.4778700000000  0.5248380000000 1.0
C      1  0.4684500000000  0.5034830000000  0.5145280000000 1.0
C      1  0.5092130000000  0.5309470000000  0.5138850000000 1.0
C      1  0.4812180000000  0.4762080000000  0.4854910000000 1.0
C      1  0.5214890000000  0.5027480000000  0.4849940000000 1.0
C      1  0.4821290000000  0.5279230000000  0.4741470000000 1.0
C      1  0.4812210000000  0.4762100000000  0.5137690000000 1.0
C      1  0.5214920000000  0.5027500000000  0.5142550000000 1.0
C      1  0.4821340000000  0.5279260000000  0.5251080000000 1.0
C      1  0.4171950000000  0.4481620000000  0.4996380000000 1.0
C      1  0.5838890000000  0.4481590000000  0.4996210000000 1.0
C      1  0.5033880000000  0.5993460000000  0.4996220000000 1.0
END
