TITL C-29565-9154-7 130.260571174705 125000 -226.670947754063 0 0 35 (C1) n - 1
REM
REM in /rds/project/t2_vol4/rds-t2-cs072/BORA/CARBON/from-Arr/AIRSS/Generating-Clusters/GAP-ML-2020/Higher-Symm/SD-CG/HFTN-CG
REM
REM
REM
REM
REM
REM ./C.cell (b20cbc046b6831c77cfcea5457e17084)
REM AIRSS Version 0.9.1 bugfix July 2018 build 013d7b7c2542+ Fri, 06 Jul 2018 19:26:36 +0100
REM compiler GCC version 9.3.0
REM options -cpp -mtune=generic -march=x86-64 -g -O0
REM seed -1392911405 66590826 1037949683 -1020720116 -305240362 -799259960 -1938213390 1226992630 -887644772 -747558184 -1584181636 -154773493 -1855767476 432994413 1307323691 -1489691854 1712448610 -27178350 -1283895083 -2003071350 -741536446 1760322258 1443322517 877533081 -765491870 558175685 -890472177 747695905 1828634590 1293301415 1902580912 -1911277914 -32609701
REM
CELL 1.54180   50.00000   50.00000   50.00000   90.00000   90.00000   90.00000
LATT -1
SFAC C  
C      1  0.4599490000000  0.5159980000000  0.5184270000000 1.0
C      1  0.5379100000000  0.4836440000000  0.4792360000000 1.0
C      1  0.4871250000000  0.5267500000000  0.4831030000000 1.0
C      1  0.5106030000000  0.4797520000000  0.5145830000000 1.0
C      1  0.4863860000000  0.5109840000000  0.5312510000000 1.0
C      1  0.5080210000000  0.4875690000000  0.4691220000000 1.0
C      1  0.4457940000000  0.4987210000000  0.5366730000000 1.0
C      1  0.5540010000000  0.5009620000000  0.4630790000000 1.0
C      1  0.4991360000000  0.4845810000000  0.4415440000000 1.0
C      1  0.4930740000000  0.5170330000000  0.5586920000000 1.0
C      1  0.4926520000000  0.4810930000000  0.5363570000000 1.0
C      1  0.5074650000000  0.5197500000000  0.4651780000000 1.0
C      1  0.4633360000000  0.5452460000000  0.5178940000000 1.0
C      1  0.5407470000000  0.4549900000000  0.4850910000000 1.0
C      1  0.5375080000000  0.5208020000000  0.5177530000000 1.0
C      1  0.4527260000000  0.4991700000000  0.4676290000000 1.0
C      1  0.4428950000000  0.4725310000000  0.5379390000000 1.0
C      1  0.5579010000000  0.5262050000000  0.4584750000000 1.0
C      1  0.5420610000000  0.5194800000000  0.5452190000000 1.0
C      1  0.4487920000000  0.4992840000000  0.4418510000000 1.0
C      1  0.4683950000000  0.4660830000000  0.5280220000000 1.0
C      1  0.5335840000000  0.5331400000000  0.4718620000000 1.0
C      1  0.4759080000000  0.4989700000000  0.4360490000000 1.0
C      1  0.5216280000000  0.5094970000000  0.5582660000000 1.0
C      1  0.5314880000000  0.5427910000000  0.4992310000000 1.0
C      1  0.4764400000000  0.4564140000000  0.5014310000000 1.0
C      1  0.4991050000000  0.5145270000000  0.4368960000000 1.0
C      1  0.5027970000000  0.4892720000000  0.5634070000000 1.0
C      1  0.4965050000000  0.4364840000000  0.4994940000000 1.0
C      1  0.5104550000000  0.5608850000000  0.5037270000000 1.0
C      1  0.4694020000000  0.5050920000000  0.4895930000000 1.0
C      1  0.5323390000000  0.4953280000000  0.5077250000000 1.0
C      1  0.5196930000000  0.4498790000000  0.5007380000000 1.0
C      1  0.4854080000000  0.5503090000000  0.5016380000000 1.0
C      1  0.4893720000000  0.4823940000000  0.4910850000000 1.0
END
