TITL C-29562-9710-4 0.00145697655884754 125000 -272.339179441234 0 0 41 (Td) n - 1
REM
REM in /rds/project/t2_vol4/rds-t2-cs072/BORA/CARBON/from-Arr/AIRSS/Generating-Clusters/GAP-ML-2020/Higher-Symm/SD-CG/HFTN-CG
REM
REM
REM
REM
REM
REM ./C.cell (b20cbc046b6831c77cfcea5457e17084)
REM AIRSS Version 0.9.1 bugfix July 2018 build 013d7b7c2542+ Fri, 06 Jul 2018 19:26:36 +0100
REM compiler GCC version 9.3.0
REM options -cpp -mtune=generic -march=x86-64 -g -O0
REM seed -1663467495 1658554653 1271598423 -779959789 1894000171 102895817 -423955943 -898928880 93856061 -505257473 1428115721 1224025598 1320179295 -200850293 512528061 -608105082 1795223434 1497854487 -993460755 296717114 -722356016 -1106053279 1915393890 -369930229 962778718 -1193062147 -1472580567 -1615026592 453834029 1509157988 -1330172467 -250390371 116727605
REM
CELL 1.54180   50.00000   50.00000   50.00000   90.00000   90.00000   90.00000
LATT -1
SFAC C  
C      1  0.5213420000000  0.4393200000000  0.4997010000000 1.0
C      1  0.4386210000000  0.4995590000000  0.5221830000000 1.0
C      1  0.4988600000000  0.5220400000000  0.4394630000000 1.0
C      1  0.4775750000000  0.5609940000000  0.4997020000000 1.0
C      1  0.5213420000000  0.5609940000000  0.5008990000000 1.0
C      1  0.4775750000000  0.4393200000000  0.5008990000000 1.0
C      1  0.5602960000000  0.5007560000000  0.5221830000000 1.0
C      1  0.4386210000000  0.5007560000000  0.4784170000000 1.0
C      1  0.5602950000000  0.4995580000000  0.4784170000000 1.0
C      1  0.5000570000000  0.4782740000000  0.4394630000000 1.0
C      1  0.4988600000000  0.4782740000000  0.5611370000000 1.0
C      1  0.5000570000000  0.5220400000000  0.5611370000000 1.0
C      1  0.4386210000000  0.5220400000000  0.4997020000000 1.0
C      1  0.4988600000000  0.4393200000000  0.5221830000000 1.0
C      1  0.5213420000000  0.4995580000000  0.4394630000000 1.0
C      1  0.5602950000000  0.4782740000000  0.4997010000000 1.0
C      1  0.5602960000000  0.5220400000000  0.5008990000000 1.0
C      1  0.4386210000000  0.4782740000000  0.5008990000000 1.0
C      1  0.5000570000000  0.5609940000000  0.5221830000000 1.0
C      1  0.5000570000000  0.4393200000000  0.4784170000000 1.0
C      1  0.4988600000000  0.5609940000000  0.4784170000000 1.0
C      1  0.4775750000000  0.5007560000000  0.4394630000000 1.0
C      1  0.4775750000000  0.4995590000000  0.5611370000000 1.0
C      1  0.5213420000000  0.5007560000000  0.5611370000000 1.0
C      1  0.4955290000000  0.5368000000000  0.5369430000000 1.0
C      1  0.5361010000000  0.5368000000000  0.4963710000000 1.0
C      1  0.4628160000000  0.5040870000000  0.5369430000000 1.0
C      1  0.5361010000000  0.5040860000000  0.4636570000000 1.0
C      1  0.5033880000000  0.4635140000000  0.5369430000000 1.0
C      1  0.4955290000000  0.4635140000000  0.4636570000000 1.0
C      1  0.5033880000000  0.5368000000000  0.4636570000000 1.0
C      1  0.4628160000000  0.4635140000000  0.4963710000000 1.0
C      1  0.5361010000000  0.4635140000000  0.5042300000000 1.0
C      1  0.4628160000000  0.5368000000000  0.5042300000000 1.0
C      1  0.5361010000000  0.4962280000000  0.5369430000000 1.0
C      1  0.4628160000000  0.4962280000000  0.4636570000000 1.0
C      1  0.4812470000000  0.5183680000000  0.5185110000000 1.0
C      1  0.5176700000000  0.5183680000000  0.4820890000000 1.0
C      1  0.5176700000000  0.4819460000000  0.5185110000000 1.0
C      1  0.4812470000000  0.4819460000000  0.4820890000000 1.0
C      1  0.4994580000000  0.5001570000000  0.5003000000000 1.0
END
