TITL C-29619-2337-7 -124.674766845938 125000 -797.677293245574 0 0 118 (T23) n - 1
REM
REM in /rds/project/t2_vol4/rds-t2-cs072/BORA/CARBON/from-Arr/AIRSS/Generating-Clusters/GAP-ML-2020/Higher-Symm/SD-CG/HFTN-CG
REM
REM
REM
REM
REM
REM ./C.cell (b20cbc046b6831c77cfcea5457e17084)
REM AIRSS Version 0.9.1 bugfix July 2018 build 013d7b7c2542+ Fri, 06 Jul 2018 19:26:36 +0100
REM compiler GCC version 9.3.0
REM options -cpp -mtune=generic -march=x86-64 -g -O0
REM seed 2086711481 1203787811 527085963 -941383796 1394551120 -1578032064 -2050651902 -82010640 223146204 -654540622 304002453 -1260161041 -476658018 1946041614 -566540794 1245409642 -1124159186 1611871816 1804676389 733251187 -1641353115 -1498309561 1620197598 719840618 -734159171 -1121743553 -1845777602 1679578834 -1537641860 717622990 1852208198 -1326227712 -1152010142
REM
CELL 1.54180   50.00000   50.00000   50.00000   90.00000   90.00000   90.00000
LATT -1
SFAC C  
C      1  0.5427080000000  0.5268660000000  0.5828960000000 1.0
C      1  0.5269900000000  0.5833980000000  0.5421030000000 1.0
C      1  0.5835120000000  0.5425950000000  0.5263760000000 1.0
C      1  0.4564400000000  0.4721600000000  0.5828730000000 1.0
C      1  0.5427460000000  0.4721010000000  0.4151010000000 1.0
C      1  0.4565210000000  0.5268740000000  0.4150620000000 1.0
C      1  0.4721860000000  0.4156160000000  0.5421090000000 1.0
C      1  0.5269560000000  0.4155810000000  0.4558820000000 1.0
C      1  0.4722820000000  0.5834060000000  0.4558370000000 1.0
C      1  0.4156760000000  0.4564130000000  0.5263290000000 1.0
C      1  0.5834980000000  0.4563400000000  0.4716500000000 1.0
C      1  0.4157290000000  0.5426520000000  0.4715770000000 1.0
C      1  0.5020780000000  0.4479690000000  0.5278280000000 1.0
C      1  0.4480790000000  0.5283570000000  0.5014650000000 1.0
C      1  0.5284590000000  0.5019860000000  0.4474580000000 1.0
C      1  0.4971080000000  0.5510400000000  0.5278100000000 1.0
C      1  0.5021390000000  0.5510300000000  0.4701400000000 1.0
C      1  0.4970890000000  0.4479620000000  0.4701540000000 1.0
C      1  0.5511270000000  0.4706440000000  0.5015110000000 1.0
C      1  0.4480580000000  0.4706830000000  0.4964640000000 1.0
C      1  0.5511510000000  0.5283160000000  0.4964920000000 1.0
C      1  0.4707850000000  0.4969980000000  0.4474380000000 1.0
C      1  0.5284210000000  0.4969920000000  0.5505290000000 1.0
C      1  0.4707500000000  0.5020240000000  0.5505070000000 1.0
C      1  0.4721950000000  0.4912710000000  0.5970950000000 1.0
C      1  0.4913970000000  0.5976190000000  0.4715950000000 1.0
C      1  0.5977160000000  0.4720910000000  0.4907680000000 1.0
C      1  0.5269420000000  0.5077590000000  0.5971120000000 1.0
C      1  0.4722720000000  0.5077500000000  0.4008520000000 1.0
C      1  0.5270060000000  0.4912200000000  0.4008740000000 1.0
C      1  0.5078300000000  0.4013720000000  0.4716310000000 1.0
C      1  0.4913010000000  0.4013870000000  0.5263650000000 1.0
C      1  0.5078860000000  0.5976210000000  0.5263410000000 1.0
C      1  0.4014970000000  0.5269070000000  0.4906890000000 1.0
C      1  0.5977310000000  0.5268330000000  0.5072680000000 1.0
C      1  0.4014700000000  0.4721690000000  0.5072060000000 1.0
C      1  0.4232360000000  0.4796670000000  0.5438580000000 1.0
C      1  0.4797790000000  0.5443960000000  0.4226250000000 1.0
C      1  0.5444810000000  0.4231360000000  0.4791410000000 1.0
C      1  0.5759390000000  0.5193470000000  0.5439070000000 1.0
C      1  0.4232840000000  0.5193930000000  0.4540530000000 1.0
C      1  0.5759560000000  0.4795940000000  0.4541130000000 1.0
C      1  0.5194830000000  0.4545810000000  0.4226530000000 1.0
C      1  0.4796890000000  0.4546200000000  0.5753260000000 1.0
C      1  0.5194630000000  0.5444040000000  0.5753270000000 1.0
C      1  0.4547400000000  0.5758580000000  0.4790850000000 1.0
C      1  0.5445260000000  0.5758290000000  0.5188570000000 1.0
C      1  0.4546670000000  0.4231770000000  0.5188480000000 1.0
C      1  0.5607030000000  0.4457640000000  0.4845810000000 1.0
C      1  0.4458660000000  0.4850980000000  0.5600810000000 1.0
C      1  0.4852150000000  0.5606120000000  0.4452580000000 1.0
C      1  0.4385150000000  0.5532320000000  0.4845210000000 1.0
C      1  0.5607340000000  0.5531890000000  0.5134280000000 1.0
C      1  0.4384630000000  0.4458160000000  0.5134010000000 1.0
C      1  0.5532970000000  0.5139210000000  0.5601150000000 1.0
C      1  0.4459210000000  0.5139430000000  0.4378460000000 1.0
C      1  0.5533300000000  0.4850380000000  0.4378890000000 1.0
C      1  0.5140310000000  0.4383710000000  0.4452870000000 1.0
C      1  0.4851290000000  0.4383990000000  0.5526970000000 1.0
C      1  0.5140400000000  0.5606180000000  0.5526890000000 1.0
C      1  0.4077180000000  0.4728350000000  0.4791700000000 1.0
C      1  0.4729310000000  0.4797130000000  0.4070940000000 1.0
C      1  0.4797940000000  0.4076210000000  0.4722920000000 1.0
C      1  0.5915040000000  0.5261590000000  0.4792280000000 1.0
C      1  0.4077240000000  0.5262360000000  0.5187300000000 1.0
C      1  0.5914690000000  0.4727700000000  0.5188030000000 1.0
C      1  0.5263420000000  0.5192590000000  0.4071070000000 1.0
C      1  0.4728810000000  0.5193080000000  0.5908530000000 1.0
C      1  0.5262610000000  0.4797200000000  0.5908780000000 1.0
C      1  0.5194320000000  0.5913710000000  0.4722780000000 1.0
C      1  0.4798460000000  0.5913950000000  0.5256590000000 1.0
C      1  0.5193420000000  0.4076140000000  0.5257020000000 1.0
C      1  0.4994790000000  0.5229040000000  0.5192060000000 1.0
C      1  0.5230120000000  0.5197180000000  0.4988610000000 1.0
C      1  0.5198220000000  0.4993690000000  0.5223910000000 1.0
C      1  0.4997140000000  0.4761020000000  0.5192130000000 1.0
C      1  0.4994750000000  0.4760960000000  0.4787590000000 1.0
C      1  0.4997470000000  0.5228980000000  0.4787520000000 1.0
C      1  0.4761950000000  0.4792820000000  0.4988510000000 1.0
C      1  0.5229960000000  0.4792640000000  0.4991210000000 1.0
C      1  0.4762110000000  0.5197360000000  0.4990980000000 1.0
C      1  0.4793680000000  0.4996380000000  0.5223760000000 1.0
C      1  0.5198390000000  0.4996160000000  0.4755890000000 1.0
C      1  0.4793850000000  0.4993770000000  0.4755750000000 1.0
C      1  0.5225650000000  0.5860680000000  0.5017890000000 1.0
C      1  0.5861720000000  0.5022810000000  0.5219430000000 1.0
C      1  0.5023930000000  0.5224410000000  0.5855560000000 1.0
C      1  0.4766400000000  0.4129340000000  0.5017990000000 1.0
C      1  0.5225000000000  0.4129150000000  0.4961930000000 1.0
C      1  0.4767090000000  0.5860840000000  0.4961500000000 1.0
C      1  0.4130190000000  0.4967260000000  0.5218820000000 1.0
C      1  0.5861870000000  0.4966520000000  0.4760850000000 1.0
C      1  0.4130370000000  0.5023410000000  0.4760220000000 1.0
C      1  0.4967530000000  0.4765850000000  0.5855610000000 1.0
C      1  0.5024370000000  0.4765570000000  0.4124120000000 1.0
C      1  0.4968320000000  0.5224170000000  0.4124020000000 1.0
C      1  0.5385210000000  0.5268580000000  0.4331850000000 1.0
C      1  0.5269470000000  0.4336880000000  0.5378860000000 1.0
C      1  0.4338010000000  0.5384130000000  0.5263360000000 1.0
C      1  0.4607330000000  0.4721220000000  0.4331650000000 1.0
C      1  0.5384530000000  0.4721120000000  0.5648090000000 1.0
C      1  0.4607070000000  0.5269080000000  0.5647730000000 1.0
C      1  0.4722320000000  0.5653240000000  0.5378460000000 1.0
C      1  0.5270260000000  0.5652910000000  0.4600990000000 1.0
C      1  0.4722090000000  0.4336970000000  0.4601000000000 1.0
C      1  0.5653870000000  0.4605950000000  0.5263950000000 1.0
C      1  0.4337910000000  0.4606380000000  0.4715820000000 1.0
C      1  0.5654360000000  0.5383540000000  0.4716180000000 1.0
C      1  0.4996270000000  0.4994900000000  0.4326990000000 1.0
C      1  0.4995780000000  0.4332160000000  0.4989930000000 1.0
C      1  0.4995800000000  0.4995100000000  0.5652670000000 1.0
C      1  0.4996290000000  0.5657840000000  0.4989730000000 1.0
C      1  0.4333190000000  0.4995260000000  0.4989590000000 1.0
C      1  0.5658880000000  0.4994740000000  0.4990070000000 1.0
C      1  0.4501480000000  0.4500570000000  0.4495180000000 1.0
C      1  0.4501500000000  0.5489810000000  0.5484120000000 1.0
C      1  0.5490210000000  0.4500340000000  0.5484630000000 1.0
C      1  0.5490950000000  0.5489280000000  0.4495380000000 1.0
END
