TITL C-29564-8705-7 -0.0505097406763649 125000 -429.431690571526 0 0 64 (C1) n - 1
REM
REM in /rds/project/t2_vol4/rds-t2-cs072/BORA/CARBON/from-Arr/AIRSS/Generating-Clusters/GAP-ML-2020/Higher-Symm/SD-CG/HFTN-CG
REM
REM
REM
REM
REM
REM ./C.cell (b20cbc046b6831c77cfcea5457e17084)
REM AIRSS Version 0.9.1 bugfix July 2018 build 013d7b7c2542+ Fri, 06 Jul 2018 19:26:36 +0100
REM compiler GCC version 9.3.0
REM options -cpp -mtune=generic -march=x86-64 -g -O0
REM seed 1357627660 -2012581904 2108417419 838729598 2051832002 1853529111 -1754428288 692075526 494255954 1879813482 1113240408 373196000 -1826659304 1462781577 -1175698908 -1551729915 22242734 -165016053 -1767334069 36528251 -1323932899 -1633613887 2025165340 897311389 370806578 65669526 -1573146924 -102701921 708494199 -1060713331 -1145969159 -656090699 948959919
REM
CELL 1.54180   50.00000   50.00000   50.00000   90.00000   90.00000   90.00000
LATT -1
SFAC C  
C      1  0.5233940000000  0.5020470000000  0.4334500000000 1.0
C      1  0.4404700000000  0.5295260000000  0.5128590000000 1.0
C      1  0.5080120000000  0.4437700000000  0.5280410000000 1.0
C      1  0.4719690000000  0.5082170000000  0.5637090000000 1.0
C      1  0.5257010000000  0.4950450000000  0.5655370000000 1.0
C      1  0.4682990000000  0.4902290000000  0.4406420000000 1.0
C      1  0.5628590000000  0.5242130000000  0.4940360000000 1.0
C      1  0.4341630000000  0.4763250000000  0.4952940000000 1.0
C      1  0.5607480000000  0.4699730000000  0.5036160000000 1.0
C      1  0.4928690000000  0.4363780000000  0.4721250000000 1.0
C      1  0.5132540000000  0.5541790000000  0.4697260000000 1.0
C      1  0.4954300000000  0.5592020000000  0.5197000000000 1.0
C      1  0.5428550000000  0.5181460000000  0.4474880000000 1.0
C      1  0.4532480000000  0.5413250000000  0.5364040000000 1.0
C      1  0.5220780000000  0.4559030000000  0.5512070000000 1.0
C      1  0.4484360000000  0.5172190000000  0.5523180000000 1.0
C      1  0.5428120000000  0.4774460000000  0.5502270000000 1.0
C      1  0.4498960000000  0.4816920000000  0.4592860000000 1.0
C      1  0.5570990000000  0.5493540000000  0.4874130000000 1.0
C      1  0.4494950000000  0.4587110000000  0.4784090000000 1.0
C      1  0.5519830000000  0.4457010000000  0.5100210000000 1.0
C      1  0.4846110000000  0.4448470000000  0.4477750000000 1.0
C      1  0.5237800000000  0.5405840000000  0.4462280000000 1.0
C      1  0.4797020000000  0.5493330000000  0.5428890000000 1.0
C      1  0.5531120000000  0.4896640000000  0.5253720000000 1.0
C      1  0.5333360000000  0.5607960000000  0.4920640000000 1.0
C      1  0.4912600000000  0.5297030000000  0.5600410000000 1.0
C      1  0.4353760000000  0.4990420000000  0.4768530000000 1.0
C      1  0.5524880000000  0.5051260000000  0.4724700000000 1.0
C      1  0.4360010000000  0.5058400000000  0.5298830000000 1.0
C      1  0.4806330000000  0.5689130000000  0.4970640000000 1.0
C      1  0.5273300000000  0.4359690000000  0.5055710000000 1.0
C      1  0.4737380000000  0.4460810000000  0.4923860000000 1.0
C      1  0.5043050000000  0.5238660000000  0.4321800000000 1.0
C      1  0.4886150000000  0.4695390000000  0.4385650000000 1.0
C      1  0.5056580000000  0.4738180000000  0.5675040000000 1.0
C      1  0.5550720000000  0.4759130000000  0.4761050000000 1.0
C      1  0.4827830000000  0.5599010000000  0.4716560000000 1.0
C      1  0.4794420000000  0.4795480000000  0.5571920000000 1.0
C      1  0.4454270000000  0.4800200000000  0.5209860000000 1.0
C      1  0.5572550000000  0.5190630000000  0.5216720000000 1.0
C      1  0.4467730000000  0.5255480000000  0.4841380000000 1.0
C      1  0.5252510000000  0.5579330000000  0.5198460000000 1.0
C      1  0.4766790000000  0.4426320000000  0.5233240000000 1.0
C      1  0.5208540000000  0.4397610000000  0.4776390000000 1.0
C      1  0.5157950000000  0.4776770000000  0.4460060000000 1.0
C      1  0.4779230000000  0.5195400000000  0.4443920000000 1.0
C      1  0.5191880000000  0.5210940000000  0.5539810000000 1.0
C      1  0.4728280000000  0.5156400000000  0.4958780000000 1.0
C      1  0.4895540000000  0.4718620000000  0.4934490000000 1.0
C      1  0.5038650000000  0.4872750000000  0.4727440000000 1.0
C      1  0.5265380000000  0.4935740000000  0.5129400000000 1.0
C      1  0.4717880000000  0.4905130000000  0.5089180000000 1.0
C      1  0.5261610000000  0.5029760000000  0.4862020000000 1.0
C      1  0.5078880000000  0.4706670000000  0.5158890000000 1.0
C      1  0.4957370000000  0.5304370000000  0.5090350000000 1.0
C      1  0.5102150000000  0.5282800000000  0.4837160000000 1.0
C      1  0.4897350000000  0.4896500000000  0.5314380000000 1.0
C      1  0.5078310000000  0.5118120000000  0.5278930000000 1.0
C      1  0.4888350000000  0.5116180000000  0.4706260000000 1.0
C      1  0.4636760000000  0.5411370000000  0.4612330000000 1.0
C      1  0.4617790000000  0.4602310000000  0.5388040000000 1.0
C      1  0.5350830000000  0.4599610000000  0.4625020000000 1.0
C      1  0.5378160000000  0.5365920000000  0.5352300000000 1.0
END
