TITL C-29630-2589-6 231.227600918275 125000 -840.280594992075 0 0 118 (C1) n - 1
REM
REM in /rds/project/t2_vol4/rds-t2-cs072/BORA/CARBON/from-Arr/AIRSS/Generating-Clusters/GAP-ML-2020/Higher-Symm/SD-CG/HFTN-CG
REM
REM
REM
REM
REM
REM ./C.cell (b20cbc046b6831c77cfcea5457e17084)
REM AIRSS Version 0.9.1 bugfix July 2018 build 013d7b7c2542+ Fri, 06 Jul 2018 19:26:36 +0100
REM compiler GCC version 9.3.0
REM options -cpp -mtune=generic -march=x86-64 -g -O0
REM seed 727232756 -877625104 1610579620 -707308848 793467328 -2048650423 -1761259756 880494010 -808160579 69060981 -1377978613 376714875 -206723664 761526420 1635077822 906905597 142539135 1743715633 1196866328 1622137284 1710428281 2098865954 679197461 1975415754 315774160 -804916289 -2108107854 -806318935 -1495306707 -164588203 1172849775 397676809 1907165496
REM
CELL 1.54180   50.00000   50.00000   50.00000   90.00000   90.00000   90.00000
LATT -1
SFAC C  
C      1  0.5697020000000  0.5433120000000  0.5177940000000 1.0
C      1  0.5680450000000  0.5366300000000  0.5480920000000 1.0
C      1  0.4195750000000  0.4941300000000  0.4640080000000 1.0
C      1  0.5210520000000  0.4513000000000  0.5768950000000 1.0
C      1  0.5059710000000  0.5093820000000  0.5351110000000 1.0
C      1  0.5519150000000  0.4617070000000  0.5412730000000 1.0
C      1  0.4524930000000  0.4799950000000  0.5766660000000 1.0
C      1  0.4323240000000  0.4464210000000  0.4732330000000 1.0
C      1  0.5288640000000  0.4602390000000  0.4783630000000 1.0
C      1  0.5374740000000  0.5304320000000  0.4895400000000 1.0
C      1  0.4643030000000  0.5285170000000  0.5326590000000 1.0
C      1  0.4985630000000  0.4633400000000  0.5909940000000 1.0
C      1  0.4195790000000  0.4827550000000  0.5374990000000 1.0
C      1  0.5700500000000  0.5267810000000  0.4520070000000 1.0
C      1  0.4799080000000  0.4764620000000  0.4096870000000 1.0
C      1  0.5154850000000  0.4268930000000  0.4499960000000 1.0
C      1  0.5527810000000  0.4345160000000  0.5318160000000 1.0
C      1  0.4333930000000  0.5380880000000  0.4943870000000 1.0
C      1  0.4638150000000  0.5923540000000  0.4989790000000 1.0
C      1  0.4914670000000  0.5488890000000  0.5696820000000 1.0
C      1  0.5440530000000  0.5438520000000  0.5671780000000 1.0
C      1  0.5088280000000  0.4778020000000  0.4571210000000 1.0
C      1  0.5695640000000  0.5641000000000  0.4931420000000 1.0
C      1  0.5466840000000  0.5773330000000  0.4835420000000 1.0
C      1  0.4696110000000  0.4930520000000  0.4744350000000 1.0
C      1  0.5312110000000  0.4568780000000  0.4182630000000 1.0
C      1  0.4664640000000  0.4975870000000  0.5260440000000 1.0
C      1  0.5714260000000  0.4333210000000  0.5106120000000 1.0
C      1  0.4724800000000  0.5313700000000  0.4223550000000 1.0
C      1  0.4501350000000  0.5128220000000  0.4269520000000 1.0
C      1  0.4445810000000  0.4424770000000  0.5476950000000 1.0
C      1  0.4772470000000  0.4866690000000  0.5013930000000 1.0
C      1  0.5272980000000  0.5548270000000  0.4755740000000 1.0
C      1  0.4866570000000  0.4197120000000  0.5559570000000 1.0
C      1  0.5236960000000  0.5061600000000  0.4873690000000 1.0
C      1  0.4588050000000  0.5092310000000  0.5760200000000 1.0
C      1  0.4711970000000  0.4583390000000  0.5829200000000 1.0
C      1  0.4536930000000  0.4307670000000  0.4618580000000 1.0
C      1  0.5477350000000  0.4985830000000  0.5661630000000 1.0
C      1  0.4233810000000  0.5108580000000  0.5365150000000 1.0
C      1  0.5284620000000  0.4837940000000  0.4093420000000 1.0
C      1  0.5224790000000  0.5619580000000  0.5654750000000 1.0
C      1  0.4943920000000  0.5712270000000  0.4427780000000 1.0
C      1  0.4414570000000  0.4642800000000  0.4318670000000 1.0
C      1  0.4834400000000  0.5238470000000  0.5840550000000 1.0
C      1  0.4624750000000  0.5845360000000  0.4715900000000 1.0
C      1  0.5750500000000  0.4870650000000  0.5307430000000 1.0
C      1  0.5346490000000  0.5070230000000  0.5347890000000 1.0
C      1  0.4580350000000  0.5453880000000  0.5091590000000 1.0
C      1  0.5419620000000  0.4691950000000  0.5667870000000 1.0
C      1  0.5726140000000  0.5077230000000  0.5523210000000 1.0
C      1  0.5502600000000  0.4982610000000  0.4215780000000 1.0
C      1  0.5021110000000  0.4948600000000  0.4067600000000 1.0
C      1  0.4849540000000  0.4088310000000  0.5294040000000 1.0
C      1  0.4514420000000  0.5621800000000  0.4566120000000 1.0
C      1  0.4709850000000  0.4163280000000  0.4797130000000 1.0
C      1  0.4349260000000  0.4681780000000  0.5563960000000 1.0
C      1  0.4988550000000  0.5100330000000  0.5061080000000 1.0
C      1  0.5088730000000  0.4394840000000  0.4249310000000 1.0
C      1  0.4543780000000  0.4860770000000  0.4187230000000 1.0
C      1  0.5881060000000  0.4518970000000  0.5047460000000 1.0
C      1  0.4837370000000  0.5189170000000  0.4680660000000 1.0
C      1  0.4719830000000  0.5695930000000  0.5669960000000 1.0
C      1  0.4279890000000  0.4481000000000  0.5015920000000 1.0
C      1  0.4999350000000  0.4161790000000  0.4719270000000 1.0
C      1  0.4589450000000  0.4420400000000  0.4346490000000 1.0
C      1  0.5527820000000  0.4558090000000  0.4374690000000 1.0
C      1  0.5123500000000  0.4066080000000  0.5208950000000 1.0
C      1  0.5794370000000  0.5439990000000  0.4745110000000 1.0
C      1  0.4708140000000  0.5565370000000  0.4357800000000 1.0
C      1  0.5785940000000  0.5002220000000  0.4581040000000 1.0
C      1  0.5037960000000  0.4882460000000  0.5992550000000 1.0
C      1  0.4448210000000  0.5223370000000  0.5533450000000 1.0
C      1  0.4894700000000  0.6030540000000  0.5064010000000 1.0
C      1  0.4342480000000  0.5408660000000  0.4654110000000 1.0
C      1  0.4885220000000  0.4881260000000  0.5443920000000 1.0
C      1  0.5854710000000  0.5260750000000  0.4961710000000 1.0
C      1  0.4855790000000  0.5347260000000  0.4926060000000 1.0
C      1  0.4939760000000  0.5359490000000  0.5401820000000 1.0
C      1  0.4660440000000  0.4361740000000  0.5655850000000 1.0
C      1  0.5122260000000  0.4461410000000  0.4957170000000 1.0
C      1  0.4816190000000  0.4735780000000  0.4592550000000 1.0
C      1  0.4825910000000  0.4486140000000  0.4188020000000 1.0
C      1  0.5407260000000  0.5343300000000  0.5186470000000 1.0
C      1  0.4142190000000  0.4947180000000  0.4924690000000 1.0
C      1  0.5388380000000  0.4822640000000  0.4942820000000 1.0
C      1  0.5468060000000  0.4834820000000  0.5220300000000 1.0
C      1  0.5173490000000  0.5766530000000  0.5409240000000 1.0
C      1  0.4314850000000  0.5171180000000  0.4495850000000 1.0
C      1  0.5910540000000  0.4794500000000  0.5068650000000 1.0
C      1  0.4924180000000  0.4613430000000  0.5092700000000 1.0
C      1  0.5234750000000  0.5368530000000  0.4267070000000 1.0
C      1  0.5890000000000  0.4997090000000  0.4858630000000 1.0
C      1  0.4163900000000  0.4726370000000  0.5105280000000 1.0
C      1  0.5305920000000  0.4181570000000  0.5401730000000 1.0
C      1  0.5051800000000  0.5553800000000  0.4950520000000 1.0
C      1  0.4647080000000  0.4157790000000  0.5093950000000 1.0
C      1  0.5093640000000  0.5134550000000  0.5926590000000 1.0
C      1  0.4957520000000  0.5939900000000  0.5335420000000 1.0
C      1  0.5180160000000  0.5568610000000  0.4458470000000 1.0
C      1  0.5058060000000  0.6029580000000  0.4823870000000 1.0
C      1  0.5400740000000  0.4410560000000  0.4583570000000 1.0
C      1  0.4435180000000  0.4328050000000  0.5204400000000 1.0
C      1  0.4203770000000  0.5175840000000  0.5083270000000 1.0
C      1  0.4256020000000  0.4677660000000  0.4548780000000 1.0
C      1  0.5497300000000  0.5251650000000  0.4302930000000 1.0
C      1  0.4710420000000  0.5821250000000  0.5432490000000 1.0
C      1  0.5107800000000  0.5056990000000  0.4619070000000 1.0
C      1  0.5655860000000  0.4817460000000  0.4391290000000 1.0
C      1  0.4570780000000  0.5740160000000  0.5191430000000 1.0
C      1  0.4884450000000  0.5909510000000  0.4620950000000 1.0
C      1  0.4994450000000  0.5223090000000  0.4146910000000 1.0
C      1  0.5334620000000  0.6008830000000  0.4822270000000 1.0
C      1  0.5355380000000  0.5200680000000  0.5814400000000 1.0
C      1  0.4961840000000  0.4631860000000  0.5359760000000 1.0
C      1  0.5148450000000  0.4271890000000  0.5621440000000 1.0
C      1  0.5150050000000  0.5530920000000  0.5233020000000 1.0
C      1  0.5157690000000  0.4172840000000  0.4953970000000 1.0
END
