TITL C-29568-9544-2 0.0747129973816985 125000 -661.21205718695 0 0 93 (C1) n - 1
REM
REM in /rds/project/t2_vol4/rds-t2-cs072/BORA/CARBON/from-Arr/AIRSS/Generating-Clusters/GAP-ML-2020/Higher-Symm/SD-CG/HFTN-CG
REM
REM
REM
REM
REM
REM ./C.cell (b20cbc046b6831c77cfcea5457e17084)
REM AIRSS Version 0.9.1 bugfix July 2018 build 013d7b7c2542+ Fri, 06 Jul 2018 19:26:36 +0100
REM compiler GCC version 9.3.0
REM options -cpp -mtune=generic -march=x86-64 -g -O0
REM seed -599057888 564803286 -1473282848 1620661401 1037409443 1923544293 -1333626005 1192462331 105120035 -1859447475 -1432727177 678390023 1767195311 997467100 503785921 -1775507403 -88362252 -548365954 -594815687 -1648445008 1165206783 -357730910 -1715114408 -125401975 418554653 -1405088166 1807041157 339871405 -270477472 546610446 -2117701502 -275737450 451869097
REM
CELL 1.54180   50.00000   50.00000   50.00000   90.00000   90.00000   90.00000
LATT -1
SFAC C  
C      1  0.4804680000000  0.4922640000000  0.4805250000000 1.0
C      1  0.4895630000000  0.4725950000000  0.4995800000000 1.0
C      1  0.4960510000000  0.4841120000000  0.5258270000000 1.0
C      1  0.4906200000000  0.5128980000000  0.5266860000000 1.0
C      1  0.4838630000000  0.5235410000000  0.5011830000000 1.0
C      1  0.4500000000000  0.4515790000000  0.4464340000000 1.0
C      1  0.4504740000000  0.4355670000000  0.5289450000000 1.0
C      1  0.4518620000000  0.5062160000000  0.5762620000000 1.0
C      1  0.4478540000000  0.5660990000000  0.5172090000000 1.0
C      1  0.4505570000000  0.5361420000000  0.4315380000000 1.0
C      1  0.5624180000000  0.4825670000000  0.5596870000000 1.0
C      1  0.5638270000000  0.5502290000000  0.5371770000000 1.0
C      1  0.5607190000000  0.5483170000000  0.4659260000000 1.0
C      1  0.5640560000000  0.4782980000000  0.4443750000000 1.0
C      1  0.5638320000000  0.4385990000000  0.5032940000000 1.0
C      1  0.5409480000000  0.5229330000000  0.5726600000000 1.0
C      1  0.5396720000000  0.5748110000000  0.5072670000000 1.0
C      1  0.5436320000000  0.5256870000000  0.4281510000000 1.0
C      1  0.5419940000000  0.4379290000000  0.4594160000000 1.0
C      1  0.5406550000000  0.4367490000000  0.5427190000000 1.0
C      1  0.5141050000000  0.4949890000000  0.4371340000000 1.0
C      1  0.5126830000000  0.4607310000000  0.4880210000000 1.0
C      1  0.5147870000000  0.4536130000000  0.5795400000000 1.0
C      1  0.5144560000000  0.5282240000000  0.5312720000000 1.0
C      1  0.5131090000000  0.5582660000000  0.4737220000000 1.0
C      1  0.4903940000000  0.5802960000000  0.5076940000000 1.0
C      1  0.4939810000000  0.5307400000000  0.4170980000000 1.0
C      1  0.4928510000000  0.4330210000000  0.4539960000000 1.0
C      1  0.4931810000000  0.4271660000000  0.5453770000000 1.0
C      1  0.4942030000000  0.5244980000000  0.5831760000000 1.0
C      1  0.4929560000000  0.4188150000000  0.5179570000000 1.0
C      1  0.4947020000000  0.4958850000000  0.5878730000000 1.0
C      1  0.4910890000000  0.5727650000000  0.5357610000000 1.0
C      1  0.4929110000000  0.5552400000000  0.4317380000000 1.0
C      1  0.4942720000000  0.4525890000000  0.4330080000000 1.0
C      1  0.5624260000000  0.4569760000000  0.5455490000000 1.0
C      1  0.5634960000000  0.5286070000000  0.5550250000000 1.0
C      1  0.5613830000000  0.5608020000000  0.4918510000000 1.0
C      1  0.5622820000000  0.5071090000000  0.4422470000000 1.0
C      1  0.5649880000000  0.4438310000000  0.4757080000000 1.0
C      1  0.5425760000000  0.5501990000000  0.4423950000000 1.0
C      1  0.5425340000000  0.4578120000000  0.4389330000000 1.0
C      1  0.5403770000000  0.4269180000000  0.5160030000000 1.0
C      1  0.5415700000000  0.4945880000000  0.5766350000000 1.0
C      1  0.5402170000000  0.5665700000000  0.5344630000000 1.0
C      1  0.4676050000000  0.5175280000000  0.4189800000000 1.0
C      1  0.4646380000000  0.4319060000000  0.4604480000000 1.0
C      1  0.4670160000000  0.4391080000000  0.5516260000000 1.0
C      1  0.4661570000000  0.5307250000000  0.5781740000000 1.0
C      1  0.4633400000000  0.5745600000000  0.4947720000000 1.0
C      1  0.4536850000000  0.5634720000000  0.4691670000000 1.0
C      1  0.4570730000000  0.4914330000000  0.4269050000000 1.0
C      1  0.4525970000000  0.4319060000000  0.4858020000000 1.0
C      1  0.4581020000000  0.4641160000000  0.5622420000000 1.0
C      1  0.4532720000000  0.5470260000000  0.5587430000000 1.0
C      1  0.4350190000000  0.4562780000000  0.4901550000000 1.0
C      1  0.4376890000000  0.4762890000000  0.5436830000000 1.0
C      1  0.4340020000000  0.5308970000000  0.5435130000000 1.0
C      1  0.4325230000000  0.5417770000000  0.4710180000000 1.0
C      1  0.4357390000000  0.4948580000000  0.4474930000000 1.0
C      1  0.4322500000000  0.5235790000000  0.4488630000000 1.0
C      1  0.4335280000000  0.4691730000000  0.4629100000000 1.0
C      1  0.4344560000000  0.4589240000000  0.5199280000000 1.0
C      1  0.4346150000000  0.5037030000000  0.5531740000000 1.0
C      1  0.4320500000000  0.5418050000000  0.5175820000000 1.0
C      1  0.5172630000000  0.4359390000000  0.5590170000000 1.0
C      1  0.5169530000000  0.5387150000000  0.5722270000000 1.0
C      1  0.5152420000000  0.5778110000000  0.4942680000000 1.0
C      1  0.5184480000000  0.5162930000000  0.4193550000000 1.0
C      1  0.5157110000000  0.4327660000000  0.4733910000000 1.0
C      1  0.5758890000000  0.4559460000000  0.5217380000000 1.0
C      1  0.5752160000000  0.5041350000000  0.5482130000000 1.0
C      1  0.5757010000000  0.5483430000000  0.5119520000000 1.0
C      1  0.5716420000000  0.5231890000000  0.4626360000000 1.0
C      1  0.5778690000000  0.4665500000000  0.4652450000000 1.0
C      1  0.5146930000000  0.5563840000000  0.5463180000000 1.0
C      1  0.5168640000000  0.5616030000000  0.4460210000000 1.0
C      1  0.5181490000000  0.4675150000000  0.4302870000000 1.0
C      1  0.5167040000000  0.4201250000000  0.5015140000000 1.0
C      1  0.5186450000000  0.4800970000000  0.5852810000000 1.0
C      1  0.4683890000000  0.4840760000000  0.5808220000000 1.0
C      1  0.4635870000000  0.5671070000000  0.5414020000000 1.0
C      1  0.4657660000000  0.5577470000000  0.4432880000000 1.0
C      1  0.4676390000000  0.4645100000000  0.4283520000000 1.0
C      1  0.4649630000000  0.4218450000000  0.5091650000000 1.0
C      1  0.5094080000000  0.5285370000000  0.4846290000000 1.0
C      1  0.5073420000000  0.5020570000000  0.4679600000000 1.0
C      1  0.5269890000000  0.4842000000000  0.4827740000000 1.0
C      1  0.5234870000000  0.4814970000000  0.5291760000000 1.0
C      1  0.5291210000000  0.5230970000000  0.5072720000000 1.0
C      1  0.4616620000000  0.5114330000000  0.4900840000000 1.0
C      1  0.4346430000000  0.5258860000000  0.4939720000000 1.0
C      1  0.5357740000000  0.4955120000000  0.5071060000000 1.0
END
