TITL C-29611-2223-3 0.125314204285677 125000 -410.052064528602 0 0 59 (Cs) n - 1
REM
REM in /rds/project/t2_vol4/rds-t2-cs072/BORA/CARBON/from-Arr/AIRSS/Generating-Clusters/GAP-ML-2020/Higher-Symm/SD-CG/HFTN-CG
REM
REM
REM
REM
REM
REM ./C.cell (b20cbc046b6831c77cfcea5457e17084)
REM AIRSS Version 0.9.1 bugfix July 2018 build 013d7b7c2542+ Fri, 06 Jul 2018 19:26:36 +0100
REM compiler GCC version 9.3.0
REM options -cpp -mtune=generic -march=x86-64 -g -O0
REM seed -732780821 809412420 1349236330 1472473077 -1706670605 766935703 -1870410675 392140209 -808668973 354211575 1575230027 1716986896 -993476528 2084276530 324432582 -2045052748 -890874635 -1046288586 910065380 -1700099205 -690466338 1586614077 2076404298 -1488458339 35202069 -1983037864 1439754368 -1290312493 -318605217 -1153580395 -1073599061 -418710727 698945228
REM
CELL 1.54180   50.00000   50.00000   50.00000   90.00000   90.00000   90.00000
LATT -1
SFAC C  
C      1  0.4870150000000  0.5417030000000  0.5460590000000 1.0
C      1  0.5144470000000  0.5422580000000  0.5512610000000 1.0
C      1  0.5395980000000  0.5441140000000  0.5351900000000 1.0
C      1  0.5498330000000  0.5451160000000  0.5093010000000 1.0
C      1  0.5438610000000  0.5456360000000  0.4793410000000 1.0
C      1  0.5253020000000  0.5457160000000  0.4586130000000 1.0
C      1  0.4961800000000  0.5453460000000  0.4493770000000 1.0
C      1  0.4693180000000  0.5444160000000  0.4566950000000 1.0
C      1  0.4505690000000  0.5425320000000  0.4799160000000 1.0
C      1  0.4527170000000  0.5418500000000  0.5077520000000 1.0
C      1  0.4793650000000  0.5440240000000  0.5184090000000 1.0
C      1  0.4383090000000  0.4742860000000  0.5208950000000 1.0
C      1  0.4439370000000  0.4788740000000  0.5498780000000 1.0
C      1  0.4721070000000  0.4741410000000  0.5586430000000 1.0
C      1  0.5268010000000  0.4748320000000  0.5674540000000 1.0
C      1  0.5512140000000  0.4753870000000  0.5522620000000 1.0
C      1  0.5708810000000  0.4767150000000  0.5034330000000 1.0
C      1  0.5655770000000  0.4771780000000  0.4756140000000 1.0
C      1  0.5311360000000  0.4773260000000  0.4371470000000 1.0
C      1  0.5040680000000  0.4770020000000  0.4288110000000 1.0
C      1  0.4533660000000  0.4758060000000  0.4429770000000 1.0
C      1  0.4355770000000  0.4752240000000  0.4655660000000 1.0
C      1  0.4282670000000  0.4982640000000  0.5069570000000 1.0
C      1  0.4628900000000  0.4927700000000  0.5329620000000 1.0
C      1  0.4849460000000  0.4980210000000  0.5702610000000 1.0
C      1  0.5128100000000  0.4982470000000  0.5751290000000 1.0
C      1  0.5636960000000  0.4995810000000  0.5448970000000 1.0
C      1  0.5748600000000  0.5004210000000  0.5184780000000 1.0
C      1  0.5640890000000  0.5014140000000  0.4613840000000 1.0
C      1  0.5452080000000  0.5014950000000  0.4402970000000 1.0
C      1  0.4896440000000  0.5007870000000  0.4233010000000 1.0
C      1  0.4621530000000  0.5000160000000  0.4314850000000 1.0
C      1  0.4264980000000  0.4986170000000  0.4787280000000 1.0
C      1  0.4975720000000  0.4551360000000  0.4478960000000 1.0
C      1  0.4706920000000  0.4547090000000  0.4554700000000 1.0
C      1  0.4518040000000  0.4546890000000  0.4787900000000 1.0
C      1  0.4524940000000  0.4527450000000  0.5068380000000 1.0
C      1  0.4780700000000  0.4469320000000  0.5191950000000 1.0
C      1  0.4875580000000  0.4525940000000  0.5460010000000 1.0
C      1  0.5153670000000  0.4544160000000  0.5497820000000 1.0
C      1  0.5406240000000  0.4544090000000  0.5335770000000 1.0
C      1  0.5511130000000  0.4549060000000  0.5076970000000 1.0
C      1  0.5453580000000  0.4552040000000  0.4776670000000 1.0
C      1  0.5267860000000  0.4552840000000  0.4569240000000 1.0
C      1  0.5034470000000  0.5249440000000  0.4289800000000 1.0
C      1  0.4523670000000  0.5234600000000  0.4434640000000 1.0
C      1  0.4344030000000  0.5226370000000  0.4659330000000 1.0
C      1  0.4367290000000  0.5221600000000  0.5217710000000 1.0
C      1  0.4476080000000  0.5138320000000  0.5467260000000 1.0
C      1  0.4712450000000  0.5220120000000  0.5603210000000 1.0
C      1  0.5264890000000  0.5222420000000  0.5687830000000 1.0
C      1  0.5508020000000  0.5230380000000  0.5534050000000 1.0
C      1  0.5708280000000  0.5246550000000  0.5042370000000 1.0
C      1  0.5654830000000  0.5251890000000  0.4763450000000 1.0
C      1  0.5305820000000  0.5253390000000  0.4373650000000 1.0
C      1  0.5035410000000  0.5074730000000  0.4966230000000 1.0
C      1  0.4974630000000  0.4558800000000  0.5018660000000 1.0
C      1  0.5018170000000  0.4822700000000  0.4980690000000 1.0
C      1  0.4986210000000  0.5347090000000  0.5011320000000 1.0
END
