TITL C-29544-8504-3 7.56391602512311 125000 -1096.68249656193 0 0 155 (C1) n - 1
REM
REM in /rds/project/t2_vol4/rds-t2-cs072/BORA/CARBON/from-Arr/AIRSS/Generating-Clusters/GAP-ML-2020/Higher-Symm/SD-CG/HFTN-CG
REM
REM
REM
REM
REM
REM ./C.cell (b20cbc046b6831c77cfcea5457e17084)
REM AIRSS Version 0.9.1 bugfix July 2018 build 013d7b7c2542+ Fri, 06 Jul 2018 19:26:36 +0100
REM compiler GCC version 9.3.0
REM options -cpp -mtune=generic -march=x86-64 -g -O0
REM seed -196712196 -363690692 -1949852446 -153886458 1173906014 1870401505 1311922503 -2029338193 1619657395 -230619741 197095568 1130773659 1392970991 576140176 -1602433552 825553182 -852271492 -903025026 -1854619027 457124088 101384925 -81500337 -2113232678 2035568356 -979801481 -265782125 402997086 1014115491 -856213182 1892679750 -1193528565 -1408805871 2007764294
REM
CELL 1.54180   50.00000   50.00000   50.00000   90.00000   90.00000   90.00000
LATT -1
SFAC C  
C      1  0.5159210000000  0.4361670000000  0.5100580000000 1.0
C      1  0.5447710000000  0.4678460000000  0.5116120000000 1.0
C      1  0.5553790000000  0.5075230000000  0.5126630000000 1.0
C      1  0.5340740000000  0.5445650000000  0.5137920000000 1.0
C      1  0.4872140000000  0.5544720000000  0.5073940000000 1.0
C      1  0.4750190000000  0.5303410000000  0.5204520000000 1.0
C      1  0.4486630000000  0.5273370000000  0.5059630000000 1.0
C      1  0.4589680000000  0.4836010000000  0.5146390000000 1.0
C      1  0.4719980000000  0.4436260000000  0.5126420000000 1.0
C      1  0.5281200000000  0.6056410000000  0.4777670000000 1.0
C      1  0.4587410000000  0.5893880000000  0.4805850000000 1.0
C      1  0.3982480000000  0.5509020000000  0.4664080000000 1.0
C      1  0.3958150000000  0.4806300000000  0.4800850000000 1.0
C      1  0.4370220000000  0.4173990000000  0.4846140000000 1.0
C      1  0.5076490000000  0.3901390000000  0.4795070000000 1.0
C      1  0.5756240000000  0.4205460000000  0.4813080000000 1.0
C      1  0.6074260000000  0.4890150000000  0.4836660000000 1.0
C      1  0.5878160000000  0.5615570000000  0.4825050000000 1.0
C      1  0.5318960000000  0.5333860000000  0.5421240000000 1.0
C      1  0.5065750000000  0.5426120000000  0.5566220000000 1.0
C      1  0.4792170000000  0.5286900000000  0.5500640000000 1.0
C      1  0.4628000000000  0.5022060000000  0.5602380000000 1.0
C      1  0.4628090000000  0.4778110000000  0.5436180000000 1.0
C      1  0.4829510000000  0.4542360000000  0.5395200000000 1.0
C      1  0.5117970000000  0.4497980000000  0.5367770000000 1.0
C      1  0.5311420000000  0.4738170000000  0.5365280000000 1.0
C      1  0.5414850000000  0.5043290000000  0.5383610000000 1.0
C      1  0.5560740000000  0.4864850000000  0.4951380000000 1.0
C      1  0.5485800000000  0.5283850000000  0.4962450000000 1.0
C      1  0.5126310000000  0.5502710000000  0.4973040000000 1.0
C      1  0.4709770000000  0.5609330000000  0.4837220000000 1.0
C      1  0.4467740000000  0.5428630000000  0.4820010000000 1.0
C      1  0.4472710000000  0.5014520000000  0.4955110000000 1.0
C      1  0.4556460000000  0.4608520000000  0.4962760000000 1.0
C      1  0.4924420000000  0.4341440000000  0.4939330000000 1.0
C      1  0.5337890000000  0.4499770000000  0.4941440000000 1.0
C      1  0.4457760000000  0.5360270000000  0.4323610000000 1.0
C      1  0.4316840000000  0.4929820000000  0.4275020000000 1.0
C      1  0.4551360000000  0.4561480000000  0.4414850000000 1.0
C      1  0.4950200000000  0.4360580000000  0.4419050000000 1.0
C      1  0.5377460000000  0.4480130000000  0.4419320000000 1.0
C      1  0.5612780000000  0.4853400000000  0.4436960000000 1.0
C      1  0.5554720000000  0.5292730000000  0.4429360000000 1.0
C      1  0.5275820000000  0.5632000000000  0.4310370000000 1.0
C      1  0.4821340000000  0.5624320000000  0.4345810000000 1.0
C      1  0.5271620000000  0.5893590000000  0.5429440000000 1.0
C      1  0.4790070000000  0.5886730000000  0.5434600000000 1.0
C      1  0.4389920000000  0.5421450000000  0.5661180000000 1.0
C      1  0.4108070000000  0.5074360000000  0.5427070000000 1.0
C      1  0.4329140000000  0.4360810000000  0.5490350000000 1.0
C      1  0.5001060000000  0.4033190000000  0.5469670000000 1.0
C      1  0.5498420000000  0.4174720000000  0.5463590000000 1.0
C      1  0.5889650000000  0.4790030000000  0.5489390000000 1.0
C      1  0.5793300000000  0.5436080000000  0.5509100000000 1.0
C      1  0.3918300000000  0.5081010000000  0.4760230000000 1.0
C      1  0.4247450000000  0.4441790000000  0.4865480000000 1.0
C      1  0.4816770000000  0.4026690000000  0.4846700000000 1.0
C      1  0.5536340000000  0.4021880000000  0.4794650000000 1.0
C      1  0.6007490000000  0.4610210000000  0.4836100000000 1.0
C      1  0.6014650000000  0.5364110000000  0.4833160000000 1.0
C      1  0.5541930000000  0.5942810000000  0.4801710000000 1.0
C      1  0.4815030000000  0.6066220000000  0.4766350000000 1.0
C      1  0.4224410000000  0.5633830000000  0.4754800000000 1.0
C      1  0.5182150000000  0.6185000000000  0.5011590000000 1.0
C      1  0.4425390000000  0.5886690000000  0.5088940000000 1.0
C      1  0.3784680000000  0.5509300000000  0.4866840000000 1.0
C      1  0.3941820000000  0.4727440000000  0.5074750000000 1.0
C      1  0.4418030000000  0.4043580000000  0.5096730000000 1.0
C      1  0.5191720000000  0.3804590000000  0.5034930000000 1.0
C      1  0.5855930000000  0.4237700000000  0.5082240000000 1.0
C      1  0.6145520000000  0.5002610000000  0.5092660000000 1.0
C      1  0.5853720000000  0.5744240000000  0.5085520000000 1.0
C      1  0.4844740000000  0.5445470000000  0.4606520000000 1.0
C      1  0.4605230000000  0.5268400000000  0.4595100000000 1.0
C      1  0.4675080000000  0.5002860000000  0.4723760000000 1.0
C      1  0.4693650000000  0.4697830000000  0.4687080000000 1.0
C      1  0.4954050000000  0.4541960000000  0.4691110000000 1.0
C      1  0.5245530000000  0.4633490000000  0.4690360000000 1.0
C      1  0.5411730000000  0.4895370000000  0.4689520000000 1.0
C      1  0.5355430000000  0.5196080000000  0.4692620000000 1.0
C      1  0.5076100000000  0.5298200000000  0.4749280000000 1.0
C      1  0.4890610000000  0.5401210000000  0.4152720000000 1.0
C      1  0.4661820000000  0.5232000000000  0.4140890000000 1.0
C      1  0.4584800000000  0.4950990000000  0.4147760000000 1.0
C      1  0.4716840000000  0.4703480000000  0.4206610000000 1.0
C      1  0.4973490000000  0.4587420000000  0.4220450000000 1.0
C      1  0.5245650000000  0.4665200000000  0.4219930000000 1.0
C      1  0.5398760000000  0.4903630000000  0.4224930000000 1.0
C      1  0.5372270000000  0.5184450000000  0.4214620000000 1.0
C      1  0.5178710000000  0.5390320000000  0.4169240000000 1.0
C      1  0.4015730000000  0.5242250000000  0.4543940000000 1.0
C      1  0.4133680000000  0.4625180000000  0.4658050000000 1.0
C      1  0.4595080000000  0.4125730000000  0.4671830000000 1.0
C      1  0.5285390000000  0.4030890000000  0.4634410000000 1.0
C      1  0.5830400000000  0.4448650000000  0.4661000000000 1.0
C      1  0.5979220000000  0.5118790000000  0.4671520000000 1.0
C      1  0.5669780000000  0.5728970000000  0.4647210000000 1.0
C      1  0.5053670000000  0.5992310000000  0.4606530000000 1.0
C      1  0.4406310000000  0.5793280000000  0.4586430000000 1.0
C      1  0.4326820000000  0.5626670000000  0.5470760000000 1.0
C      1  0.4007570000000  0.5299520000000  0.5252430000000 1.0
C      1  0.4128260000000  0.4517090000000  0.5368770000000 1.0
C      1  0.4733090000000  0.4009540000000  0.5373640000000 1.0
C      1  0.5449660000000  0.3938210000000  0.5319340000000 1.0
C      1  0.5915000000000  0.4526240000000  0.5372150000000 1.0
C      1  0.5994820000000  0.5272620000000  0.5378000000000 1.0
C      1  0.5545770000000  0.5865520000000  0.5343290000000 1.0
C      1  0.4879220000000  0.6112490000000  0.5287080000000 1.0
C      1  0.5538100000000  0.5587140000000  0.4431370000000 1.0
C      1  0.5055530000000  0.5803530000000  0.4389720000000 1.0
C      1  0.4526370000000  0.5647980000000  0.4371780000000 1.0
C      1  0.4212070000000  0.5188640000000  0.4344450000000 1.0
C      1  0.4281040000000  0.4677910000000  0.4416890000000 1.0
C      1  0.4664520000000  0.4289980000000  0.4455220000000 1.0
C      1  0.5218610000000  0.4231720000000  0.4448000000000 1.0
C      1  0.5660590000000  0.4560890000000  0.4463400000000 1.0
C      1  0.5776600000000  0.5097700000000  0.4473260000000 1.0
C      1  0.4892730000000  0.6190460000000  0.5006400000000 1.0
C      1  0.4203060000000  0.5730730000000  0.5038750000000 1.0
C      1  0.3872560000000  0.5272900000000  0.4994480000000 1.0
C      1  0.4061050000000  0.4471140000000  0.5092060000000 1.0
C      1  0.4679850000000  0.3933850000000  0.5092630000000 1.0
C      1  0.5474040000000  0.3879240000000  0.5035530000000 1.0
C      1  0.6009980000000  0.4478350000000  0.5095580000000 1.0
C      1  0.6099230000000  0.5286530000000  0.5096840000000 1.0
C      1  0.5644450000000  0.5939600000000  0.5069300000000 1.0
C      1  0.4516050000000  0.5824170000000  0.5363580000000 1.0
C      1  0.4135520000000  0.5560470000000  0.5267510000000 1.0
C      1  0.4043050000000  0.4802470000000  0.5344410000000 1.0
C      1  0.4449640000000  0.4121650000000  0.5377400000000 1.0
C      1  0.5167790000000  0.3861910000000  0.5318520000000 1.0
C      1  0.5747410000000  0.4283350000000  0.5360460000000 1.0
C      1  0.6049890000000  0.4988720000000  0.5370930000000 1.0
C      1  0.5770830000000  0.5679720000000  0.5361930000000 1.0
C      1  0.5168350000000  0.6113500000000  0.5287920000000 1.0
C      1  0.4737150000000  0.5007840000000  0.5889300000000 1.0
C      1  0.4803390000000  0.4769380000000  0.5998360000000 1.0
C      1  0.4911330000000  0.4540690000000  0.5880250000000 1.0
C      1  0.5186870000000  0.4464920000000  0.5831520000000 1.0
C      1  0.5373230000000  0.4681330000000  0.5862400000000 1.0
C      1  0.5495640000000  0.4955970000000  0.5870390000000 1.0
C      1  0.5392220000000  0.5228750000000  0.5856930000000 1.0
C      1  0.5113090000000  0.5322930000000  0.5842770000000 1.0
C      1  0.4840360000000  0.5276580000000  0.5932140000000 1.0
C      1  0.4334960000000  0.5146550000000  0.5597600000000 1.0
C      1  0.4485430000000  0.4549140000000  0.5618490000000 1.0
C      1  0.4743000000000  0.4450640000000  0.5677250000000 1.0
C      1  0.5213650000000  0.4283800000000  0.5574800000000 1.0
C      1  0.5474520000000  0.4670200000000  0.5600380000000 1.0
C      1  0.5639570000000  0.4910040000000  0.5602860000000 1.0
C      1  0.5530850000000  0.5382280000000  0.5629530000000 1.0
C      1  0.5039460000000  0.5735930000000  0.5521050000000 1.0
C      1  0.4666010000000  0.5426850000000  0.5742420000000 1.0
C      1  0.4873780000000  0.5035150000000  0.5125340000000 1.0
C      1  0.4940380000000  0.5054560000000  0.4851160000000 1.0
END
