TITL C-29632-2527-3 -0.0141700053386657 125000 -54.2482609787881 0 0 9 (C1) n - 1
REM
REM in /rds/project/t2_vol4/rds-t2-cs072/BORA/CARBON/from-Arr/AIRSS/Generating-Clusters/GAP-ML-2020/Higher-Symm/SD-CG/HFTN-CG
REM
REM
REM
REM
REM
REM ./C.cell (b20cbc046b6831c77cfcea5457e17084)
REM AIRSS Version 0.9.1 bugfix July 2018 build 013d7b7c2542+ Fri, 06 Jul 2018 19:26:36 +0100
REM compiler GCC version 9.3.0
REM options -cpp -mtune=generic -march=x86-64 -g -O0
REM seed -1413295838 -94924356 -401018421 -325054256 -1599769845 -1844227999 -82575797 2039158571 1189061519 1465559912 -1735408775 -883675016 113187649 -1809838655 -302892327 308123995 1411754649 1755421233 1595249163 1368248748 406251444 1994005145 1332799936 1498801278 1666170308 -11763092 -1304631519 -1121499719 1131018698 -743886295 -1160953777 1274215391 46669184
REM
CELL 1.54180   50.00000   50.00000   50.00000   90.00000   90.00000   90.00000
LATT -1
SFAC C  
C      1  0.4825810000000  0.5192180000000  0.4718100000000 1.0
C      1  0.5060300000000  0.5030970000000  0.4768140000000 1.0
C      1  0.5268720000000  0.5118350000000  0.4945230000000 1.0
C      1  0.5192330000000  0.5128070000000  0.5191780000000 1.0
C      1  0.4985050000000  0.5187330000000  0.5341920000000 1.0
C      1  0.4755570000000  0.5232750000000  0.5212860000000 1.0
C      1  0.4735940000000  0.5223750000000  0.4958870000000 1.0
C      1  0.5031120000000  0.4766750000000  0.4811490000000 1.0
C      1  0.5081550000000  0.4630040000000  0.5012520000000 1.0
END
