TITL C-29567-9200-7 -76.405987269589 125000 -649.150572787642 0 0 91 (C1) n - 1
REM
REM in /rds/project/t2_vol4/rds-t2-cs072/BORA/CARBON/from-Arr/AIRSS/Generating-Clusters/GAP-ML-2020/Higher-Symm/SD-CG/HFTN-CG
REM
REM
REM
REM
REM
REM ./C.cell (b20cbc046b6831c77cfcea5457e17084)
REM AIRSS Version 0.9.1 bugfix July 2018 build 013d7b7c2542+ Fri, 06 Jul 2018 19:26:36 +0100
REM compiler GCC version 9.3.0
REM options -cpp -mtune=generic -march=x86-64 -g -O0
REM seed 619773347 -1031663091 387844417 1231233678 -1924255511 -658858938 1847260266 -2079084199 -394754452 1407358210 -1987284509 2019479863 -844239244 1834650461 971324651 -518312846 -311317927 -1410930074 -1277515054 69548384 -1056577834 -931924831 876701042 -785124753 -687762978 -1775266147 -1534204425 -1793802730 1068408845 -84838554 -1672427914 648031285 -1108696293
REM
CELL 1.54180   50.00000   50.00000   50.00000   90.00000   90.00000   90.00000
LATT -1
SFAC C  
C      1  0.5544060000000  0.5282290000000  0.4465230000000 1.0
C      1  0.4210130000000  0.5230460000000  0.4814970000000 1.0
C      1  0.5266100000000  0.5307510000000  0.5735230000000 1.0
C      1  0.5393630000000  0.4901240000000  0.4274130000000 1.0
C      1  0.4128520000000  0.4802340000000  0.5016410000000 1.0
C      1  0.5446000000000  0.4882160000000  0.5706380000000 1.0
C      1  0.4781080000000  0.4206280000000  0.5183620000000 1.0
C      1  0.5268000000000  0.4243630000000  0.5095980000000 1.0
C      1  0.4923030000000  0.4255400000000  0.4704090000000 1.0
C      1  0.4396230000000  0.5447930000000  0.4766170000000 1.0
C      1  0.5136850000000  0.5553370000000  0.5640080000000 1.0
C      1  0.5542950000000  0.5512450000000  0.4626290000000 1.0
C      1  0.4649100000000  0.4733490000000  0.5018810000000 1.0
C      1  0.4902390000000  0.4678250000000  0.5109630000000 1.0
C      1  0.5088510000000  0.4614540000000  0.4904710000000 1.0
C      1  0.4207530000000  0.4610020000000  0.5205640000000 1.0
C      1  0.5577720000000  0.4692280000000  0.5542100000000 1.0
C      1  0.5180760000000  0.4720230000000  0.4227140000000 1.0
C      1  0.4545490000000  0.4506480000000  0.5526570000000 1.0
C      1  0.5695460000000  0.4548310000000  0.5114310000000 1.0
C      1  0.4742400000000  0.4595680000000  0.4328450000000 1.0
C      1  0.5202130000000  0.5758400000000  0.4385720000000 1.0
C      1  0.4514900000000  0.5627150000000  0.5234840000000 1.0
C      1  0.5471240000000  0.5673230000000  0.5326580000000 1.0
C      1  0.4488320000000  0.4584140000000  0.4427070000000 1.0
C      1  0.4752220000000  0.4570330000000  0.5683210000000 1.0
C      1  0.5720600000000  0.4571290000000  0.4849920000000 1.0
C      1  0.5642070000000  0.5490400000000  0.5432680000000 1.0
C      1  0.5007600000000  0.5561020000000  0.4362700000000 1.0
C      1  0.4352850000000  0.5432280000000  0.5331570000000 1.0
C      1  0.5212690000000  0.5733410000000  0.5433540000000 1.0
C      1  0.5347410000000  0.5725180000000  0.4611820000000 1.0
C      1  0.4528930000000  0.5645500000000  0.4936800000000 1.0
C      1  0.5155640000000  0.4389810000000  0.5532450000000 1.0
C      1  0.5363920000000  0.4405670000000  0.4581200000000 1.0
C      1  0.4440070000000  0.4331610000000  0.4863980000000 1.0
C      1  0.4909010000000  0.4815790000000  0.4214290000000 1.0
C      1  0.4348500000000  0.4707010000000  0.5439570000000 1.0
C      1  0.5733140000000  0.4768880000000  0.5308910000000 1.0
C      1  0.4825550000000  0.5219970000000  0.5642630000000 1.0
C      1  0.5631890000000  0.5137050000000  0.4930700000000 1.0
C      1  0.4634900000000  0.5153560000000  0.4437190000000 1.0
C      1  0.4713410000000  0.4220450000000  0.4892880000000 1.0
C      1  0.5052930000000  0.4239540000000  0.5292470000000 1.0
C      1  0.5191980000000  0.4321050000000  0.4819340000000 1.0
C      1  0.5064160000000  0.5289480000000  0.4791430000000 1.0
C      1  0.4977780000000  0.5314180000000  0.5052930000000 1.0
C      1  0.5178060000000  0.5271240000000  0.5243490000000 1.0
C      1  0.5476070000000  0.5664460000000  0.5042410000000 1.0
C      1  0.4778020000000  0.5607850000000  0.4544230000000 1.0
C      1  0.4757320000000  0.5677980000000  0.5389840000000 1.0
C      1  0.4203330000000  0.5015860000000  0.4638880000000 1.0
C      1  0.5058510000000  0.5112620000000  0.5779640000000 1.0
C      1  0.5659210000000  0.5072180000000  0.4618240000000 1.0
C      1  0.4341580000000  0.4369560000000  0.5127310000000 1.0
C      1  0.5426940000000  0.4456260000000  0.5477300000000 1.0
C      1  0.5184600000000  0.4476310000000  0.4378950000000 1.0
C      1  0.4734980000000  0.4998410000000  0.4669920000000 1.0
C      1  0.4729150000000  0.5054230000000  0.5410290000000 1.0
C      1  0.5382300000000  0.4954070000000  0.4991420000000 1.0
C      1  0.5203720000000  0.4841730000000  0.4796450000000 1.0
C      1  0.4629450000000  0.4992570000000  0.4931650000000 1.0
C      1  0.4980950000000  0.4863820000000  0.5306870000000 1.0
C      1  0.5596040000000  0.4574950000000  0.4611380000000 1.0
C      1  0.4348500000000  0.4528940000000  0.4654360000000 1.0
C      1  0.5022770000000  0.4586430000000  0.5714340000000 1.0
C      1  0.5593480000000  0.4831850000000  0.4473380000000 1.0
C      1  0.4182880000000  0.4755010000000  0.4739040000000 1.0
C      1  0.5166620000000  0.4843050000000  0.5783180000000 1.0
C      1  0.5068320000000  0.5291300000000  0.4246490000000 1.0
C      1  0.4262110000000  0.5174640000000  0.5313860000000 1.0
C      1  0.5680780000000  0.5225620000000  0.5435160000000 1.0
C      1  0.4922450000000  0.4400370000000  0.4449720000000 1.0
C      1  0.4544950000000  0.4305240000000  0.5316620000000 1.0
C      1  0.5493510000000  0.4368810000000  0.5217660000000 1.0
C      1  0.5271790000000  0.5789580000000  0.4882910000000 1.0
C      1  0.4769130000000  0.5743440000000  0.4808060000000 1.0
C      1  0.4983710000000  0.5801850000000  0.5265820000000 1.0
C      1  0.4860630000000  0.5505330000000  0.5601810000000 1.0
C      1  0.5601710000000  0.5449220000000  0.4893710000000 1.0
C      1  0.4566750000000  0.5416770000000  0.4531910000000 1.0
C      1  0.5503270000000  0.5159720000000  0.5662160000000 1.0
C      1  0.5341940000000  0.5183590000000  0.4277270000000 1.0
C      1  0.4144050000000  0.5084140000000  0.5069150000000 1.0
C      1  0.5752460000000  0.5043650000000  0.5220460000000 1.0
C      1  0.4849990000000  0.5100300000000  0.4234640000000 1.0
C      1  0.4428920000000  0.4974090000000  0.5448320000000 1.0
C      1  0.5228130000000  0.5003850000000  0.5235280000000 1.0
C      1  0.5025870000000  0.5033360000000  0.4693560000000 1.0
C      1  0.4727650000000  0.5182400000000  0.5126260000000 1.0
C      1  0.4998880000000  0.5830910000000  0.4973050000000 1.0
END
