TITL C-29628-2183-5 0.046129698522392 125000 -121.713445361365 0 0 19 (C1) n - 1
REM
REM in /rds/project/t2_vol4/rds-t2-cs072/BORA/CARBON/from-Arr/AIRSS/Generating-Clusters/GAP-ML-2020/Higher-Symm/SD-CG/HFTN-CG
REM
REM
REM
REM
REM
REM ./C.cell (b20cbc046b6831c77cfcea5457e17084)
REM AIRSS Version 0.9.1 bugfix July 2018 build 013d7b7c2542+ Fri, 06 Jul 2018 19:26:36 +0100
REM compiler GCC version 9.3.0
REM options -cpp -mtune=generic -march=x86-64 -g -O0
REM seed 966850734 -2045909391 -101078593 1725262701 1414343333 1778484897 -729010547 854095340 -1959783750 246729179 1318809664 964144294 -90369701 320593307 1532520704 -1296546528 1064103169 -175503767 -635793466 -2086164590 901442868 -489372173 -946947801 535969511 -1257571662 211832716 1128353689 -879567249 -644092442 -1068856793 1498309625 1810940854 -1211659717
REM
CELL 1.54180   50.00000   50.00000   50.00000   90.00000   90.00000   90.00000
LATT -1
SFAC C  
C      1  0.4914920000000  0.4737320000000  0.4921770000000 1.0
C      1  0.4761580000000  0.5139680000000  0.5075240000000 1.0
C      1  0.5030780000000  0.5147480000000  0.4996710000000 1.0
C      1  0.5458080000000  0.4968530000000  0.5012930000000 1.0
C      1  0.4730490000000  0.5072770000000  0.4457250000000 1.0
C      1  0.5021960000000  0.5136800000000  0.5591390000000 1.0
C      1  0.5210030000000  0.4880420000000  0.4360380000000 1.0
C      1  0.4654940000000  0.4880410000000  0.5549790000000 1.0
C      1  0.5254970000000  0.5100550000000  0.5161860000000 1.0
C      1  0.5366690000000  0.4880170000000  0.4778140000000 1.0
C      1  0.4754230000000  0.4824210000000  0.5116280000000 1.0
C      1  0.4571760000000  0.5263990000000  0.4906500000000 1.0
C      1  0.4628780000000  0.4726880000000  0.5343230000000 1.0
C      1  0.4629560000000  0.5162070000000  0.4677200000000 1.0
C      1  0.5214000000000  0.5139550000000  0.5427890000000 1.0
C      1  0.5418060000000  0.4832750000000  0.4516860000000 1.0
C      1  0.4784120000000  0.5066260000000  0.5682100000000 1.0
C      1  0.4982430000000  0.4968700000000  0.4497590000000 1.0
C      1  0.5058030000000  0.4951080000000  0.4779510000000 1.0
END
