TITL C-30362-4526-5 0.0866803029301606 125000 -403.138923442986 0 0 60 (C1) n - 1
REM
REM in /rds/project/t2_vol4/rds-t2-cs072/BORA/CARBON/from-Arr/AIRSS/Generating-Clusters/GAP-ML-2020/Higher-Symm/SD-CG/HFTN-CG
REM
REM
REM
REM
REM
REM ./C.cell (b20cbc046b6831c77cfcea5457e17084)
REM AIRSS Version 0.9.1 bugfix July 2018 build 013d7b7c2542+ Fri, 06 Jul 2018 19:26:36 +0100
REM compiler GCC version 9.3.0
REM options -cpp -mtune=generic -march=x86-64 -g -O0
REM seed 501812191 -1738056801 1469679974 70660621 -936510692 -1480729918 2122921860 -658884902 -1007430725 -1150637159 1170018411 89857108 -1192324331 1860025012 1065938959 859317560 304463977 -67049101 1272611391 1376402780 -1702569801 389302395 797640586 -2138812586 811872253 1664592533 -689600357 72330718 1457386250 -1106533398 490006266 1416427848 120683391
REM
CELL 1.54180   50.00000   50.00000   50.00000   90.00000   90.00000   90.00000
LATT -1
SFAC C  
C      1  0.5327530000000  0.5350260000000  0.5248140000000 1.0
C      1  0.5537290000000  0.5008530000000  0.4484750000000 1.0
C      1  0.5368580000000  0.4989480000000  0.5596590000000 1.0
C      1  0.5554170000000  0.5255520000000  0.5124760000000 1.0
C      1  0.4282740000000  0.4572670000000  0.4962650000000 1.0
C      1  0.4726450000000  0.5710520000000  0.4800490000000 1.0
C      1  0.4389610000000  0.4468780000000  0.4743360000000 1.0
C      1  0.4725730000000  0.5547030000000  0.5425760000000 1.0
C      1  0.4620540000000  0.5413140000000  0.5185610000000 1.0
C      1  0.4845790000000  0.4598480000000  0.5459720000000 1.0
C      1  0.4706200000000  0.4759740000000  0.4975050000000 1.0
C      1  0.5060670000000  0.5376390000000  0.5689110000000 1.0
C      1  0.4718510000000  0.4533960000000  0.5206990000000 1.0
C      1  0.5766270000000  0.4877880000000  0.4781450000000 1.0
C      1  0.4902320000000  0.5736290000000  0.5339820000000 1.0
C      1  0.4725940000000  0.5071630000000  0.5560260000000 1.0
C      1  0.5215760000000  0.5227890000000  0.5493480000000 1.0
C      1  0.4893420000000  0.4979320000000  0.4924980000000 1.0
C      1  0.5541360000000  0.5318420000000  0.4844910000000 1.0
C      1  0.5200000000000  0.5709860000000  0.4688100000000 1.0
C      1  0.4352630000000  0.5109430000000  0.4968730000000 1.0
C      1  0.5006740000000  0.5084420000000  0.4307490000000 1.0
C      1  0.5252820000000  0.5430320000000  0.4761460000000 1.0
C      1  0.5121370000000  0.5423400000000  0.5057440000000 1.0
C      1  0.4778280000000  0.5139510000000  0.4665200000000 1.0
C      1  0.5695180000000  0.5150610000000  0.4686810000000 1.0
C      1  0.4251790000000  0.4851240000000  0.5036060000000 1.0
C      1  0.5362260000000  0.4472300000000  0.4712870000000 1.0
C      1  0.4940650000000  0.4386840000000  0.5062540000000 1.0
C      1  0.5254520000000  0.4977380000000  0.4583390000000 1.0
C      1  0.4964460000000  0.5112760000000  0.5378190000000 1.0
C      1  0.5131550000000  0.4570230000000  0.5431700000000 1.0
C      1  0.5567260000000  0.4514100000000  0.4544990000000 1.0
C      1  0.5188070000000  0.4496920000000  0.5164100000000 1.0
C      1  0.5609430000000  0.4798930000000  0.5006770000000 1.0
C      1  0.4784070000000  0.5360350000000  0.5632890000000 1.0
C      1  0.5611400000000  0.4943690000000  0.5485200000000 1.0
C      1  0.5021440000000  0.4600570000000  0.4390560000000 1.0
C      1  0.5176110000000  0.4783250000000  0.5623640000000 1.0
C      1  0.5074730000000  0.5233970000000  0.4567960000000 1.0
C      1  0.4985890000000  0.5808140000000  0.4835730000000 1.0
C      1  0.5144860000000  0.4856930000000  0.4833490000000 1.0
C      1  0.4901880000000  0.5217550000000  0.5119880000000 1.0
C      1  0.5639420000000  0.4989780000000  0.5216780000000 1.0
C      1  0.4476400000000  0.5020230000000  0.5419930000000 1.0
C      1  0.5107340000000  0.4421090000000  0.4605370000000 1.0
C      1  0.5679460000000  0.4755790000000  0.4534270000000 1.0
C      1  0.4666430000000  0.4571590000000  0.4714320000000 1.0
C      1  0.5339000000000  0.4660380000000  0.4958780000000 1.0
C      1  0.4883400000000  0.4833780000000  0.5627280000000 1.0
C      1  0.4426190000000  0.4527700000000  0.5230640000000 1.0
C      1  0.5022370000000  0.5703340000000  0.5104990000000 1.0
C      1  0.4896570000000  0.4386590000000  0.4785480000000 1.0
C      1  0.4356310000000  0.4793260000000  0.5314420000000 1.0
C      1  0.4522360000000  0.5257550000000  0.4775260000000 1.0
C      1  0.4762130000000  0.4982950000000  0.4409790000000 1.0
C      1  0.5163440000000  0.4844300000000  0.4328100000000 1.0
C      1  0.4762730000000  0.4696910000000  0.4455170000000 1.0
C      1  0.4587280000000  0.5510220000000  0.4903970000000 1.0
C      1  0.4422910000000  0.5215900000000  0.5222360000000 1.0
END
