TITL C-30383-4266-2 -0.42096526176864 125000 -879.402826581157 0 0 129 (D3) n - 1
REM
REM in /rds/project/t2_vol4/rds-t2-cs072/BORA/CARBON/from-Arr/AIRSS/Generating-Clusters/GAP-ML-2020/Higher-Symm/SD-CG/HFTN-CG
REM
REM
REM
REM
REM
REM ./C.cell (b20cbc046b6831c77cfcea5457e17084)
REM AIRSS Version 0.9.1 bugfix July 2018 build 013d7b7c2542+ Fri, 06 Jul 2018 19:26:36 +0100
REM compiler GCC version 9.3.0
REM options -cpp -mtune=generic -march=x86-64 -g -O0
REM seed 1669376082 1323419190 123411572 -1782553279 904504317 -106053247 1293324113 1643441577 277820274 -762688228 -2054301783 1284557570 -746537415 -902813737 1612925189 329183413 -522909685 1602848540 1107566749 -951569318 1593484099 -1981988997 -1471030234 -122647494 -1755848478 1810400771 857531704 -422304419 667439063 -768265372 -1358877571 1805556718 -364883757
REM
CELL 1.54180   50.00000   50.00000   50.00000   90.00000   90.00000   90.00000
LATT -1
SFAC C  
C      1  0.5538680000000  0.5004980000000  0.6065090000000 1.0
C      1  0.4734090000000  0.4532950000000  0.6065730000000 1.0
C      1  0.4727610000000  0.5465760000000  0.6064650000000 1.0
C      1  0.5538410000000  0.4993050000000  0.3943120000000 1.0
C      1  0.4735560000000  0.5468020000000  0.3942670000000 1.0
C      1  0.4725650000000  0.4535240000000  0.3943750000000 1.0
C      1  0.5023950000000  0.5891000000000  0.4906970000000 1.0
C      1  0.5759730000000  0.4533580000000  0.4908450000000 1.0
C      1  0.4216280000000  0.4575090000000  0.4908590000000 1.0
C      1  0.5020700000000  0.4108920000000  0.5101360000000 1.0
C      1  0.5761460000000  0.5463630000000  0.5099700000000 1.0
C      1  0.4217870000000  0.5427790000000  0.5099930000000 1.0
C      1  0.5259730000000  0.5412770000000  0.3921020000000 1.0
C      1  0.5228490000000  0.4566680000000  0.3922000000000 1.0
C      1  0.4511380000000  0.5016780000000  0.3921570000000 1.0
C      1  0.5258470000000  0.4586280000000  0.6087260000000 1.0
C      1  0.5230340000000  0.5432480000000  0.6086280000000 1.0
C      1  0.4511580000000  0.4985010000000  0.6086880000000 1.0
C      1  0.5457790000000  0.5654840000000  0.4315960000000 1.0
C      1  0.5338780000000  0.4274860000000  0.4317580000000 1.0
C      1  0.4203190000000  0.5067910000000  0.4316800000000 1.0
C      1  0.5455540000000  0.4343490000000  0.5692260000000 1.0
C      1  0.5341600000000  0.5723890000000  0.5690680000000 1.0
C      1  0.4203110000000  0.4935010000000  0.5691730000000 1.0
C      1  0.5447540000000  0.4738740000000  0.3901970000000 1.0
C      1  0.4550870000000  0.4741020000000  0.3902070000000 1.0
C      1  0.5001180000000  0.5516410000000  0.3901120000000 1.0
C      1  0.5448760000000  0.5259620000000  0.6106260000000 1.0
C      1  0.4552090000000  0.5260630000000  0.6106370000000 1.0
C      1  0.4999550000000  0.4483590000000  0.6107210000000 1.0
C      1  0.5156510000000  0.5056200000000  0.4142770000000 1.0
C      1  0.4971120000000  0.4834770000000  0.4143050000000 1.0
C      1  0.4872060000000  0.5106030000000  0.4142750000000 1.0
C      1  0.5156510000000  0.4943230000000  0.5865520000000 1.0
C      1  0.4971940000000  0.5165330000000  0.5865290000000 1.0
C      1  0.4871870000000  0.4894440000000  0.5865610000000 1.0
C      1  0.5163640000000  0.5397650000000  0.4693950000000 1.0
C      1  0.5262810000000  0.4658880000000  0.4694800000000 1.0
C      1  0.4573430000000  0.4942380000000  0.4694550000000 1.0
C      1  0.5162250000000  0.4601750000000  0.5314340000000 1.0
C      1  0.5264140000000  0.5340150000000  0.5313480000000 1.0
C      1  0.4573720000000  0.5059180000000  0.5313880000000 1.0
C      1  0.4404470000000  0.4358320000000  0.4830430000000 1.0
C      1  0.4742200000000  0.5836260000000  0.4828680000000 1.0
C      1  0.5853270000000  0.4804810000000  0.4829740000000 1.0
C      1  0.4406870000000  0.5643860000000  0.5178040000000 1.0
C      1  0.4739170000000  0.4164690000000  0.5179720000000 1.0
C      1  0.5854020000000  0.5192050000000  0.5178390000000 1.0
C      1  0.5370660000000  0.4168730000000  0.5521970000000 1.0
C      1  0.4094350000000  0.5095580000000  0.5521060000000 1.0
C      1  0.5535180000000  0.5737480000000  0.5520140000000 1.0
C      1  0.5373590000000  0.5829900000000  0.4486270000000 1.0
C      1  0.4093880000000  0.4907740000000  0.4487500000000 1.0
C      1  0.5532350000000  0.4260560000000  0.4488070000000 1.0
C      1  0.4634740000000  0.5188060000000  0.4592340000000 1.0
C      1  0.5345830000000  0.5221530000000  0.4592210000000 1.0
C      1  0.5019280000000  0.4588980000000  0.4592980000000 1.0
C      1  0.4634160000000  0.4813280000000  0.5416090000000 1.0
C      1  0.5345110000000  0.4777200000000  0.5416040000000 1.0
C      1  0.5020880000000  0.5410950000000  0.5415350000000 1.0
C      1  0.4875750000000  0.5323080000000  0.5645290000000 1.0
C      1  0.5341390000000  0.4947240000000  0.5645670000000 1.0
C      1  0.4783090000000  0.4731910000000  0.5645980000000 1.0
C      1  0.4874420000000  0.4677380000000  0.4363080000000 1.0
C      1  0.5341430000000  0.5051500000000  0.4362590000000 1.0
C      1  0.4783920000000  0.5268890000000  0.4362400000000 1.0
C      1  0.4964920000000  0.4686470000000  0.3891860000000 1.0
C      1  0.4746930000000  0.5185090000000  0.3891310000000 1.0
C      1  0.5287740000000  0.5124570000000  0.3891320000000 1.0
C      1  0.4966340000000  0.5313650000000  0.6116480000000 1.0
C      1  0.4746520000000  0.4815840000000  0.6117080000000 1.0
C      1  0.5287550000000  0.4874380000000  0.6116950000000 1.0
C      1  0.4315170000000  0.4981780000000  0.5150650000000 1.0
C      1  0.5326520000000  0.5602460000000  0.5149800000000 1.0
C      1  0.5358370000000  0.4416270000000  0.5151170000000 1.0
C      1  0.4315210000000  0.5020730000000  0.4857850000000 1.0
C      1  0.5324270000000  0.4396340000000  0.4858450000000 1.0
C      1  0.5360470000000  0.5582410000000  0.4857070000000 1.0
C      1  0.5716140000000  0.4907800000000  0.4595490000000 1.0
C      1  0.4562420000000  0.4425150000000  0.4596190000000 1.0
C      1  0.4721290000000  0.5665620000000  0.4594730000000 1.0
C      1  0.5716570000000  0.5089570000000  0.5412680000000 1.0
C      1  0.4564630000000  0.5576450000000  0.5412250000000 1.0
C      1  0.4718950000000  0.4335400000000  0.5413670000000 1.0
C      1  0.5628790000000  0.4714180000000  0.5370830000000 1.0
C      1  0.4437780000000  0.4599040000000  0.5371110000000 1.0
C      1  0.4933570000000  0.5688060000000  0.5369790000000 1.0
C      1  0.5629750000000  0.5283510000000  0.4637350000000 1.0
C      1  0.4439160000000  0.5403020000000  0.4637360000000 1.0
C      1  0.4930950000000  0.4312190000000  0.4638560000000 1.0
C      1  0.4738110000000  0.5739540000000  0.5574500000000 1.0
C      1  0.5770940000000  0.4858090000000  0.5575400000000 1.0
C      1  0.4491160000000  0.4404360000000  0.5576080000000 1.0
C      1  0.4735260000000  0.4261430000000  0.4433890000000 1.0
C      1  0.5771310000000  0.5139080000000  0.4432750000000 1.0
C      1  0.4493220000000  0.5597500000000  0.4432370000000 1.0
C      1  0.4271710000000  0.5320720000000  0.4840890000000 1.0
C      1  0.5642030000000  0.5470060000000  0.4840550000000 1.0
C      1  0.5086200000000  0.4208660000000  0.4842080000000 1.0
C      1  0.4270580000000  0.4681960000000  0.5167620000000 1.0
C      1  0.5640340000000  0.4527590000000  0.5167630000000 1.0
C      1  0.5089140000000  0.5791020000000  0.5166230000000 1.0
C      1  0.5161360000000  0.4374420000000  0.4137310000000 1.0
C      1  0.4378260000000  0.5171450000000  0.4136480000000 1.0
C      1  0.5460060000000  0.5451120000000  0.4136030000000 1.0
C      1  0.5163870000000  0.5624990000000  0.5870980000000 1.0
C      1  0.4377840000000  0.4830840000000  0.5872000000000 1.0
C      1  0.5458610000000  0.4547190000000  0.5872200000000 1.0
C      1  0.5590540000000  0.4833100000000  0.5807440000000 1.0
C      1  0.4559530000000  0.4573510000000  0.5807860000000 1.0
C      1  0.4850220000000  0.5596190000000  0.5806640000000 1.0
C      1  0.5590960000000  0.5164730000000  0.4200760000000 1.0
C      1  0.4560910000000  0.5428110000000  0.4200580000000 1.0
C      1  0.4847840000000  0.4404370000000  0.4201730000000 1.0
C      1  0.4135690000000  0.4808630000000  0.4746800000000 1.0
C      1  0.5266640000000  0.5843720000000  0.4745460000000 1.0
C      1  0.5597580000000  0.4346750000000  0.4747160000000 1.0
C      1  0.4136460000000  0.5194540000000  0.5261740000000 1.0
C      1  0.5263600000000  0.4155300000000  0.5262810000000 1.0
C      1  0.5600030000000  0.5651050000000  0.5261030000000 1.0
C      1  0.5431640000000  0.5157040000000  0.5456140000000 1.0
C      1  0.4919810000000  0.4548510000000  0.5456910000000 1.0
C      1  0.4648720000000  0.5296030000000  0.5456070000000 1.0
C      1  0.5430950000000  0.4841380000000  0.4552090000000 1.0
C      1  0.4921360000000  0.5451790000000  0.4551450000000 1.0
C      1  0.4647530000000  0.4705260000000  0.4552350000000 1.0
C      1  0.5959600000000  0.4998240000000  0.5004050000000 1.0
C      1  0.4521720000000  0.5831920000000  0.5003260000000 1.0
C      1  0.4518670000000  0.4169840000000  0.5005190000000 1.0
END
