TITL C-30382-4406-2 0.00112983558925818 125000 -831.156373480943 0 0 120 (C1) n - 1
REM
REM in /rds/project/t2_vol4/rds-t2-cs072/BORA/CARBON/from-Arr/AIRSS/Generating-Clusters/GAP-ML-2020/Higher-Symm/SD-CG/HFTN-CG
REM
REM
REM
REM
REM
REM ./C.cell (b20cbc046b6831c77cfcea5457e17084)
REM AIRSS Version 0.9.1 bugfix July 2018 build 013d7b7c2542+ Fri, 06 Jul 2018 19:26:36 +0100
REM compiler GCC version 9.3.0
REM options -cpp -mtune=generic -march=x86-64 -g -O0
REM seed -1480991859 1591364098 1148233558 -960779263 -600986315 524563169 1403345961 1824228414 337299542 1298643962 1712126540 602089943 47992121 104521607 -1714161573 -758992144 -708819834 -1741575432 347072329 -1007403829 1476238412 -1858368077 -547984951 1698996304 -1880922743 -476774228 -1430244060 873849085 -1908630330 1259226227 526806420 1370888913 -534287012
REM
CELL 1.54180   50.00000   50.00000   50.00000   90.00000   90.00000   90.00000
LATT -1
SFAC C  
C      1  0.6008280000000  0.4782440000000  0.5228480000000 1.0
C      1  0.4376060000000  0.5623510000000  0.4681240000000 1.0
C      1  0.4938040000000  0.5043630000000  0.5133630000000 1.0
C      1  0.4995170000000  0.5051840000000  0.4064910000000 1.0
C      1  0.5048280000000  0.5559730000000  0.5753460000000 1.0
C      1  0.4971130000000  0.4592390000000  0.4146190000000 1.0
C      1  0.4458400000000  0.5217920000000  0.4538220000000 1.0
C      1  0.5217090000000  0.4583120000000  0.4818220000000 1.0
C      1  0.5209290000000  0.4895910000000  0.4478290000000 1.0
C      1  0.4266470000000  0.4828320000000  0.4781470000000 1.0
C      1  0.5569240000000  0.4916530000000  0.4880390000000 1.0
C      1  0.4465810000000  0.4638680000000  0.4700830000000 1.0
C      1  0.4478420000000  0.5673680000000  0.4951740000000 1.0
C      1  0.4909120000000  0.5880840000000  0.5450330000000 1.0
C      1  0.4507410000000  0.5059730000000  0.5577540000000 1.0
C      1  0.4384760000000  0.4248600000000  0.4986830000000 1.0
C      1  0.4326520000000  0.5598700000000  0.5204390000000 1.0
C      1  0.4193190000000  0.5356990000000  0.5272080000000 1.0
C      1  0.4617970000000  0.4475220000000  0.4334000000000 1.0
C      1  0.5729210000000  0.5079750000000  0.4676700000000 1.0
C      1  0.4447110000000  0.4945330000000  0.5008210000000 1.0
C      1  0.5421450000000  0.5203250000000  0.5692940000000 1.0
C      1  0.5914630000000  0.5464180000000  0.4880450000000 1.0
C      1  0.4060570000000  0.5204600000000  0.4813280000000 1.0
C      1  0.4957140000000  0.5449340000000  0.4329770000000 1.0
C      1  0.4748150000000  0.4121650000000  0.4722110000000 1.0
C      1  0.5475750000000  0.4403910000000  0.5482430000000 1.0
C      1  0.5639240000000  0.4770290000000  0.4287600000000 1.0
C      1  0.5172590000000  0.4130960000000  0.5105840000000 1.0
C      1  0.4835290000000  0.5722290000000  0.5675940000000 1.0
C      1  0.4697370000000  0.4693510000000  0.4162220000000 1.0
C      1  0.4491150000000  0.4539470000000  0.5894530000000 1.0
C      1  0.4868860000000  0.5319600000000  0.5202980000000 1.0
C      1  0.4051220000000  0.5170150000000  0.5102440000000 1.0
C      1  0.4696680000000  0.5244220000000  0.4753150000000 1.0
C      1  0.4797840000000  0.4363270000000  0.4888620000000 1.0
C      1  0.4744680000000  0.5453890000000  0.4957620000000 1.0
C      1  0.4732620000000  0.4597690000000  0.5966720000000 1.0
C      1  0.5139980000000  0.5084300000000  0.5694530000000 1.0
C      1  0.4887500000000  0.4681380000000  0.5515020000000 1.0
C      1  0.4659850000000  0.5904450000000  0.5008000000000 1.0
C      1  0.5843660000000  0.4559000000000  0.5162160000000 1.0
C      1  0.4656760000000  0.5283110000000  0.5690760000000 1.0
C      1  0.4272500000000  0.4436280000000  0.5418370000000 1.0
C      1  0.4663230000000  0.5471290000000  0.4295530000000 1.0
C      1  0.4920970000000  0.4961160000000  0.4479620000000 1.0
C      1  0.5181290000000  0.4837820000000  0.5857520000000 1.0
C      1  0.5147630000000  0.4805230000000  0.4072870000000 1.0
C      1  0.5139430000000  0.5294660000000  0.4777850000000 1.0
C      1  0.4952520000000  0.4410260000000  0.5401340000000 1.0
C      1  0.4479970000000  0.5712840000000  0.5408850000000 1.0
C      1  0.4740470000000  0.4992010000000  0.4203400000000 1.0
C      1  0.5118310000000  0.5477850000000  0.5211090000000 1.0
C      1  0.5330410000000  0.4826670000000  0.5298980000000 1.0
C      1  0.5330980000000  0.4587180000000  0.5106310000000 1.0
C      1  0.4813580000000  0.5826150000000  0.4559550000000 1.0
C      1  0.4960060000000  0.4144120000000  0.4510490000000 1.0
C      1  0.4714790000000  0.4991260000000  0.4913780000000 1.0
C      1  0.5160040000000  0.5830660000000  0.4862090000000 1.0
C      1  0.5984220000000  0.5060890000000  0.5141060000000 1.0
C      1  0.4950760000000  0.4679350000000  0.5825130000000 1.0
C      1  0.5639970000000  0.4462550000000  0.4709270000000 1.0
C      1  0.4469950000000  0.4165050000000  0.4708740000000 1.0
C      1  0.5043750000000  0.5527040000000  0.4924900000000 1.0
C      1  0.4916320000000  0.4416320000000  0.4394090000000 1.0
C      1  0.5299480000000  0.4853750000000  0.4746470000000 1.0
C      1  0.4266770000000  0.5134610000000  0.5448550000000 1.0
C      1  0.4875260000000  0.5930550000000  0.4817210000000 1.0
C      1  0.5058230000000  0.4908410000000  0.5397720000000 1.0
C      1  0.4444620000000  0.4244610000000  0.5263050000000 1.0
C      1  0.5810720000000  0.4875600000000  0.4476220000000 1.0
C      1  0.4942740000000  0.4550150000000  0.4719860000000 1.0
C      1  0.4672730000000  0.5902340000000  0.5291340000000 1.0
C      1  0.5043170000000  0.5702560000000  0.4444940000000 1.0
C      1  0.4596270000000  0.5572520000000  0.5635380000000 1.0
C      1  0.5184360000000  0.5063560000000  0.4941770000000 1.0
C      1  0.5729170000000  0.4606800000000  0.4494210000000 1.0
C      1  0.5608420000000  0.5013690000000  0.5761880000000 1.0
C      1  0.5427120000000  0.5062590000000  0.5124880000000 1.0
C      1  0.5554150000000  0.5293300000000  0.4503510000000 1.0
C      1  0.5239880000000  0.4353990000000  0.5286820000000 1.0
C      1  0.5837940000000  0.4989070000000  0.5594260000000 1.0
C      1  0.5278290000000  0.5734870000000  0.4601640000000 1.0
C      1  0.5166940000000  0.5767840000000  0.5351900000000 1.0
C      1  0.5422980000000  0.4666260000000  0.5561570000000 1.0
C      1  0.5455570000000  0.5426020000000  0.5528930000000 1.0
C      1  0.4244510000000  0.5364890000000  0.4654650000000 1.0
C      1  0.4554980000000  0.5213470000000  0.4270510000000 1.0
C      1  0.5878220000000  0.5155350000000  0.5377660000000 1.0
C      1  0.5911260000000  0.4729420000000  0.5500580000000 1.0
C      1  0.5384230000000  0.4342010000000  0.4700490000000 1.0
C      1  0.4412100000000  0.4575560000000  0.5632340000000 1.0
C      1  0.4936110000000  0.5239500000000  0.4582910000000 1.0
C      1  0.4539150000000  0.4502920000000  0.4970810000000 1.0
C      1  0.4101580000000  0.4943570000000  0.5291780000000 1.0
C      1  0.5383010000000  0.4889660000000  0.4237480000000 1.0
C      1  0.5378900000000  0.5184550000000  0.4298490000000 1.0
C      1  0.4890120000000  0.4147270000000  0.5071840000000 1.0
C      1  0.4186430000000  0.4670740000000  0.5265120000000 1.0
C      1  0.5420750000000  0.5376260000000  0.5232980000000 1.0
C      1  0.5452470000000  0.4777100000000  0.5820130000000 1.0
C      1  0.5742280000000  0.4499370000000  0.5433950000000 1.0
C      1  0.5215540000000  0.4113390000000  0.4612400000000 1.0
C      1  0.4439620000000  0.4401050000000  0.4531580000000 1.0
C      1  0.5309630000000  0.4104710000000  0.4864560000000 1.0
C      1  0.5678390000000  0.5603670000000  0.4849860000000 1.0
C      1  0.4477330000000  0.4720110000000  0.5189980000000 1.0
C      1  0.4938920000000  0.5288970000000  0.5760970000000 1.0
C      1  0.5935390000000  0.5197960000000  0.4882470000000 1.0
C      1  0.5326270000000  0.5838690000000  0.5111090000000 1.0
C      1  0.4748020000000  0.4228140000000  0.5304200000000 1.0
C      1  0.5278930000000  0.5637210000000  0.5593010000000 1.0
C      1  0.4581930000000  0.5673810000000  0.4487550000000 1.0
C      1  0.5133660000000  0.5278530000000  0.4170670000000 1.0
C      1  0.4773900000000  0.4790320000000  0.4692400000000 1.0
C      1  0.4590740000000  0.4772420000000  0.5479150000000 1.0
C      1  0.4028020000000  0.4938300000000  0.4731690000000 1.0
C      1  0.5516340000000  0.5562910000000  0.4611770000000 1.0
C      1  0.5523330000000  0.5631730000000  0.5087040000000 1.0
C      1  0.5631990000000  0.4619370000000  0.4968660000000 1.0
END
