TITL C-30373-4354-6 -278.811631583858 125000 -1038.709447026 0 0 149 (C1) n - 1
REM
REM in /rds/project/t2_vol4/rds-t2-cs072/BORA/CARBON/from-Arr/AIRSS/Generating-Clusters/GAP-ML-2020/Higher-Symm/SD-CG/HFTN-CG
REM
REM
REM
REM
REM
REM ./C.cell (b20cbc046b6831c77cfcea5457e17084)
REM AIRSS Version 0.9.1 bugfix July 2018 build 013d7b7c2542+ Fri, 06 Jul 2018 19:26:36 +0100
REM compiler GCC version 9.3.0
REM options -cpp -mtune=generic -march=x86-64 -g -O0
REM seed 1641616902 1163175051 -338230832 1910831408 -295438453 789572810 -1953762436 -1664485420 1498274290 1859319866 1211890034 1225961758 1774436456 2024371074 1047708361 1528355704 1922440414 -1291740845 -1284396390 -356095321 -1678371303 -216349766 -812124449 482498505 -952174905 1470451345 1025204895 -183497163 339914315 1378107796 -1109608573 -778476612 -378699166
REM
CELL 1.54180   50.00000   50.00000   50.00000   90.00000   90.00000   90.00000
LATT -1
SFAC C  
C      1  0.4125420000000  0.5032400000000  0.5191600000000 1.0
C      1  0.5056760000000  0.5062580000000  0.5097540000000 1.0
C      1  0.5084900000000  0.4045100000000  0.5498950000000 1.0
C      1  0.5632330000000  0.5502670000000  0.5469000000000 1.0
C      1  0.4535020000000  0.5804660000000  0.5496190000000 1.0
C      1  0.4315940000000  0.5394650000000  0.4356390000000 1.0
C      1  0.4194550000000  0.5147000000000  0.5635790000000 1.0
C      1  0.5222450000000  0.4752160000000  0.5468480000000 1.0
C      1  0.4716890000000  0.5441660000000  0.5283160000000 1.0
C      1  0.4057920000000  0.5310890000000  0.5237270000000 1.0
C      1  0.5994480000000  0.4865160000000  0.4912000000000 1.0
C      1  0.5171410000000  0.4678120000000  0.4096440000000 1.0
C      1  0.4823510000000  0.4978820000000  0.6043840000000 1.0
C      1  0.5925050000000  0.4417300000000  0.5087050000000 1.0
C      1  0.4752030000000  0.4502060000000  0.4708430000000 1.0
C      1  0.5586550000000  0.4908860000000  0.4157380000000 1.0
C      1  0.5095410000000  0.5239000000000  0.5526740000000 1.0
C      1  0.5466250000000  0.4672030000000  0.4100450000000 1.0
C      1  0.4172850000000  0.5286830000000  0.4583640000000 1.0
C      1  0.4607370000000  0.4818420000000  0.5121170000000 1.0
C      1  0.4978270000000  0.5352220000000  0.5255970000000 1.0
C      1  0.5358250000000  0.4525020000000  0.4324050000000 1.0
C      1  0.4900900000000  0.4823400000000  0.5191850000000 1.0
C      1  0.4816070000000  0.4412410000000  0.5002200000000 1.0
C      1  0.4720160000000  0.4724700000000  0.4012940000000 1.0
C      1  0.5179470000000  0.5930490000000  0.4798950000000 1.0
C      1  0.4416180000000  0.5021500000000  0.5772560000000 1.0
C      1  0.5073350000000  0.4948740000000  0.4106810000000 1.0
C      1  0.5382650000000  0.5020480000000  0.5910240000000 1.0
C      1  0.4740110000000  0.4316010000000  0.5623840000000 1.0
C      1  0.5326850000000  0.4607600000000  0.5706680000000 1.0
C      1  0.4934150000000  0.5235300000000  0.6141220000000 1.0
C      1  0.5964700000000  0.4676800000000  0.4713700000000 1.0
C      1  0.5091370000000  0.5050290000000  0.4373550000000 1.0
C      1  0.4581510000000  0.5935860000000  0.5240420000000 1.0
C      1  0.5330130000000  0.4030630000000  0.4843060000000 1.0
C      1  0.5176060000000  0.5316160000000  0.6232960000000 1.0
C      1  0.5884520000000  0.5268150000000  0.5163580000000 1.0
C      1  0.4765850000000  0.5234720000000  0.4646520000000 1.0
C      1  0.4478560000000  0.5028730000000  0.5274060000000 1.0
C      1  0.4168710000000  0.4880460000000  0.4925750000000 1.0
C      1  0.5160820000000  0.4674260000000  0.4768700000000 1.0
C      1  0.5587260000000  0.4151160000000  0.4900760000000 1.0
C      1  0.5704240000000  0.4770070000000  0.5597390000000 1.0
C      1  0.4856360000000  0.5969790000000  0.5204390000000 1.0
C      1  0.4663280000000  0.4048580000000  0.4856740000000 1.0
C      1  0.5247620000000  0.3985180000000  0.5112750000000 1.0
C      1  0.5355070000000  0.5120390000000  0.5171000000000 1.0
C      1  0.5411430000000  0.4699070000000  0.4560140000000 1.0
C      1  0.5446660000000  0.5916770000000  0.4884120000000 1.0
C      1  0.5911890000000  0.5128310000000  0.5401500000000 1.0
C      1  0.4428980000000  0.4202510000000  0.4770740000000 1.0
C      1  0.4378320000000  0.4335490000000  0.5271660000000 1.0
C      1  0.4978630000000  0.5343950000000  0.4450410000000 1.0
C      1  0.4319720000000  0.4954090000000  0.4190310000000 1.0
C      1  0.4769910000000  0.5393540000000  0.5954000000000 1.0
C      1  0.5572910000000  0.4517520000000  0.5604800000000 1.0
C      1  0.5285910000000  0.5285060000000  0.5977110000000 1.0
C      1  0.4285310000000  0.5441690000000  0.4808060000000 1.0
C      1  0.5785320000000  0.5586540000000  0.4872540000000 1.0
C      1  0.4281730000000  0.5661650000000  0.5461380000000 1.0
C      1  0.4914270000000  0.5591480000000  0.5803290000000 1.0
C      1  0.5634850000000  0.5765160000000  0.4715880000000 1.0
C      1  0.4871740000000  0.4976360000000  0.4597200000000 1.0
C      1  0.5412660000000  0.5377130000000  0.4118930000000 1.0
C      1  0.5087030000000  0.4969790000000  0.4808360000000 1.0
C      1  0.5373300000000  0.4996130000000  0.4463110000000 1.0
C      1  0.4705820000000  0.5689270000000  0.4297720000000 1.0
C      1  0.5138870000000  0.5578480000000  0.5146690000000 1.0
C      1  0.5530680000000  0.4999460000000  0.4966900000000 1.0
C      1  0.5568530000000  0.4716020000000  0.5023010000000 1.0
C      1  0.5377130000000  0.5421150000000  0.5066580000000 1.0
C      1  0.5566340000000  0.5167610000000  0.4277310000000 1.0
C      1  0.4574400000000  0.4525580000000  0.5117760000000 1.0
C      1  0.4526010000000  0.4341900000000  0.4534020000000 1.0
C      1  0.5143250000000  0.4087050000000  0.4623360000000 1.0
C      1  0.5327770000000  0.5381960000000  0.4777030000000 1.0
C      1  0.4082710000000  0.4937080000000  0.5470380000000 1.0
C      1  0.5633350000000  0.4617510000000  0.4732960000000 1.0
C      1  0.5426250000000  0.5925320000000  0.5159330000000 1.0
C      1  0.4429360000000  0.5217620000000  0.4159820000000 1.0
C      1  0.4761500000000  0.4111060000000  0.5132850000000 1.0
C      1  0.5613250000000  0.5633710000000  0.4444500000000 1.0
C      1  0.5690910000000  0.5496480000000  0.5159840000000 1.0
C      1  0.4819540000000  0.4991690000000  0.3993580000000 1.0
C      1  0.4433360000000  0.4627250000000  0.4425620000000 1.0
C      1  0.5729750000000  0.5370450000000  0.4460490000000 1.0
C      1  0.5724020000000  0.4327630000000  0.4726730000000 1.0
C      1  0.4324410000000  0.4371870000000  0.4974620000000 1.0
C      1  0.4166250000000  0.4528600000000  0.5326380000000 1.0
C      1  0.4879290000000  0.5461470000000  0.4185000000000 1.0
C      1  0.5694070000000  0.4253830000000  0.5153440000000 1.0
C      1  0.5324500000000  0.5040950000000  0.5455630000000 1.0
C      1  0.5736030000000  0.5255850000000  0.5580460000000 1.0
C      1  0.4457460000000  0.5709180000000  0.4756260000000 1.0
C      1  0.4475780000000  0.4716470000000  0.4145220000000 1.0
C      1  0.5499120000000  0.4346660000000  0.5357060000000 1.0
C      1  0.4553390000000  0.5229050000000  0.4854660000000 1.0
C      1  0.5987190000000  0.4405740000000  0.4809380000000 1.0
C      1  0.5180580000000  0.5529600000000  0.4099160000000 1.0
C      1  0.4936350000000  0.4744620000000  0.5944860000000 1.0
C      1  0.5162210000000  0.5509250000000  0.4593420000000 1.0
C      1  0.4956400000000  0.5827650000000  0.4968440000000 1.0
C      1  0.4585120000000  0.5264580000000  0.5145650000000 1.0
C      1  0.4988510000000  0.3971110000000  0.5231230000000 1.0
C      1  0.5843150000000  0.5348030000000  0.4721950000000 1.0
C      1  0.4917650000000  0.4799400000000  0.5493400000000 1.0
C      1  0.5340520000000  0.4098930000000  0.5367050000000 1.0
C      1  0.4673380000000  0.5137510000000  0.5826240000000 1.0
C      1  0.4204820000000  0.5728920000000  0.5184340000000 1.0
C      1  0.5005780000000  0.4520330000000  0.4586770000000 1.0
C      1  0.4204450000000  0.4694140000000  0.5544370000000 1.0
C      1  0.4109380000000  0.5002680000000  0.4638070000000 1.0
C      1  0.5433350000000  0.5637420000000  0.4208120000000 1.0
C      1  0.4992900000000  0.5909230000000  0.5448120000000 1.0
C      1  0.5262730000000  0.5801080000000  0.5372190000000 1.0
C      1  0.4846410000000  0.5829260000000  0.4497240000000 1.0
C      1  0.4112660000000  0.5504660000000  0.5043000000000 1.0
C      1  0.4599510000000  0.4200830000000  0.5381290000000 1.0
C      1  0.4855490000000  0.4043930000000  0.4633300000000 1.0
C      1  0.4484640000000  0.4919420000000  0.4861500000000 1.0
C      1  0.5882900000000  0.4704320000000  0.5150830000000 1.0
C      1  0.4925920000000  0.4289690000000  0.4235600000000 1.0
C      1  0.5398370000000  0.5624900000000  0.5568780000000 1.0
C      1  0.4136900000000  0.4597120000000  0.5038810000000 1.0
C      1  0.4935240000000  0.4138150000000  0.5705890000000 1.0
C      1  0.4699420000000  0.5240500000000  0.4062810000000 1.0
C      1  0.5563100000000  0.5030130000000  0.5674780000000 1.0
C      1  0.5231210000000  0.4770600000000  0.5919520000000 1.0
C      1  0.4635280000000  0.4771940000000  0.4642600000000 1.0
C      1  0.4162070000000  0.5394970000000  0.5497220000000 1.0
C      1  0.4450290000000  0.4744360000000  0.5701580000000 1.0
C      1  0.4738640000000  0.5790390000000  0.4753390000000 1.0
C      1  0.4805820000000  0.5787350000000  0.5629760000000 1.0
C      1  0.4459260000000  0.5630600000000  0.4417680000000 1.0
C      1  0.5329150000000  0.4595110000000  0.5211840000000 1.0
C      1  0.4401610000000  0.5857940000000  0.5030690000000 1.0
C      1  0.4729030000000  0.4169550000000  0.4405480000000 1.0
C      1  0.4926840000000  0.4526420000000  0.4071460000000 1.0
C      1  0.5193400000000  0.5466930000000  0.5732000000000 1.0
C      1  0.5352800000000  0.5099130000000  0.4735760000000 1.0
C      1  0.5895470000000  0.4841370000000  0.5405050000000 1.0
C      1  0.5850750000000  0.5122700000000  0.4915500000000 1.0
C      1  0.5070150000000  0.4581650000000  0.5050910000000 1.0
C      1  0.4877060000000  0.5068920000000  0.5607020000000 1.0
C      1  0.4206660000000  0.4844130000000  0.4431020000000 1.0
C      1  0.4737020000000  0.4620540000000  0.5693060000000 1.0
C      1  0.5122160000000  0.5809610000000  0.4552600000000 1.0
C      1  0.5157090000000  0.4312720000000  0.4416420000000 1.0
END
