TITL C-30367-4386-8 51.6862176835166 125000 -49.1115766931488 0 0 8 (Cs) n - 1
REM
REM in /rds/project/t2_vol4/rds-t2-cs072/BORA/CARBON/from-Arr/AIRSS/Generating-Clusters/GAP-ML-2020/Higher-Symm/SD-CG/HFTN-CG
REM
REM
REM
REM
REM
REM ./C.cell (b20cbc046b6831c77cfcea5457e17084)
REM AIRSS Version 0.9.1 bugfix July 2018 build 013d7b7c2542+ Fri, 06 Jul 2018 19:26:36 +0100
REM compiler GCC version 9.3.0
REM options -cpp -mtune=generic -march=x86-64 -g -O0
REM seed 1209260206 1943610643 -1232089060 1847653002 -1948595643 -963516308 313225203 -780678664 -189028170 -335320771 1745177231 185486646 612853130 -1175154553 1335064638 -243839400 -961891653 -124515141 -1887291412 -504003543 -2144059325 772940018 1037212352 1036045523 -102882756 1861561958 -701228167 -865454881 -1574169564 -1993872113 1031617651 1752022112 -291665891
REM
CELL 1.54180   50.00000   50.00000   50.00000   90.00000   90.00000   90.00000
LATT -1
SFAC C  
C      1  0.5088500000000  0.5299270000000  0.5114330000000 1.0
C      1  0.5299250000000  0.5138960000000  0.5085960000000 1.0
C      1  0.5299510000000  0.4933970000000  0.4935230000000 1.0
C      1  0.4944110000000  0.4690090000000  0.4933360000000 1.0
C      1  0.4751820000000  0.4763320000000  0.5083040000000 1.0
C      1  0.4677860000000  0.5017500000000  0.5112110000000 1.0
C      1  0.4851110000000  0.5205290000000  0.5090530000000 1.0
C      1  0.5177120000000  0.4732270000000  0.4823090000000 1.0
END
