TITL C-30374-4267-6 95.9980750706796 125000 -822.90288141053 0 0 115 (C1) n - 1
REM
REM in /rds/project/t2_vol4/rds-t2-cs072/BORA/CARBON/from-Arr/AIRSS/Generating-Clusters/GAP-ML-2020/Higher-Symm/SD-CG/HFTN-CG
REM
REM
REM
REM
REM
REM ./C.cell (b20cbc046b6831c77cfcea5457e17084)
REM AIRSS Version 0.9.1 bugfix July 2018 build 013d7b7c2542+ Fri, 06 Jul 2018 19:26:36 +0100
REM compiler GCC version 9.3.0
REM options -cpp -mtune=generic -march=x86-64 -g -O0
REM seed -1613951308 -1670694518 125421082 -1999184703 -1923361514 -1182304959 451225318 -476937557 529252941 -2038773061 -1915688178 892554416 431909846 1308638959 -1234517005 1711424392 -337040486 1203957481 -879982386 692738110 517911265 57923369 1411090581 -1060701352 -1494741149 -1772050448 -2008621273 -685090143 1512059956 843363931 1023778950 992951977 983004505
REM
CELL 1.54180   50.00000   50.00000   50.00000   90.00000   90.00000   90.00000
LATT -1
SFAC C  
C      1  0.4353870000000  0.5426830000000  0.4527220000000 1.0
C      1  0.5070410000000  0.5724510000000  0.4517610000000 1.0
C      1  0.5697550000000  0.5344160000000  0.4451760000000 1.0
C      1  0.5633470000000  0.4633430000000  0.4529430000000 1.0
C      1  0.5023050000000  0.4237030000000  0.4598850000000 1.0
C      1  0.4377490000000  0.4682530000000  0.4525460000000 1.0
C      1  0.4415730000000  0.5438180000000  0.5547880000000 1.0
C      1  0.5006090000000  0.5707970000000  0.5494970000000 1.0
C      1  0.5632330000000  0.5305840000000  0.5454920000000 1.0
C      1  0.5616280000000  0.4542690000000  0.5395250000000 1.0
C      1  0.4893710000000  0.4316490000000  0.5426860000000 1.0
C      1  0.4287360000000  0.4742490000000  0.5479480000000 1.0
C      1  0.5272550000000  0.5617880000000  0.4341350000000 1.0
C      1  0.5606820000000  0.5085620000000  0.4394340000000 1.0
C      1  0.5400020000000  0.4504740000000  0.4448430000000 1.0
C      1  0.4826060000000  0.4391340000000  0.4461610000000 1.0
C      1  0.4351240000000  0.4944950000000  0.4412000000000 1.0
C      1  0.4591110000000  0.5499710000000  0.4378430000000 1.0
C      1  0.5241900000000  0.5590080000000  0.5573780000000 1.0
C      1  0.5583000000000  0.5059100000000  0.5590950000000 1.0
C      1  0.5393700000000  0.4427550000000  0.5512620000000 1.0
C      1  0.4718560000000  0.4463250000000  0.5596960000000 1.0
C      1  0.4299870000000  0.4958970000000  0.5656440000000 1.0
C      1  0.4671890000000  0.5428450000000  0.5670830000000 1.0
C      1  0.5295300000000  0.5246210000000  0.5943870000000 1.0
C      1  0.5321250000000  0.4770580000000  0.5881030000000 1.0
C      1  0.5095100000000  0.4610350000000  0.5873360000000 1.0
C      1  0.4675140000000  0.4800580000000  0.5958260000000 1.0
C      1  0.4656000000000  0.5078640000000  0.6005160000000 1.0
C      1  0.5044360000000  0.5365140000000  0.5972030000000 1.0
C      1  0.5290310000000  0.5012060000000  0.4016520000000 1.0
C      1  0.5184550000000  0.4752450000000  0.4031310000000 1.0
C      1  0.4896540000000  0.4706700000000  0.4047350000000 1.0
C      1  0.4730150000000  0.4931390000000  0.4049100000000 1.0
C      1  0.4845300000000  0.5197160000000  0.4024370000000 1.0
C      1  0.5121490000000  0.5252490000000  0.4014740000000 1.0
C      1  0.4761680000000  0.5899210000000  0.5170490000000 1.0
C      1  0.5766360000000  0.5559700000000  0.5096200000000 1.0
C      1  0.5950810000000  0.4662870000000  0.5106640000000 1.0
C      1  0.5032020000000  0.4032950000000  0.5090730000000 1.0
C      1  0.4187340000000  0.4493840000000  0.5111880000000 1.0
C      1  0.4138650000000  0.5464340000000  0.5181830000000 1.0
C      1  0.4885060000000  0.5875190000000  0.4911100000000 1.0
C      1  0.5815200000000  0.5552070000000  0.4824860000000 1.0
C      1  0.5957780000000  0.4730450000000  0.4838050000000 1.0
C      1  0.5031210000000  0.3833770000000  0.4892760000000 1.0
C      1  0.4231460000000  0.4429680000000  0.4844510000000 1.0
C      1  0.4111610000000  0.5430070000000  0.4909180000000 1.0
C      1  0.5608030000000  0.4848740000000  0.5380450000000 1.0
C      1  0.5161900000000  0.4417640000000  0.5323740000000 1.0
C      1  0.4451350000000  0.4502530000000  0.5494220000000 1.0
C      1  0.4246070000000  0.5208290000000  0.5538350000000 1.0
C      1  0.4873440000000  0.5451120000000  0.5469400000000 1.0
C      1  0.5391830000000  0.5462250000000  0.5353020000000 1.0
C      1  0.5596440000000  0.4920750000000  0.4645030000000 1.0
C      1  0.5245900000000  0.4416550000000  0.4695360000000 1.0
C      1  0.4649020000000  0.4542810000000  0.4652320000000 1.0
C      1  0.4246250000000  0.5156940000000  0.4571020000000 1.0
C      1  0.4778260000000  0.5690840000000  0.4494000000000 1.0
C      1  0.5538020000000  0.5584830000000  0.4457600000000 1.0
C      1  0.5238080000000  0.4539440000000  0.4224900000000 1.0
C      1  0.4949390000000  0.4496540000000  0.4240520000000 1.0
C      1  0.4510870000000  0.5040710000000  0.4204070000000 1.0
C      1  0.4628470000000  0.5305320000000  0.4181880000000 1.0
C      1  0.5201060000000  0.5487910000000  0.4116290000000 1.0
C      1  0.5497970000000  0.4989940000000  0.4177560000000 1.0
C      1  0.5331860000000  0.4516260000000  0.5769190000000 1.0
C      1  0.4820890000000  0.4605090000000  0.5819310000000 1.0
C      1  0.4444300000000  0.4936820000000  0.5896770000000 1.0
C      1  0.4770150000000  0.5322430000000  0.5918920000000 1.0
C      1  0.5249620000000  0.5497480000000  0.5835820000000 1.0
C      1  0.5428140000000  0.5026110000000  0.5826010000000 1.0
C      1  0.5136920000000  0.4691780000000  0.4833430000000 1.0
C      1  0.4838170000000  0.4761810000000  0.4806000000000 1.0
C      1  0.4811600000000  0.5060440000000  0.4719470000000 1.0
C      1  0.5042150000000  0.5197200000000  0.4671010000000 1.0
C      1  0.5231610000000  0.5201910000000  0.4869890000000 1.0
C      1  0.5342500000000  0.4924780000000  0.4853090000000 1.0
C      1  0.5113040000000  0.4710350000000  0.5166020000000 1.0
C      1  0.4823690000000  0.4794450000000  0.5117690000000 1.0
C      1  0.4673100000000  0.5177840000000  0.4936820000000 1.0
C      1  0.4940270000000  0.5244050000000  0.5286650000000 1.0
C      1  0.5212040000000  0.5224710000000  0.5182530000000 1.0
C      1  0.5331990000000  0.4928260000000  0.5176850000000 1.0
C      1  0.5862670000000  0.5311930000000  0.4684810000000 1.0
C      1  0.5799030000000  0.4517940000000  0.4718590000000 1.0
C      1  0.5014440000000  0.3977380000000  0.4683310000000 1.0
C      1  0.4149400000000  0.4575880000000  0.4626540000000 1.0
C      1  0.4268490000000  0.5588110000000  0.4740150000000 1.0
C      1  0.5139150000000  0.5821920000000  0.4784300000000 1.0
C      1  0.5819850000000  0.5328980000000  0.5247780000000 1.0
C      1  0.5773540000000  0.4451110000000  0.5174940000000 1.0
C      1  0.4804240000000  0.4150180000000  0.5222020000000 1.0
C      1  0.4158740000000  0.4754430000000  0.5217220000000 1.0
C      1  0.4349190000000  0.5603430000000  0.5313630000000 1.0
C      1  0.4895230000000  0.5936510000000  0.5409580000000 1.0
C      1  0.4102410000000  0.5210680000000  0.5296470000000 1.0
C      1  0.4495910000000  0.5778040000000  0.5141830000000 1.0
C      1  0.5511490000000  0.5668650000000  0.5148110000000 1.0
C      1  0.5877810000000  0.4884320000000  0.5257580000000 1.0
C      1  0.5244670000000  0.4205710000000  0.5121570000000 1.0
C      1  0.4380220000000  0.4354150000000  0.5268060000000 1.0
C      1  0.4113530000000  0.5153080000000  0.4833000000000 1.0
C      1  0.4681520000000  0.5813680000000  0.4726660000000 1.0
C      1  0.5598090000000  0.5702260000000  0.4702170000000 1.0
C      1  0.5867250000000  0.5036850000000  0.4809320000000 1.0
C      1  0.5412370000000  0.4269560000000  0.4902900000000 1.0
C      1  0.4503530000000  0.4336380000000  0.4834020000000 1.0
C      1  0.4560390000000  0.4224660000000  0.5097040000000 1.0
C      1  0.5912590000000  0.5108950000000  0.5103200000000 1.0
C      1  0.5682550000000  0.4344970000000  0.4924220000000 1.0
C      1  0.4089160000000  0.5006160000000  0.5094570000000 1.0
C      1  0.4440960000000  0.5770350000000  0.4860090000000 1.0
C      1  0.5404980000000  0.5780080000000  0.4895510000000 1.0
C      1  0.4735030000000  0.5067450000000  0.5182200000000 1.0
END
