TITL C-30379-4327-7 -0.317207242230825 125000 -1144.23160401966 0 0 168 (Cs) n - 1
REM
REM in /rds/project/t2_vol4/rds-t2-cs072/BORA/CARBON/from-Arr/AIRSS/Generating-Clusters/GAP-ML-2020/Higher-Symm/SD-CG/HFTN-CG
REM
REM
REM
REM
REM
REM ./C.cell (b20cbc046b6831c77cfcea5457e17084)
REM AIRSS Version 0.9.1 bugfix July 2018 build 013d7b7c2542+ Fri, 06 Jul 2018 19:26:36 +0100
REM compiler GCC version 9.3.0
REM options -cpp -mtune=generic -march=x86-64 -g -O0
REM seed -1128897012 -528689927 1654342992 1830703117 2109675432 1823031569 1254402129 -2014535160 -1706214521 448694480 -843238761 -568435463 196441081 -435908367 -1553121422 455970263 1736947811 1540099155 114326652 -66579071 -473671741 1759301765 1474648064 169652980 -1582630469 1842359584 571965313 649436350 -1114395861 122177702 -1646996001 -1577603070 665015115
REM
CELL 1.54180   50.00000   50.00000   50.00000   90.00000   90.00000   90.00000
LATT -1
SFAC C  
C      1  0.5150640000000  0.4861660000000  0.5932030000000 1.0
C      1  0.4850590000000  0.5138290000000  0.5931010000000 1.0
C      1  0.4850590000000  0.4861700000000  0.5931010000000 1.0
C      1  0.5150640000000  0.5138320000000  0.5932030000000 1.0
C      1  0.4224760000000  0.5536120000000  0.5649860000000 1.0
C      1  0.5777020000000  0.4464360000000  0.5651630000000 1.0
C      1  0.5777040000000  0.5535610000000  0.5651630000000 1.0
C      1  0.4224740000000  0.4463890000000  0.5649850000000 1.0
C      1  0.5595590000000  0.4729040000000  0.4667190000000 1.0
C      1  0.4388550000000  0.5268800000000  0.4663090000000 1.0
C      1  0.4388540000000  0.4731220000000  0.4663080000000 1.0
C      1  0.5595600000000  0.5270940000000  0.4667190000000 1.0
C      1  0.4384120000000  0.4074160000000  0.5287290000000 1.0
C      1  0.5619130000000  0.5924420000000  0.5287640000000 1.0
C      1  0.5619100000000  0.4075560000000  0.5287630000000 1.0
C      1  0.4384150000000  0.5925860000000  0.5287310000000 1.0
C      1  0.5164700000000  0.5581370000000  0.4399110000000 1.0
C      1  0.4887670000000  0.4471580000000  0.4453720000000 1.0
C      1  0.4887680000000  0.5528430000000  0.4453720000000 1.0
C      1  0.5164680000000  0.4418640000000  0.4399100000000 1.0
C      1  0.5644030000000  0.5234070000000  0.4180070000000 1.0
C      1  0.4331480000000  0.4853950000000  0.4133420000000 1.0
C      1  0.4331480000000  0.5146080000000  0.4133430000000 1.0
C      1  0.5644030000000  0.4765920000000  0.4180060000000 1.0
C      1  0.4629690000000  0.5819890000000  0.4180820000000 1.0
C      1  0.5394250000000  0.4154780000000  0.4159130000000 1.0
C      1  0.5394270000000  0.5845220000000  0.4159140000000 1.0
C      1  0.4629670000000  0.4180130000000  0.4180810000000 1.0
C      1  0.5554040000000  0.4337660000000  0.5754390000000 1.0
C      1  0.4447470000000  0.5661940000000  0.5753120000000 1.0
C      1  0.4447450000000  0.4338070000000  0.5753110000000 1.0
C      1  0.5554060000000  0.5662310000000  0.5754400000000 1.0
C      1  0.4247730000000  0.4269400000000  0.5107580000000 1.0
C      1  0.5752370000000  0.5730250000000  0.5106600000000 1.0
C      1  0.5752350000000  0.4269730000000  0.5106590000000 1.0
C      1  0.4247750000000  0.5730620000000  0.5107590000000 1.0
C      1  0.4863940000000  0.4199470000000  0.4586470000000 1.0
C      1  0.5153810000000  0.5825430000000  0.4571550000000 1.0
C      1  0.5153780000000  0.4174580000000  0.4571540000000 1.0
C      1  0.4863960000000  0.5800540000000  0.4586480000000 1.0
C      1  0.4061470000000  0.4842580000000  0.5122090000000 1.0
C      1  0.5938850000000  0.5157630000000  0.5122750000000 1.0
C      1  0.5938840000000  0.4842350000000  0.5122750000000 1.0
C      1  0.4061480000000  0.5157440000000  0.5122090000000 1.0
C      1  0.4350410000000  0.4754980000000  0.5166760000000 1.0
C      1  0.5650930000000  0.5245810000000  0.5170050000000 1.0
C      1  0.5650920000000  0.4754170000000  0.5170050000000 1.0
C      1  0.4350420000000  0.5245030000000  0.5166760000000 1.0
C      1  0.5523760000000  0.4188090000000  0.4673080000000 1.0
C      1  0.4484590000000  0.5804290000000  0.4678520000000 1.0
C      1  0.4484560000000  0.4195730000000  0.4678510000000 1.0
C      1  0.5523780000000  0.5811900000000  0.4673090000000 1.0
C      1  0.3980290000000  0.5140090000000  0.5419060000000 1.0
C      1  0.6020410000000  0.4860140000000  0.5420610000000 1.0
C      1  0.6020410000000  0.5139830000000  0.5420610000000 1.0
C      1  0.3980290000000  0.4859930000000  0.5419060000000 1.0
C      1  0.5150990000000  0.5342550000000  0.4057550000000 1.0
C      1  0.4852780000000  0.4663890000000  0.4062870000000 1.0
C      1  0.4852790000000  0.5336130000000  0.4062870000000 1.0
C      1  0.5150980000000  0.4657460000000  0.4057540000000 1.0
C      1  0.5680720000000  0.4425550000000  0.4675090000000 1.0
C      1  0.4314370000000  0.5574360000000  0.4680850000000 1.0
C      1  0.4314350000000  0.4425660000000  0.4680850000000 1.0
C      1  0.5680740000000  0.5574430000000  0.4675090000000 1.0
C      1  0.4640550000000  0.5155730000000  0.4178100000000 1.0
C      1  0.5356540000000  0.4840650000000  0.4181120000000 1.0
C      1  0.5356550000000  0.5159350000000  0.4181120000000 1.0
C      1  0.4640540000000  0.4844290000000  0.4178090000000 1.0
C      1  0.5117310000000  0.4850770000000  0.4689870000000 1.0
C      1  0.4858470000000  0.5270600000000  0.4630410000000 1.0
C      1  0.4858460000000  0.4729410000000  0.4630410000000 1.0
C      1  0.5117310000000  0.5149230000000  0.4689880000000 1.0
C      1  0.5160980000000  0.5545330000000  0.5023800000000 1.0
C      1  0.4838820000000  0.4448980000000  0.5029770000000 1.0
C      1  0.4838840000000  0.5551030000000  0.5029770000000 1.0
C      1  0.5160970000000  0.4454670000000  0.5023790000000 1.0
C      1  0.4842800000000  0.5834260000000  0.5422370000000 1.0
C      1  0.5158970000000  0.4166730000000  0.5421710000000 1.0
C      1  0.5158990000000  0.5833260000000  0.5421720000000 1.0
C      1  0.4842780000000  0.4165730000000  0.5422360000000 1.0
C      1  0.5815100000000  0.5269790000000  0.5585830000000 1.0
C      1  0.4185630000000  0.4729380000000  0.5583550000000 1.0
C      1  0.4185640000000  0.5270630000000  0.5583560000000 1.0
C      1  0.5815090000000  0.4730180000000  0.5585820000000 1.0
C      1  0.4498860000000  0.5158010000000  0.4925270000000 1.0
C      1  0.5499530000000  0.4843200000000  0.4935890000000 1.0
C      1  0.5499540000000  0.5156790000000  0.4935890000000 1.0
C      1  0.4498860000000  0.4842000000000  0.4925270000000 1.0
C      1  0.5301450000000  0.5559280000000  0.5298000000000 1.0
C      1  0.4698140000000  0.4440780000000  0.5301360000000 1.0
C      1  0.4698160000000  0.5559230000000  0.5301370000000 1.0
C      1  0.5301430000000  0.4440710000000  0.5297990000000 1.0
C      1  0.4713600000000  0.5608850000000  0.5823340000000 1.0
C      1  0.5287740000000  0.4390300000000  0.5825250000000 1.0
C      1  0.5287760000000  0.5609680000000  0.5825250000000 1.0
C      1  0.4713590000000  0.4391140000000  0.5823330000000 1.0
C      1  0.4620450000000  0.4096410000000  0.4439990000000 1.0
C      1  0.5399800000000  0.5924640000000  0.4424830000000 1.0
C      1  0.5399770000000  0.4075350000000  0.4424820000000 1.0
C      1  0.4620470000000  0.5903610000000  0.4440000000000 1.0
C      1  0.5560890000000  0.5149410000000  0.5449730000000 1.0
C      1  0.4438620000000  0.4850660000000  0.5447950000000 1.0
C      1  0.4438620000000  0.5149350000000  0.5447950000000 1.0
C      1  0.5560880000000  0.4850560000000  0.5449730000000 1.0
C      1  0.5163330000000  0.4648280000000  0.5732110000000 1.0
C      1  0.4837720000000  0.5351090000000  0.5731050000000 1.0
C      1  0.4837710000000  0.4648900000000  0.5731040000000 1.0
C      1  0.5163340000000  0.5351710000000  0.5732110000000 1.0
C      1  0.4744830000000  0.4196570000000  0.4857350000000 1.0
C      1  0.5264740000000  0.5804980000000  0.4846760000000 1.0
C      1  0.5264720000000  0.4195020000000  0.4846750000000 1.0
C      1  0.4744850000000  0.5803440000000  0.4857360000000 1.0
C      1  0.5991300000000  0.4676950000000  0.4877750000000 1.0
C      1  0.4003130000000  0.5323430000000  0.4877620000000 1.0
C      1  0.4003120000000  0.4676600000000  0.4877610000000 1.0
C      1  0.5991310000000  0.5323030000000  0.4877760000000 1.0
C      1  0.5157110000000  0.3975820000000  0.5024370000000 1.0
C      1  0.4851010000000  0.6024770000000  0.5026000000000 1.0
C      1  0.4850980000000  0.3975230000000  0.5025990000000 1.0
C      1  0.5157140000000  0.6024170000000  0.5024380000000 1.0
C      1  0.5226120000000  0.4744180000000  0.4957520000000 1.0
C      1  0.4766700000000  0.5277110000000  0.4937650000000 1.0
C      1  0.4766690000000  0.4722900000000  0.4937650000000 1.0
C      1  0.5226130000000  0.5255810000000  0.4957520000000 1.0
C      1  0.4751450000000  0.4428680000000  0.4182760000000 1.0
C      1  0.5245050000000  0.5613940000000  0.4126730000000 1.0
C      1  0.5245040000000  0.4386060000000  0.4126720000000 1.0
C      1  0.4751460000000  0.5571330000000  0.4182770000000 1.0
C      1  0.4417740000000  0.4472850000000  0.5191380000000 1.0
C      1  0.5583450000000  0.5527170000000  0.5193990000000 1.0
C      1  0.5583440000000  0.4472820000000  0.5193980000000 1.0
C      1  0.4417760000000  0.5527160000000  0.5191390000000 1.0
C      1  0.5331220000000  0.6007230000000  0.5253570000000 1.0
C      1  0.4672410000000  0.3991770000000  0.5253640000000 1.0
C      1  0.4672430000000  0.6008230000000  0.5253650000000 1.0
C      1  0.5331190000000  0.3992760000000  0.5253550000000 1.0
C      1  0.5142070000000  0.5147830000000  0.5238810000000 1.0
C      1  0.4849430000000  0.4851080000000  0.5230800000000 1.0
C      1  0.4849430000000  0.5148930000000  0.5230800000000 1.0
C      1  0.5142060000000  0.4852160000000  0.5238810000000 1.0
C      1  0.4117640000000  0.4410960000000  0.4881280000000 1.0
C      1  0.5875940000000  0.5587690000000  0.4877820000000 1.0
C      1  0.5875920000000  0.4412280000000  0.4877810000000 1.0
C      1  0.4117660000000  0.5589070000000  0.4881290000000 1.0
C      1  0.5875560000000  0.5154730000000  0.4637140000000 1.0
C      1  0.4113160000000  0.4844180000000  0.4634450000000 1.0
C      1  0.4113160000000  0.5155850000000  0.4634450000000 1.0
C      1  0.5875560000000  0.4845250000000  0.4637140000000 1.0
C      1  0.5671270000000  0.4190610000000  0.5552910000000 1.0
C      1  0.4331830000000  0.5809540000000  0.5551410000000 1.0
C      1  0.4331810000000  0.4190470000000  0.5551400000000 1.0
C      1  0.5671290000000  0.5809370000000  0.5552920000000 1.0
C      1  0.4860780000000  0.4175550000000  0.5721000000000 1.0
C      1  0.5140870000000  0.5824400000000  0.5721150000000 1.0
C      1  0.5140850000000  0.4175590000000  0.5721130000000 1.0
C      1  0.4860800000000  0.5824450000000  0.5721010000000 1.0
C      1  0.5366430000000  0.4844890000000  0.4500200000000 1.0
C      1  0.4621090000000  0.5150250000000  0.4491360000000 1.0
C      1  0.4621080000000  0.4849760000000  0.4491360000000 1.0
C      1  0.5366430000000  0.5155110000000  0.4500200000000 1.0
C      1  0.4713280000000  0.4707730000000  0.5455240000000 1.0
C      1  0.5285100000000  0.5293050000000  0.5456700000000 1.0
C      1  0.5285100000000  0.4706940000000  0.5456700000000 1.0
C      1  0.4713290000000  0.5292270000000  0.5455240000000 1.0
C      1  0.5857410000000  0.5145580000000  0.4330480000000 1.0
C      1  0.4105450000000  0.4851490000000  0.4325920000000 1.0
C      1  0.4105450000000  0.5148550000000  0.4325920000000 1.0
C      1  0.5857410000000  0.4854400000000  0.4330480000000 1.0
END
