TITL C-30361-4468-4 -0.00241525033183075 125000 -129.754603659978 0 0 20 (D2h) n - 1
REM
REM in /rds/project/t2_vol4/rds-t2-cs072/BORA/CARBON/from-Arr/AIRSS/Generating-Clusters/GAP-ML-2020/Higher-Symm/SD-CG/HFTN-CG
REM
REM
REM
REM
REM
REM ./C.cell (b20cbc046b6831c77cfcea5457e17084)
REM AIRSS Version 0.9.1 bugfix July 2018 build 013d7b7c2542+ Fri, 06 Jul 2018 19:26:36 +0100
REM compiler GCC version 9.3.0
REM options -cpp -mtune=generic -march=x86-64 -g -O0
REM seed -736891568 1089401436 -612237977 -1201297126 -1753798782 -641143856 1839157548 -35369992 -1047031209 2012287543 418601613 500899416 -983822125 1670153860 1980172311 -1708786677 665070602 -644107123 -309612707 -105703156 -388543934 544139380 168783778 -1082616363 -301860449 1495608622 -1590851684 -1802132029 1077741114 603375668 -643907872 1553457685 -693671267
REM
CELL 1.54180   50.00000   50.00000   50.00000   90.00000   90.00000   90.00000
LATT -1
SFAC C  
C      1  0.5264540000000  0.5124710000000  0.5403210000000 1.0
C      1  0.4735460000000  0.5124730000000  0.4596790000000 1.0
C      1  0.5264540000000  0.4875270000000  0.5403210000000 1.0
C      1  0.4735460000000  0.4875290000000  0.4596790000000 1.0
C      1  0.4735500000000  0.5124710000000  0.5403240000000 1.0
C      1  0.5264500000000  0.5124730000000  0.4596770000000 1.0
C      1  0.4735500000000  0.4875270000000  0.5403230000000 1.0
C      1  0.5264500000000  0.4875290000000  0.4596760000000 1.0
C      1  0.4856410000000  0.4671940000000  0.5245680000000 1.0
C      1  0.5143590000000  0.4671960000000  0.4754300000000 1.0
C      1  0.4856410000000  0.5328040000000  0.5245700000000 1.0
C      1  0.5143590000000  0.5328060000000  0.4754320000000 1.0
C      1  0.5143620000000  0.4671940000000  0.5245670000000 1.0
C      1  0.4856380000000  0.4671960000000  0.4754320000000 1.0
C      1  0.5143620000000  0.5328040000000  0.5245680000000 1.0
C      1  0.4856380000000  0.5328060000000  0.4754330000000 1.0
C      1  0.4754090000000  0.5419710000000  0.5000020000000 1.0
C      1  0.5245910000000  0.4580290000000  0.4999980000000 1.0
C      1  0.5245910000000  0.5419710000000  0.5000000000000 1.0
C      1  0.4754090000000  0.4580290000000  0.5000000000000 1.0
END
