TITL C-30356-4395-2 -11.4041360018713 125000 -136.430125842662 0 0 21 (C1) n - 1
REM
REM in /rds/project/t2_vol4/rds-t2-cs072/BORA/CARBON/from-Arr/AIRSS/Generating-Clusters/GAP-ML-2020/Higher-Symm/SD-CG/HFTN-CG
REM
REM
REM
REM
REM
REM ./C.cell (b20cbc046b6831c77cfcea5457e17084)
REM AIRSS Version 0.9.1 bugfix July 2018 build 013d7b7c2542+ Fri, 06 Jul 2018 19:26:36 +0100
REM compiler GCC version 9.3.0
REM options -cpp -mtune=generic -march=x86-64 -g -O0
REM seed -1569704325 -1684535706 468815806 1232158309 121160120 118442837 1795021929 -1538665648 1104503736 488186893 -1164456560 1297292461 -428941150 -922249516 -192236151 -1008080484 563122344 806178433 177729963 -1252894806 -1467859934 -1269666384 1352067848 -1296138900 -1878338810 2131632226 1747966034 1240725875 -838428137 784185398 1144113408 -131943203 -949309713
REM
CELL 1.54180   50.00000   50.00000   50.00000   90.00000   90.00000   90.00000
LATT -1
SFAC C  
C      1  0.4989370000000  0.4838270000000  0.5608420000000 1.0
C      1  0.5149430000000  0.5396440000000  0.5315100000000 1.0
C      1  0.4798690000000  0.5481600000000  0.4680880000000 1.0
C      1  0.5160150000000  0.4838670000000  0.4462840000000 1.0
C      1  0.4826120000000  0.4526000000000  0.5028540000000 1.0
C      1  0.5379560000000  0.4731870000000  0.4339300000000 1.0
C      1  0.4862720000000  0.4253800000000  0.4989760000000 1.0
C      1  0.5107900000000  0.4720580000000  0.5831220000000 1.0
C      1  0.5349570000000  0.5581270000000  0.5359740000000 1.0
C      1  0.4802720000000  0.5747390000000  0.4608050000000 1.0
C      1  0.5115840000000  0.5641070000000  0.5441900000000 1.0
C      1  0.4576870000000  0.5638390000000  0.4648780000000 1.0
C      1  0.5151590000000  0.4666410000000  0.4248080000000 1.0
C      1  0.4629300000000  0.4347900000000  0.4951720000000 1.0
C      1  0.4872310000000  0.4816410000000  0.5860290000000 1.0
C      1  0.4912790000000  0.4782460000000  0.5089530000000 1.0
C      1  0.4985970000000  0.4910520000000  0.5341620000000 1.0
C      1  0.5059450000000  0.5157380000000  0.5208340000000 1.0
C      1  0.4903910000000  0.5232280000000  0.4718650000000 1.0
C      1  0.5057710000000  0.5014920000000  0.4645060000000 1.0
C      1  0.4984020000000  0.5038470000000  0.4936890000000 1.0
END
