TITL C-30358-4318-6 0.0237528332552656 125000 -55.6301062816134 0 0 9 (Cs) n - 1
REM
REM in /rds/project/t2_vol4/rds-t2-cs072/BORA/CARBON/from-Arr/AIRSS/Generating-Clusters/GAP-ML-2020/Higher-Symm/SD-CG/HFTN-CG
REM
REM
REM
REM
REM
REM ./C.cell (b20cbc046b6831c77cfcea5457e17084)
REM AIRSS Version 0.9.1 bugfix July 2018 build 013d7b7c2542+ Fri, 06 Jul 2018 19:26:36 +0100
REM compiler GCC version 9.3.0
REM options -cpp -mtune=generic -march=x86-64 -g -O0
REM seed 16433860 275462288 842064908 2102895529 -1865609321 -290288797 23106297 534791830 175043777 2119166824 1436999127 -362049980 1330805570 -458759163 -2090830714 651110423 1476129236 533938535 526340144 895176027 -2102384326 1453821035 1726154110 -233013438 413903267 -820422490 1592335363 469176385 1514851947 -1666485041 -1240374885 -855342565 -1499638774
REM
CELL 1.54180   50.00000   50.00000   50.00000   90.00000   90.00000   90.00000
LATT -1
SFAC C  
C      1  0.5220020000000  0.4859380000000  0.4826330000000 1.0
C      1  0.5300230000000  0.5090730000000  0.4908710000000 1.0
C      1  0.4863620000000  0.5157700000000  0.5205970000000 1.0
C      1  0.4661840000000  0.4978640000000  0.5195300000000 1.0
C      1  0.4717710000000  0.4771180000000  0.5051830000000 1.0
C      1  0.4972720000000  0.5409090000000  0.5179910000000 1.0
C      1  0.5131300000000  0.5204700000000  0.5085790000000 1.0
C      1  0.5081090000000  0.4645970000000  0.4796600000000 1.0
C      1  0.4843410000000  0.4604240000000  0.4903300000000 1.0
END
