TITL C-30376-4302-5 8.04992694919117 125000 -283.07601263947 0 0 44 (D3) n - 1
REM
REM in /rds/project/t2_vol4/rds-t2-cs072/BORA/CARBON/from-Arr/AIRSS/Generating-Clusters/GAP-ML-2020/Higher-Symm/SD-CG/HFTN-CG
REM
REM
REM
REM
REM
REM ./C.cell (b20cbc046b6831c77cfcea5457e17084)
REM AIRSS Version 0.9.1 bugfix July 2018 build 013d7b7c2542+ Fri, 06 Jul 2018 19:26:36 +0100
REM compiler GCC version 9.3.0
REM options -cpp -mtune=generic -march=x86-64 -g -O0
REM seed -2080192220 159819707 1563664426 -1293993598 1609128288 -421211677 1433661249 1861250777 379690882 -1438224065 -475829369 -610080192 -1443131980 964022805 2078450413 -1841157609 -384114997 -2082714438 951674585 265133568 1202136997 -1769782883 -2047206476 -2002839956 -263709976 2131481496 117391606 1108760843 -1071148788 -1022105624 539062293 902900108 964229116
REM
CELL 1.54180   50.00000   50.00000   50.00000   90.00000   90.00000   90.00000
LATT -1
SFAC C  
C      1  0.4498980000000  0.4696750000000  0.5277190000000 1.0
C      1  0.4498900000000  0.5388260000000  0.5120300000000 1.0
C      1  0.4499010000000  0.4906630000000  0.4599880000000 1.0
C      1  0.5487400000000  0.4696840000000  0.4721170000000 1.0
C      1  0.5487290000000  0.5388370000000  0.4877970000000 1.0
C      1  0.5487310000000  0.4906820000000  0.5398460000000 1.0
C      1  0.5200420000000  0.5061400000000  0.4699970000000 1.0
C      1  0.5200440000000  0.4706130000000  0.5093280000000 1.0
C      1  0.5200360000000  0.5224380000000  0.5204290000000 1.0
C      1  0.4785860000000  0.5061380000000  0.5298350000000 1.0
C      1  0.4785940000000  0.4706070000000  0.4905090000000 1.0
C      1  0.4785880000000  0.5224300000000  0.4794000000000 1.0
C      1  0.5638870000000  0.4978980000000  0.5160600000000 1.0
C      1  0.5638870000000  0.5146320000000  0.4934440000000 1.0
C      1  0.5638910000000  0.4866790000000  0.4902600000000 1.0
C      1  0.4347430000000  0.4978780000000  0.4837730000000 1.0
C      1  0.4347390000000  0.5146160000000  0.5063860000000 1.0
C      1  0.4347420000000  0.4866640000000  0.5095750000000 1.0
C      1  0.4790030000000  0.5635260000000  0.4749960000000 1.0
C      1  0.4790200000000  0.4462440000000  0.4571210000000 1.0
C      1  0.4790060000000  0.4894050000000  0.5676270000000 1.0
C      1  0.5196100000000  0.5635350000000  0.5248280000000 1.0
C      1  0.5196240000000  0.4462560000000  0.5427190000000 1.0
C      1  0.5196270000000  0.4894010000000  0.4322070000000 1.0
C      1  0.4598020000000  0.4646880000000  0.4660020000000 1.0
C      1  0.4597930000000  0.4878720000000  0.5472090000000 1.0
C      1  0.4597900000000  0.5466070000000  0.4865280000000 1.0
C      1  0.5388370000000  0.4647040000000  0.5338350000000 1.0
C      1  0.5388400000000  0.4878760000000  0.4526250000000 1.0
C      1  0.5388270000000  0.5466190000000  0.5132980000000 1.0
C      1  0.4729690000000  0.5344700000000  0.5292450000000 1.0
C      1  0.4729790000000  0.5077530000000  0.4551580000000 1.0
C      1  0.4729810000000  0.4569500000000  0.5153390000000 1.0
C      1  0.5256510000000  0.5344720000000  0.4705820000000 1.0
C      1  0.5256490000000  0.5077670000000  0.5446730000000 1.0
C      1  0.5256600000000  0.4569550000000  0.4845000000000 1.0
C      1  0.4997040000000  0.5441810000000  0.4734720000000 1.0
C      1  0.4997160000000  0.4546000000000  0.4746410000000 1.0
C      1  0.4997040000000  0.5004030000000  0.5516360000000 1.0
C      1  0.4989140000000  0.5441850000000  0.5263540000000 1.0
C      1  0.4989260000000  0.4546030000000  0.5251980000000 1.0
C      1  0.4989260000000  0.5003950000000  0.4481960000000 1.0
C      1  0.4849940000000  0.4997260000000  0.4999150000000 1.0
C      1  0.5136350000000  0.4997300000000  0.4999170000000 1.0
END
