TITL C-30365-4240-5 -24.4273845519702 125000 -322.546460241514 0 0 48 (C1) n - 1
REM
REM in /rds/project/t2_vol4/rds-t2-cs072/BORA/CARBON/from-Arr/AIRSS/Generating-Clusters/GAP-ML-2020/Higher-Symm/SD-CG/HFTN-CG
REM
REM
REM
REM
REM
REM ./C.cell (b20cbc046b6831c77cfcea5457e17084)
REM AIRSS Version 0.9.1 bugfix July 2018 build 013d7b7c2542+ Fri, 06 Jul 2018 19:26:36 +0100
REM compiler GCC version 9.3.0
REM options -cpp -mtune=generic -march=x86-64 -g -O0
REM seed -1740115107 -331647536 1092372437 -997998332 1542965830 -1224277760 -761609480 221091454 1964347665 -1605939811 -828474519 -1096629173 1098583371 -1821432495 2030987389 1678968283 -1876719665 -545762741 -967110183 1957003528 -627497084 362464417 -1547246537 1185712477 1597688079 1708035660 -1651838452 -2075421761 -1772280077 -308834357 773301138 1053940610 -750385845
REM
CELL 1.54180   50.00000   50.00000   50.00000   90.00000   90.00000   90.00000
LATT -1
SFAC C  
C      1  0.5185040000000  0.5576780000000  0.5335420000000 1.0
C      1  0.5265210000000  0.5134220000000  0.5658530000000 1.0
C      1  0.5334480000000  0.4567090000000  0.5373630000000 1.0
C      1  0.5284500000000  0.4403170000000  0.5146580000000 1.0
C      1  0.5219120000000  0.4560520000000  0.4546280000000 1.0
C      1  0.5089360000000  0.5102300000000  0.4430100000000 1.0
C      1  0.5090600000000  0.5515990000000  0.4776230000000 1.0
C      1  0.5465880000000  0.5549030000000  0.5254650000000 1.0
C      1  0.5536550000000  0.5160890000000  0.5566060000000 1.0
C      1  0.5607860000000  0.4681160000000  0.5416170000000 1.0
C      1  0.5742830000000  0.4615550000000  0.4960630000000 1.0
C      1  0.5481680000000  0.4666170000000  0.4518590000000 1.0
C      1  0.5369570000000  0.5135050000000  0.4415080000000 1.0
C      1  0.5372250000000  0.5527630000000  0.4760500000000 1.0
C      1  0.4827120000000  0.5006720000000  0.5416560000000 1.0
C      1  0.4848590000000  0.4730260000000  0.5322300000000 1.0
C      1  0.4826150000000  0.4595150000000  0.5078000000000 1.0
C      1  0.4786390000000  0.4678120000000  0.4803280000000 1.0
C      1  0.4686880000000  0.4917300000000  0.4692860000000 1.0
C      1  0.4691590000000  0.5280300000000  0.5004620000000 1.0
C      1  0.4785140000000  0.5254550000000  0.5282700000000 1.0
C      1  0.5653180000000  0.4910170000000  0.5556530000000 1.0
C      1  0.5799320000000  0.4645260000000  0.5213610000000 1.0
C      1  0.5670080000000  0.4612950000000  0.4720040000000 1.0
C      1  0.5499650000000  0.4896830000000  0.4361400000000 1.0
C      1  0.5511500000000  0.5334940000000  0.4584640000000 1.0
C      1  0.5509830000000  0.5608420000000  0.4987980000000 1.0
C      1  0.5618350000000  0.5387200000000  0.5422800000000 1.0
C      1  0.4877810000000  0.5423840000000  0.4857780000000 1.0
C      1  0.4977270000000  0.5451730000000  0.5350500000000 1.0
C      1  0.5077900000000  0.4967510000000  0.5577680000000 1.0
C      1  0.5099600000000  0.4693120000000  0.5475040000000 1.0
C      1  0.5061910000000  0.4431780000000  0.5001850000000 1.0
C      1  0.5026440000000  0.4524290000000  0.4719290000000 1.0
C      1  0.4872190000000  0.5026930000000  0.4513120000000 1.0
C      1  0.5756680000000  0.5255750000000  0.4674770000000 1.0
C      1  0.3998320000000  0.5089180000000  0.4876380000000 1.0
C      1  0.4248400000000  0.5088770000000  0.4873940000000 1.0
C      1  0.6337050000000  0.4885140000000  0.4998200000000 1.0
C      1  0.6800610000000  0.4742710000000  0.5175610000000 1.0
C      1  0.6144720000000  0.5004200000000  0.4894080000000 1.0
C      1  0.3735970000000  0.5090030000000  0.4879100000000 1.0
C      1  0.3484660000000  0.5090470000000  0.4882780000000 1.0
C      1  0.2967710000000  0.5091820000000  0.4888720000000 1.0
C      1  0.4518830000000  0.5098880000000  0.4856070000000 1.0
C      1  0.3222470000000  0.5090950000000  0.4886090000000 1.0
C      1  0.5952820000000  0.5140220000000  0.4774140000000 1.0
C      1  0.6573710000000  0.4812220000000  0.5085050000000 1.0
END
