TITL C-30355-4237-2 -0.0827842855017841 125000 -711.468137255741 0 0 101 (C1) n - 1
REM
REM in /rds/project/t2_vol4/rds-t2-cs072/BORA/CARBON/from-Arr/AIRSS/Generating-Clusters/GAP-ML-2020/Higher-Symm/SD-CG/HFTN-CG
REM
REM
REM
REM
REM
REM ./C.cell (b20cbc046b6831c77cfcea5457e17084)
REM AIRSS Version 0.9.1 bugfix July 2018 build 013d7b7c2542+ Fri, 06 Jul 2018 19:26:36 +0100
REM compiler GCC version 9.3.0
REM options -cpp -mtune=generic -march=x86-64 -g -O0
REM seed -217110346 -1115486142 -1356478936 -1035759997 85461596 1489677258 1316318608 -286097645 -1299974694 -203791823 1525732252 -280142736 -1642882643 1826874829 -1776567809 1759954558 -1296905782 -160665439 -1276590820 267309857 1574885851 -807423860 916685047 1888533686 -604558104 362921250 2001855924 -781492467 -1458488912 -106772535 358483631 -855861096 970246237
REM
CELL 1.54180   50.00000   50.00000   50.00000   90.00000   90.00000   90.00000
LATT -1
SFAC C  
C      1  0.5587720000000  0.4558420000000  0.5559730000000 1.0
C      1  0.4925730000000  0.5828480000000  0.5073900000000 1.0
C      1  0.4110750000000  0.5026350000000  0.5384940000000 1.0
C      1  0.5207280000000  0.5797930000000  0.5046310000000 1.0
C      1  0.4760650000000  0.5833800000000  0.4843270000000 1.0
C      1  0.4245100000000  0.5174520000000  0.4838080000000 1.0
C      1  0.5652160000000  0.5457880000000  0.4989600000000 1.0
C      1  0.5045310000000  0.4549770000000  0.4310950000000 1.0
C      1  0.5493050000000  0.4268270000000  0.5107240000000 1.0
C      1  0.4570530000000  0.5569280000000  0.5328960000000 1.0
C      1  0.4554840000000  0.4611960000000  0.4563550000000 1.0
C      1  0.4798540000000  0.5309330000000  0.5830360000000 1.0
C      1  0.5020640000000  0.4972100000000  0.4601320000000 1.0
C      1  0.5327090000000  0.4916410000000  0.5754780000000 1.0
C      1  0.4723660000000  0.5617930000000  0.4425340000000 1.0
C      1  0.5596280000000  0.5429590000000  0.4526670000000 1.0
C      1  0.5196970000000  0.5066110000000  0.5026270000000 1.0
C      1  0.5202000000000  0.5165920000000  0.5833760000000 1.0
C      1  0.4917060000000  0.4925440000000  0.5389640000000 1.0
C      1  0.4526090000000  0.4583070000000  0.5328600000000 1.0
C      1  0.4223090000000  0.5275560000000  0.5338600000000 1.0
C      1  0.4816530000000  0.5379750000000  0.5262020000000 1.0
C      1  0.5835840000000  0.4720580000000  0.4605630000000 1.0
C      1  0.4900430000000  0.4825340000000  0.5939270000000 1.0
C      1  0.4224510000000  0.4856600000000  0.5584930000000 1.0
C      1  0.5154240000000  0.5759590000000  0.4553250000000 1.0
C      1  0.4648040000000  0.4836110000000  0.5455080000000 1.0
C      1  0.5122700000000  0.4490120000000  0.5610470000000 1.0
C      1  0.4646290000000  0.5122570000000  0.4147170000000 1.0
C      1  0.5250660000000  0.5211400000000  0.5268940000000 1.0
C      1  0.5649340000000  0.5002230000000  0.5347650000000 1.0
C      1  0.5537790000000  0.4632340000000  0.4294700000000 1.0
C      1  0.5247840000000  0.4626140000000  0.4864880000000 1.0
C      1  0.4762400000000  0.4280190000000  0.4986010000000 1.0
C      1  0.5323280000000  0.5761010000000  0.4782980000000 1.0
C      1  0.5780180000000  0.4530860000000  0.4401860000000 1.0
C      1  0.4516010000000  0.5107270000000  0.4415920000000 1.0
C      1  0.5385500000000  0.4870920000000  0.4942500000000 1.0
C      1  0.5094900000000  0.4555790000000  0.5126230000000 1.0
C      1  0.5104160000000  0.5638430000000  0.5481280000000 1.0
C      1  0.4250570000000  0.4882070000000  0.4915710000000 1.0
C      1  0.4483760000000  0.4942330000000  0.5693780000000 1.0
C      1  0.5182800000000  0.5572680000000  0.4334410000000 1.0
C      1  0.4844690000000  0.4496840000000  0.4552960000000 1.0
C      1  0.4247710000000  0.5356070000000  0.5064200000000 1.0
C      1  0.5586260000000  0.4419080000000  0.4880080000000 1.0
C      1  0.4897350000000  0.5246290000000  0.4107970000000 1.0
C      1  0.4424770000000  0.5393280000000  0.5508760000000 1.0
C      1  0.4774140000000  0.5222170000000  0.5028420000000 1.0
C      1  0.4411240000000  0.5586560000000  0.5072560000000 1.0
C      1  0.5758010000000  0.4666350000000  0.4870640000000 1.0
C      1  0.5130870000000  0.4709430000000  0.5817160000000 1.0
C      1  0.5750770000000  0.5211790000000  0.4622490000000 1.0
C      1  0.4984120000000  0.4716520000000  0.4728020000000 1.0
C      1  0.4244880000000  0.4651550000000  0.5374500000000 1.0
C      1  0.5122700000000  0.4696150000000  0.5377950000000 1.0
C      1  0.4876860000000  0.5799120000000  0.4587450000000 1.0
C      1  0.5563290000000  0.4930200000000  0.4281660000000 1.0
C      1  0.4695100000000  0.4837090000000  0.4145050000000 1.0
C      1  0.5548930000000  0.5592930000000  0.4756820000000 1.0
C      1  0.5144840000000  0.5182360000000  0.4766450000000 1.0
C      1  0.4892030000000  0.4267100000000  0.4736590000000 1.0
C      1  0.5671530000000  0.4929850000000  0.5037560000000 1.0
C      1  0.4510730000000  0.5692130000000  0.4834060000000 1.0
C      1  0.5108830000000  0.5047030000000  0.4105610000000 1.0
C      1  0.5008130000000  0.5228000000000  0.5428530000000 1.0
C      1  0.4972100000000  0.4776740000000  0.4144850000000 1.0
C      1  0.5160740000000  0.4191890000000  0.4780190000000 1.0
C      1  0.4858960000000  0.5682960000000  0.5316010000000 1.0
C      1  0.4919820000000  0.5496510000000  0.4245210000000 1.0
C      1  0.4905110000000  0.4970330000000  0.5097910000000 1.0
C      1  0.5516510000000  0.5249150000000  0.5371140000000 1.0
C      1  0.5405800000000  0.5393460000000  0.4313510000000 1.0
C      1  0.4986220000000  0.4272040000000  0.5194980000000 1.0
C      1  0.4136260000000  0.4827080000000  0.5172050000000 1.0
C      1  0.4578870000000  0.4480460000000  0.5786620000000 1.0
C      1  0.5374590000000  0.5125710000000  0.4194590000000 1.0
C      1  0.4436050000000  0.4665620000000  0.4823170000000 1.0
C      1  0.5350430000000  0.4393900000000  0.4681850000000 1.0
C      1  0.4860970000000  0.4709630000000  0.4991240000000 1.0
C      1  0.4541650000000  0.5240800000000  0.5720440000000 1.0
C      1  0.4607000000000  0.4541850000000  0.5036530000000 1.0
C      1  0.5539390000000  0.4336450000000  0.5376860000000 1.0
C      1  0.5535880000000  0.5499060000000  0.5245720000000 1.0
C      1  0.4950830000000  0.5101520000000  0.5961110000000 1.0
C      1  0.5053760000000  0.5387980000000  0.5674120000000 1.0
C      1  0.4644870000000  0.4391080000000  0.5534890000000 1.0
C      1  0.4876280000000  0.5306690000000  0.4781730000000 1.0
C      1  0.4634840000000  0.4741180000000  0.5850670000000 1.0
C      1  0.5759350000000  0.4977710000000  0.4481290000000 1.0
C      1  0.5221640000000  0.4159970000000  0.5057450000000 1.0
C      1  0.4785050000000  0.5126950000000  0.4572890000000 1.0
C      1  0.5388110000000  0.4373310000000  0.5605730000000 1.0
C      1  0.4914970000000  0.4316140000000  0.5480680000000 1.0
C      1  0.5556120000000  0.4840950000000  0.5569100000000 1.0
C      1  0.5314240000000  0.5679740000000  0.5291760000000 1.0
C      1  0.4486280000000  0.5544650000000  0.4585200000000 1.0
C      1  0.4517100000000  0.4801540000000  0.4362820000000 1.0
C      1  0.5746760000000  0.5199820000000  0.4908740000000 1.0
C      1  0.5309200000000  0.4491630000000  0.4395100000000 1.0
C      1  0.4354140000000  0.5285200000000  0.4591830000000 1.0
END
