TITL C-30362-4526-7 4.96083281206464 125000 -519.065108013815 0 0 77 (C3) n - 1
REM
REM in /rds/project/t2_vol4/rds-t2-cs072/BORA/CARBON/from-Arr/AIRSS/Generating-Clusters/GAP-ML-2020/Higher-Symm/SD-CG/HFTN-CG
REM
REM
REM
REM
REM
REM ./C.cell (b20cbc046b6831c77cfcea5457e17084)
REM AIRSS Version 0.9.1 bugfix July 2018 build 013d7b7c2542+ Fri, 06 Jul 2018 19:26:36 +0100
REM compiler GCC version 9.3.0
REM options -cpp -mtune=generic -march=x86-64 -g -O0
REM seed 1141804695 -1194870550 1639265840 -1175893077 1678547132 878570857 -1750249594 162524359 -108568444 -560233399 1444303601 590875533 1300947286 -1037267651 -2067766777 1268181236 -131929275 -492750223 1662682545 286889645 1346315511 458694117 1583790187 -897623025 -1911768032 1778056899 -542871743 1682288196 171539436 1560264056 1320708761 748685541 1895565045
REM
CELL 1.54180   50.00000   50.00000   50.00000   90.00000   90.00000   90.00000
LATT -1
SFAC C  
C      1  0.5393580000000  0.4376540000000  0.4550180000000 1.0
C      1  0.4242700000000  0.4965560000000  0.4550210000000 1.0
C      1  0.5328250000000  0.5667740000000  0.4550220000000 1.0
C      1  0.5053450000000  0.5278300000000  0.4895370000000 1.0
C      1  0.5193720000000  0.4809230000000  0.4895350000000 1.0
C      1  0.4717360000000  0.4922280000000  0.4895360000000 1.0
C      1  0.5447120000000  0.4273860000000  0.4823730000000 1.0
C      1  0.4127020000000  0.4970530000000  0.4823770000000 1.0
C      1  0.5390400000000  0.5765430000000  0.4823780000000 1.0
C      1  0.5030780000000  0.5159510000000  0.4048970000000 1.0
C      1  0.5102150000000  0.4888290000000  0.4048960000000 1.0
C      1  0.4831570000000  0.4962090000000  0.4048970000000 1.0
C      1  0.5094530000000  0.4353860000000  0.5293620000000 1.0
C      1  0.4372620000000  0.5235860000000  0.5293660000000 1.0
C      1  0.5497410000000  0.5420050000000  0.5293650000000 1.0
C      1  0.4787340000000  0.4799600000000  0.5168160000000 1.0
C      1  0.4912220000000  0.5279030000000  0.5168180000000 1.0
C      1  0.5264980000000  0.4931160000000  0.5168160000000 1.0
C      1  0.5634070000000  0.4683500000000  0.4959900000000 1.0
C      1  0.4388310000000  0.4603790000000  0.4959910000000 1.0
C      1  0.4942160000000  0.5722510000000  0.4959940000000 1.0
C      1  0.4793510000000  0.4483710000000  0.5577430000000 1.0
C      1  0.4635590000000  0.5431620000000  0.5577460000000 1.0
C      1  0.5535460000000  0.5094420000000  0.5577440000000 1.0
C      1  0.5487210000000  0.5524640000000  0.4736810000000 1.0
C      1  0.5190180000000  0.4310420000000  0.4736770000000 1.0
C      1  0.4287140000000  0.5174760000000  0.4736810000000 1.0
C      1  0.5212580000000  0.5744310000000  0.5044600000000 1.0
C      1  0.5517750000000  0.4438410000000  0.5044550000000 1.0
C      1  0.4234220000000  0.4827080000000  0.5044580000000 1.0
C      1  0.5481910000000  0.5189450000000  0.5096730000000 1.0
C      1  0.4902560000000  0.4482590000000  0.5096720000000 1.0
C      1  0.4580070000000  0.5337750000000  0.5096750000000 1.0
C      1  0.5064820000000  0.5273160000000  0.5642700000000 1.0
C      1  0.5183630000000  0.4801920000000  0.5642680000000 1.0
C      1  0.4716120000000  0.4934650000000  0.5642690000000 1.0
C      1  0.4804260000000  0.5627330000000  0.5444090000000 1.0
C      1  0.5620610000000  0.4850500000000  0.5444060000000 1.0
C      1  0.4539680000000  0.4531930000000  0.5444060000000 1.0
C      1  0.5442170000000  0.5076050000000  0.4640670000000 1.0
C      1  0.4824200000000  0.4573720000000  0.4640670000000 1.0
C      1  0.4698160000000  0.5360060000000  0.4640690000000 1.0
C      1  0.4792100000000  0.5206240000000  0.5678270000000 1.0
C      1  0.5262030000000  0.5071570000000  0.5678260000000 1.0
C      1  0.4910430000000  0.4731930000000  0.5678250000000 1.0
C      1  0.5064880000000  0.5278060000000  0.4348260000000 1.0
C      1  0.5187780000000  0.4799470000000  0.4348250000000 1.0
C      1  0.4711860000000  0.4932330000000  0.4348260000000 1.0
C      1  0.5640910000000  0.5337290000000  0.5513340000000 1.0
C      1  0.4951110000000  0.4270960000000  0.5513310000000 1.0
C      1  0.4372540000000  0.5401510000000  0.5513360000000 1.0
C      1  0.4925050000000  0.5518070000000  0.4732090000000 1.0
C      1  0.5465560000000  0.4800550000000  0.4732060000000 1.0
C      1  0.4573920000000  0.4691210000000  0.4732070000000 1.0
C      1  0.4678400000000  0.4288870000000  0.5081830000000 1.0
C      1  0.4524390000000  0.5628740000000  0.5081880000000 1.0
C      1  0.5761760000000  0.5092180000000  0.5081840000000 1.0
C      1  0.4748900000000  0.5742610000000  0.5167010000000 1.0
C      1  0.5748110000000  0.4840810000000  0.5166970000000 1.0
C      1  0.4467530000000  0.4426370000000  0.5166970000000 1.0
C      1  0.5266770000000  0.5073250000000  0.4424390000000 1.0
C      1  0.4909460000000  0.4727030000000  0.4424390000000 1.0
C      1  0.4788280000000  0.5209580000000  0.4424400000000 1.0
C      1  0.5045640000000  0.5474480000000  0.5412890000000 1.0
C      1  0.5367550000000  0.4717880000000  0.5412860000000 1.0
C      1  0.4551360000000  0.4817400000000  0.5412880000000 1.0
C      1  0.5376830000000  0.5273250000000  0.4843330000000 1.0
C      1  0.5027660000000  0.4531700000000  0.4843310000000 1.0
C      1  0.4560040000000  0.5204870000000  0.4843340000000 1.0
C      1  0.5094030000000  0.5537330000000  0.4482540000000 1.0
C      1  0.5397740000000  0.4644590000000  0.4482500000000 1.0
C      1  0.4472750000000  0.4827930000000  0.4482520000000 1.0
C      1  0.5277900000000  0.5601900000000  0.5283060000000 1.0
C      1  0.5361760000000  0.4453030000000  0.5283020000000 1.0
C      1  0.4324890000000  0.4954840000000  0.5283050000000 1.0
C      1  0.4988180000000  0.5003260000000  0.5252640000000 1.0
C      1  0.4988180000000  0.5003270000000  0.4803460000000 1.0
END
