TITL C-32014-8408-8 0.0900961933164392 125000 -823.880693219197 0 0 118 (C1) n - 1
REM
REM in /rds/project/t2_vol4/rds-t2-cs072/BORA/CARBON/from-Arr/AIRSS/Generating-Clusters/GAP-ML-2020/Higher-Symm/SD-CG/HFTN-CG
REM
REM
REM
REM
REM
REM ./C.cell (b20cbc046b6831c77cfcea5457e17084)
REM AIRSS Version 0.9.1 bugfix July 2018 build 013d7b7c2542+ Fri, 06 Jul 2018 19:26:36 +0100
REM compiler GCC version 9.3.0
REM options -cpp -mtune=generic -march=x86-64 -g -O0
REM seed 383460046 -731280784 -1844006017 732119888 -1658742841 -1158621885 -1944677376 355330983 535151023 568769263 1634013107 1023119041 -733279090 -1285320601 -2143632688 2104813419 -376582609 -1107211774 28861037 -1473983083 -1835299966 -1514291703 -1961844125 -412787924 1537523582 -109329174 834103394 635911157 -1959196113 -1927399560 284611008 328464710 -1503695036
REM
CELL 1.54180   50.00000   50.00000   50.00000   90.00000   90.00000   90.00000
LATT -1
SFAC C  
C      1  0.4236690000000  0.4318560000000  0.4820730000000 1.0
C      1  0.4646430000000  0.3995580000000  0.4761980000000 1.0
C      1  0.5476890000000  0.4904880000000  0.4915090000000 1.0
C      1  0.5526480000000  0.4342460000000  0.5311630000000 1.0
C      1  0.4435480000000  0.4297180000000  0.5271100000000 1.0
C      1  0.5347520000000  0.4275550000000  0.4419180000000 1.0
C      1  0.4322540000000  0.4698840000000  0.5478160000000 1.0
C      1  0.4664110000000  0.4125840000000  0.5269800000000 1.0
C      1  0.5915020000000  0.5119120000000  0.4764700000000 1.0
C      1  0.5356220000000  0.4217800000000  0.5484960000000 1.0
C      1  0.4990850000000  0.5466560000000  0.5857080000000 1.0
C      1  0.4597620000000  0.5562000000000  0.4261950000000 1.0
C      1  0.4876580000000  0.5680010000000  0.5706450000000 1.0
C      1  0.5553170000000  0.5659160000000  0.5085150000000 1.0
C      1  0.5041330000000  0.4872420000000  0.4818370000000 1.0
C      1  0.5668150000000  0.5213350000000  0.4358630000000 1.0
C      1  0.5031480000000  0.5803220000000  0.5506040000000 1.0
C      1  0.5306730000000  0.5959520000000  0.5049880000000 1.0
C      1  0.4767370000000  0.4023230000000  0.5022460000000 1.0
C      1  0.4706630000000  0.4948960000000  0.5294680000000 1.0
C      1  0.5394240000000  0.4936380000000  0.4630600000000 1.0
C      1  0.5669810000000  0.4591660000000  0.5368110000000 1.0
C      1  0.4506500000000  0.4914460000000  0.5581300000000 1.0
C      1  0.4175680000000  0.5276680000000  0.5500700000000 1.0
C      1  0.5458110000000  0.5671020000000  0.4636160000000 1.0
C      1  0.5306670000000  0.5639240000000  0.4397030000000 1.0
C      1  0.5576070000000  0.4791190000000  0.5554890000000 1.0
C      1  0.5275600000000  0.4820390000000  0.5619270000000 1.0
C      1  0.4599040000000  0.5615790000000  0.5671710000000 1.0
C      1  0.4120150000000  0.5108870000000  0.4863980000000 1.0
C      1  0.5026870000000  0.5931570000000  0.5013710000000 1.0
C      1  0.4672010000000  0.4387410000000  0.5646970000000 1.0
C      1  0.4780380000000  0.4697170000000  0.5143230000000 1.0
C      1  0.5427660000000  0.5819920000000  0.5280950000000 1.0
C      1  0.4958570000000  0.5271480000000  0.4234280000000 1.0
C      1  0.4777430000000  0.4775780000000  0.4446560000000 1.0
C      1  0.4788010000000  0.5278560000000  0.5912120000000 1.0
C      1  0.5305630000000  0.5714900000000  0.5506530000000 1.0
C      1  0.5413060000000  0.5397140000000  0.5016390000000 1.0
C      1  0.4549450000000  0.5359840000000  0.5788010000000 1.0
C      1  0.4650510000000  0.5170310000000  0.5094960000000 1.0
C      1  0.5037940000000  0.4081410000000  0.5000750000000 1.0
C      1  0.4770330000000  0.5763160000000  0.4367490000000 1.0
C      1  0.4997070000000  0.5265210000000  0.4567350000000 1.0
C      1  0.5113550000000  0.4295890000000  0.5571470000000 1.0
C      1  0.4105750000000  0.4958180000000  0.5112570000000 1.0
C      1  0.5055470000000  0.4455460000000  0.4711990000000 1.0
C      1  0.4335180000000  0.5082710000000  0.4686140000000 1.0
C      1  0.4126770000000  0.5371070000000  0.4994280000000 1.0
C      1  0.4691310000000  0.5310780000000  0.4157160000000 1.0
C      1  0.4892360000000  0.5324870000000  0.5187460000000 1.0
C      1  0.4709610000000  0.4835250000000  0.5795330000000 1.0
C      1  0.5570260000000  0.5151160000000  0.5047380000000 1.0
C      1  0.4838750000000  0.5025620000000  0.4672540000000 1.0
C      1  0.4830970000000  0.4208620000000  0.5501240000000 1.0
C      1  0.5891750000000  0.4981270000000  0.5265050000000 1.0
C      1  0.4811100000000  0.4088730000000  0.4528460000000 1.0
C      1  0.5589480000000  0.5287960000000  0.5513480000000 1.0
C      1  0.4461360000000  0.5720410000000  0.5452670000000 1.0
C      1  0.5831890000000  0.4720850000000  0.5168940000000 1.0
C      1  0.5210540000000  0.4996460000000  0.5327200000000 1.0
C      1  0.5323690000000  0.4521250000000  0.4281680000000 1.0
C      1  0.5095140000000  0.5402450000000  0.5006870000000 1.0
C      1  0.5479760000000  0.5833650000000  0.4856380000000 1.0
C      1  0.5172700000000  0.5037760000000  0.5809170000000 1.0
C      1  0.5410550000000  0.5469760000000  0.5640460000000 1.0
C      1  0.5197270000000  0.3989970000000  0.4776560000000 1.0
C      1  0.5500190000000  0.5391430000000  0.4729450000000 1.0
C      1  0.4832680000000  0.4591800000000  0.5754190000000 1.0
C      1  0.5215240000000  0.4852110000000  0.5062270000000 1.0
C      1  0.5053430000000  0.5765840000000  0.4452130000000 1.0
C      1  0.4419710000000  0.4177980000000  0.4691550000000 1.0
C      1  0.5450330000000  0.4316880000000  0.5025220000000 1.0
C      1  0.4614900000000  0.5864600000000  0.5268060000000 1.0
C      1  0.4493950000000  0.5101920000000  0.4230330000000 1.0
C      1  0.5737870000000  0.4701850000000  0.4883510000000 1.0
C      1  0.4427410000000  0.4439770000000  0.5512160000000 1.0
C      1  0.5846500000000  0.4867440000000  0.4657960000000 1.0
C      1  0.5106420000000  0.4568560000000  0.5682800000000 1.0
C      1  0.4621710000000  0.4297790000000  0.4519110000000 1.0
C      1  0.4379540000000  0.5176270000000  0.5652010000000 1.0
C      1  0.4894380000000  0.5901510000000  0.5263080000000 1.0
C      1  0.5212880000000  0.5186490000000  0.4133210000000 1.0
C      1  0.4660150000000  0.5814700000000  0.4629270000000 1.0
C      1  0.4388980000000  0.5499620000000  0.4451500000000 1.0
C      1  0.4291430000000  0.5600280000000  0.4942350000000 1.0
C      1  0.4954930000000  0.5117450000000  0.5368710000000 1.0
C      1  0.4207840000000  0.4714290000000  0.5209630000000 1.0
C      1  0.4615990000000  0.4609980000000  0.4922380000000 1.0
C      1  0.5398520000000  0.5336820000000  0.4300890000000 1.0
C      1  0.5085510000000  0.4718690000000  0.4322810000000 1.0
C      1  0.5186200000000  0.4719000000000  0.4609730000000 1.0
C      1  0.5250980000000  0.4909860000000  0.4157280000000 1.0
C      1  0.4562660000000  0.4839880000000  0.4273590000000 1.0
C      1  0.4110350000000  0.5222440000000  0.5249530000000 1.0
C      1  0.4333980000000  0.5219180000000  0.4433950000000 1.0
C      1  0.5488160000000  0.4757640000000  0.4224240000000 1.0
C      1  0.5556410000000  0.4242990000000  0.4630680000000 1.0
C      1  0.5758560000000  0.5302150000000  0.4612260000000 1.0
C      1  0.5645770000000  0.4919320000000  0.4426720000000 1.0
C      1  0.5729270000000  0.5035460000000  0.5506310000000 1.0
C      1  0.4981140000000  0.5492050000000  0.4768880000000 1.0
C      1  0.4389420000000  0.5723440000000  0.5179950000000 1.0
C      1  0.4933460000000  0.5794970000000  0.4754140000000 1.0
C      1  0.5452670000000  0.4074990000000  0.4836660000000 1.0
C      1  0.5228520000000  0.5325950000000  0.5803080000000 1.0
C      1  0.5863510000000  0.5157570000000  0.5045510000000 1.0
C      1  0.4894420000000  0.5020720000000  0.5891570000000 1.0
C      1  0.5098730000000  0.4165300000000  0.4554760000000 1.0
C      1  0.5641690000000  0.4437460000000  0.4830400000000 1.0
C      1  0.5135840000000  0.4377400000000  0.4987440000000 1.0
C      1  0.4599540000000  0.5096940000000  0.4821180000000 1.0
C      1  0.4343800000000  0.4491070000000  0.5032970000000 1.0
C      1  0.5436570000000  0.5190230000000  0.5297350000000 1.0
C      1  0.4752120000000  0.4540270000000  0.4654000000000 1.0
C      1  0.5299930000000  0.5215160000000  0.4571600000000 1.0
C      1  0.5052420000000  0.4618760000000  0.5127380000000 1.0
C      1  0.4414110000000  0.5661850000000  0.4688680000000 1.0
END
