TITL C-32032-8342-7 -118.745367712302 125000 -166.005573533184 0 0 26 (C1) n - 1
REM
REM in /rds/project/t2_vol4/rds-t2-cs072/BORA/CARBON/from-Arr/AIRSS/Generating-Clusters/GAP-ML-2020/Higher-Symm/SD-CG/HFTN-CG
REM
REM
REM
REM
REM
REM ./C.cell (b20cbc046b6831c77cfcea5457e17084)
REM AIRSS Version 0.9.1 bugfix July 2018 build 013d7b7c2542+ Fri, 06 Jul 2018 19:26:36 +0100
REM compiler GCC version 9.3.0
REM options -cpp -mtune=generic -march=x86-64 -g -O0
REM seed -540407791 -1087052523 1304470039 -2057226422 -2082627192 1391352647 -124285343 1098348340 773051130 -926866207 -895035208 1331159014 -1509506709 67466649 851471898 -730315136 -113171295 -1101388434 880745673 2052675061 -1114753858 1123081326 -1453177711 2030918446 1682621318 -1165597803 1816138880 1888707663 -1616015727 775417992 1307788890 1241832505 962033491
REM
CELL 1.54180   50.00000   50.00000   50.00000   90.00000   90.00000   90.00000
LATT -1
SFAC C  
C      1  0.5126180000000  0.5413860000000  0.4799560000000 1.0
C      1  0.4675230000000  0.4333560000000  0.4867010000000 1.0
C      1  0.5476350000000  0.5132380000000  0.4951600000000 1.0
C      1  0.4568290000000  0.4425510000000  0.5103320000000 1.0
C      1  0.4837520000000  0.4454080000000  0.4711980000000 1.0
C      1  0.5276220000000  0.5415160000000  0.5169580000000 1.0
C      1  0.5224200000000  0.5023410000000  0.4555380000000 1.0
C      1  0.4614960000000  0.4652480000000  0.5209550000000 1.0
C      1  0.4790710000000  0.5361530000000  0.5103540000000 1.0
C      1  0.4792340000000  0.5147580000000  0.5286110000000 1.0
C      1  0.5254070000000  0.4946310000000  0.5350300000000 1.0
C      1  0.4950670000000  0.4711210000000  0.4720730000000 1.0
C      1  0.4800200000000  0.4935340000000  0.4847190000000 1.0
C      1  0.5396210000000  0.5150990000000  0.5227300000000 1.0
C      1  0.5355740000000  0.4933170000000  0.4801550000000 1.0
C      1  0.4637530000000  0.5144800000000  0.4731210000000 1.0
C      1  0.5390920000000  0.5394550000000  0.4898200000000 1.0
C      1  0.5060200000000  0.4847970000000  0.4469580000000 1.0
C      1  0.4610990000000  0.5339040000000  0.4891090000000 1.0
C      1  0.5087350000000  0.4792830000000  0.5166660000000 1.0
C      1  0.5130200000000  0.5038650000000  0.5589860000000 1.0
C      1  0.4913370000000  0.5165000000000  0.5533150000000 1.0
C      1  0.5033940000000  0.5126160000000  0.4883100000000 1.0
C      1  0.5024190000000  0.5510990000000  0.5067530000000 1.0
C      1  0.5184880000000  0.4735870000000  0.4917770000000 1.0
C      1  0.4787530000000  0.4867580000000  0.5147160000000 1.0
END
