TITL C-32017-8364-1 -0.0363073592129922 125000 -502.333545028014 0 0 73 (C1) n - 1
REM
REM in /rds/project/t2_vol4/rds-t2-cs072/BORA/CARBON/from-Arr/AIRSS/Generating-Clusters/GAP-ML-2020/Higher-Symm/SD-CG/HFTN-CG
REM
REM
REM
REM
REM
REM ./C.cell (b20cbc046b6831c77cfcea5457e17084)
REM AIRSS Version 0.9.1 bugfix July 2018 build 013d7b7c2542+ Fri, 06 Jul 2018 19:26:36 +0100
REM compiler GCC version 9.3.0
REM options -cpp -mtune=generic -march=x86-64 -g -O0
REM seed -341802335 900244889 -515643462 -820002519 2043512029 811807262 549110911 1859256674 641236786 878171788 189403997 -2132208975 -1513161499 -940595261 1157278064 -490612965 1166213482 1603375854 -1578935123 1531628468 283734796 1350098001 -176961543 471703163 1711742768 841902984 -798682055 -600855214 -1353090182 1312312239 -1200243329 1612389522 476468474
REM
CELL 1.54180   50.00000   50.00000   50.00000   90.00000   90.00000   90.00000
LATT -1
SFAC C  
C      1  0.4766260000000  0.4441530000000  0.4487340000000 1.0
C      1  0.4832890000000  0.5232540000000  0.4266420000000 1.0
C      1  0.4812490000000  0.5750730000000  0.5055260000000 1.0
C      1  0.4816810000000  0.5148490000000  0.5771200000000 1.0
C      1  0.4827540000000  0.4410790000000  0.5458130000000 1.0
C      1  0.4569210000000  0.5620340000000  0.5085330000000 1.0
C      1  0.4605890000000  0.4963520000000  0.5707800000000 1.0
C      1  0.4583310000000  0.4457510000000  0.5335300000000 1.0
C      1  0.4569830000000  0.4632340000000  0.4413550000000 1.0
C      1  0.4592800000000  0.5242740000000  0.4418380000000 1.0
C      1  0.4306460000000  0.4719730000000  0.5065790000000 1.0
C      1  0.4415410000000  0.4796480000000  0.4583500000000 1.0
C      1  0.4360470000000  0.5243630000000  0.4810400000000 1.0
C      1  0.4336340000000  0.5141520000000  0.5069900000000 1.0
C      1  0.4479600000000  0.4928350000000  0.5459180000000 1.0
C      1  0.5227070000000  0.5559520000000  0.5282030000000 1.0
C      1  0.5300330000000  0.4891710000000  0.5744300000000 1.0
C      1  0.5247670000000  0.4357180000000  0.5129390000000 1.0
C      1  0.5264640000000  0.4662760000000  0.4366890000000 1.0
C      1  0.5249980000000  0.5338430000000  0.4607190000000 1.0
C      1  0.4894390000000  0.4980270000000  0.4805660000000 1.0
C      1  0.4817640000000  0.5261680000000  0.4897790000000 1.0
C      1  0.4841890000000  0.5206580000000  0.5202200000000 1.0
C      1  0.5048570000000  0.4983440000000  0.5204520000000 1.0
C      1  0.4772780000000  0.4726400000000  0.4830940000000 1.0
C      1  0.5272580000000  0.4419500000000  0.5413890000000 1.0
C      1  0.5218920000000  0.4496010000000  0.4593070000000 1.0
C      1  0.5284540000000  0.5189790000000  0.4356060000000 1.0
C      1  0.5251900000000  0.5652290000000  0.5016590000000 1.0
C      1  0.5280000000000  0.5179370000000  0.5683690000000 1.0
C      1  0.5529700000000  0.5457550000000  0.4656080000000 1.0
C      1  0.5493610000000  0.5465930000000  0.5348780000000 1.0
C      1  0.5523740000000  0.4791150000000  0.5607570000000 1.0
C      1  0.5488620000000  0.4447420000000  0.5006250000000 1.0
C      1  0.5531230000000  0.4789160000000  0.4376570000000 1.0
C      1  0.5060610000000  0.4493040000000  0.5584660000000 1.0
C      1  0.4950450000000  0.4478990000000  0.4728960000000 1.0
C      1  0.5061730000000  0.5068490000000  0.4225940000000 1.0
C      1  0.5013350000000  0.5681360000000  0.4873870000000 1.0
C      1  0.5021530000000  0.5305150000000  0.5653080000000 1.0
C      1  0.4551920000000  0.5423160000000  0.4888640000000 1.0
C      1  0.4541790000000  0.5130640000000  0.5267780000000 1.0
C      1  0.4412160000000  0.4679300000000  0.5322120000000 1.0
C      1  0.4477540000000  0.4689440000000  0.4841660000000 1.0
C      1  0.4406210000000  0.5093110000000  0.4570800000000 1.0
C      1  0.5511250000000  0.5241210000000  0.5522350000000 1.0
C      1  0.5511860000000  0.4559770000000  0.5450070000000 1.0
C      1  0.5479280000000  0.4477930000000  0.4724240000000 1.0
C      1  0.5549530000000  0.5076970000000  0.4373180000000 1.0
C      1  0.5521480000000  0.5590820000000  0.4910350000000 1.0
C      1  0.5649200000000  0.4994460000000  0.5456810000000 1.0
C      1  0.5635270000000  0.4605220000000  0.5201270000000 1.0
C      1  0.5646760000000  0.4626950000000  0.4562280000000 1.0
C      1  0.5674350000000  0.5239900000000  0.4561450000000 1.0
C      1  0.5664660000000  0.5554120000000  0.5144620000000 1.0
C      1  0.5043860000000  0.4779790000000  0.4239730000000 1.0
C      1  0.4982030000000  0.5447370000000  0.4698760000000 1.0
C      1  0.4971000000000  0.5446080000000  0.5388430000000 1.0
C      1  0.5074100000000  0.4723930000000  0.5758110000000 1.0
C      1  0.4995560000000  0.4344460000000  0.4994000000000 1.0
C      1  0.4762380000000  0.5646560000000  0.5302540000000 1.0
C      1  0.4844700000000  0.4875370000000  0.5828140000000 1.0
C      1  0.4793370000000  0.4345650000000  0.5189000000000 1.0
C      1  0.4811870000000  0.4609300000000  0.4270720000000 1.0
C      1  0.4799970000000  0.5425020000000  0.4459670000000 1.0
C      1  0.5947070000000  0.4975050000000  0.5036850000000 1.0
C      1  0.4131970000000  0.4947570000000  0.5062010000000 1.0
C      1  0.5340730000000  0.5098220000000  0.4826850000000 1.0
C      1  0.3866600000000  0.4981260000000  0.5033960000000 1.0
C      1  0.5766450000000  0.4869090000000  0.5215490000000 1.0
C      1  0.3613240000000  0.4987800000000  0.5023160000000 1.0
C      1  0.5157600000000  0.4952180000000  0.4951850000000 1.0
C      1  0.6132690000000  0.5060960000000  0.4887740000000 1.0
END
