TITL C-32009-8427-1 -43.4457105946013 125000 -448.55258008283 0 0 65 (C1) n - 1
REM
REM in /rds/project/t2_vol4/rds-t2-cs072/BORA/CARBON/from-Arr/AIRSS/Generating-Clusters/GAP-ML-2020/Higher-Symm/SD-CG/HFTN-CG
REM
REM
REM
REM
REM
REM ./C.cell (b20cbc046b6831c77cfcea5457e17084)
REM AIRSS Version 0.9.1 bugfix July 2018 build 013d7b7c2542+ Fri, 06 Jul 2018 19:26:36 +0100
REM compiler GCC version 9.3.0
REM options -cpp -mtune=generic -march=x86-64 -g -O0
REM seed 2047503759 350716357 -969663075 -390412764 -2106217894 1605460063 -984438687 -809933513 -931166401 -481820527 650455953 273685927 1966320903 1992720067 1370009714 -356665736 -645938564 -154329861 -16291575 -1481034276 -1334026884 -1206235405 -1704185259 1680865362 1960684309 285822052 417784348 1410986407 1333920547 -1643490328 770183329 1661707767 -837825999
REM
CELL 1.54180   50.00000   50.00000   50.00000   90.00000   90.00000   90.00000
LATT -1
SFAC C  
C      1  0.4592710000000  0.4546980000000  0.5186830000000 1.0
C      1  0.5417620000000  0.5453450000000  0.4809460000000 1.0
C      1  0.5269080000000  0.5424160000000  0.4558030000000 1.0
C      1  0.4737730000000  0.4577810000000  0.5431450000000 1.0
C      1  0.5231990000000  0.4487590000000  0.4876270000000 1.0
C      1  0.4782650000000  0.5515970000000  0.5155370000000 1.0
C      1  0.4895230000000  0.5091010000000  0.4498650000000 1.0
C      1  0.5082700000000  0.4944660000000  0.5449330000000 1.0
C      1  0.4865790000000  0.4619790000000  0.4381350000000 1.0
C      1  0.5164340000000  0.5377920000000  0.5633610000000 1.0
C      1  0.4378000000000  0.5018520000000  0.4722440000000 1.0
C      1  0.5632680000000  0.4990610000000  0.5259460000000 1.0
C      1  0.5229300000000  0.4260090000000  0.5085520000000 1.0
C      1  0.4760460000000  0.5706930000000  0.4917820000000 1.0
C      1  0.5353470000000  0.5432090000000  0.5417400000000 1.0
C      1  0.4682010000000  0.4581370000000  0.4602670000000 1.0
C      1  0.5230900000000  0.4909930000000  0.4310960000000 1.0
C      1  0.4788740000000  0.5088380000000  0.5686470000000 1.0
C      1  0.4684470000000  0.5328970000000  0.5580690000000 1.0
C      1  0.5334100000000  0.4667440000000  0.4427350000000 1.0
C      1  0.4303580000000  0.5023830000000  0.4994080000000 1.0
C      1  0.5713510000000  0.4993290000000  0.4985920000000 1.0
C      1  0.5425540000000  0.4701870000000  0.4715490000000 1.0
C      1  0.4585650000000  0.5296950000000  0.5289070000000 1.0
C      1  0.5777320000000  0.4524790000000  0.5019550000000 1.0
C      1  0.4233780000000  0.5482530000000  0.4972230000000 1.0
C      1  0.5074510000000  0.5118400000000  0.5686020000000 1.0
C      1  0.4945330000000  0.4874940000000  0.4296490000000 1.0
C      1  0.5215700000000  0.4440220000000  0.5480320000000 1.0
C      1  0.4771650000000  0.5564080000000  0.4497180000000 1.0
C      1  0.5030480000000  0.5728150000000  0.4817520000000 1.0
C      1  0.4954090000000  0.4251000000000  0.5184180000000 1.0
C      1  0.4592320000000  0.4815900000000  0.4762460000000 1.0
C      1  0.5431210000000  0.5205020000000  0.5235750000000 1.0
C      1  0.5252330000000  0.4712360000000  0.5387610000000 1.0
C      1  0.4689850000000  0.5298730000000  0.4471470000000 1.0
C      1  0.5536910000000  0.4744230000000  0.5358140000000 1.0
C      1  0.4430840000000  0.5261500000000  0.4588380000000 1.0
C      1  0.4855230000000  0.4948230000000  0.4752690000000 1.0
C      1  0.5121820000000  0.5124380000000  0.5199660000000 1.0
C      1  0.5227960000000  0.5597190000000  0.4983580000000 1.0
C      1  0.4733580000000  0.4343600000000  0.5031870000000 1.0
C      1  0.5020470000000  0.5368970000000  0.5077580000000 1.0
C      1  0.5103220000000  0.4676830000000  0.5072680000000 1.0
C      1  0.5229740000000  0.5640910000000  0.5269380000000 1.0
C      1  0.4781800000000  0.4364890000000  0.4756400000000 1.0
C      1  0.4622650000000  0.4991260000000  0.5269000000000 1.0
C      1  0.5313370000000  0.5000170000000  0.4771630000000 1.0
C      1  0.5698120000000  0.4732090000000  0.4849500000000 1.0
C      1  0.4323320000000  0.5281190000000  0.5134640000000 1.0
C      1  0.4509220000000  0.4809070000000  0.5071820000000 1.0
C      1  0.5503290000000  0.5203500000000  0.4924180000000 1.0
C      1  0.5062240000000  0.4361450000000  0.4678600000000 1.0
C      1  0.4949250000000  0.5658910000000  0.5362820000000 1.0
C      1  0.4942530000000  0.4378910000000  0.5435350000000 1.0
C      1  0.5049590000000  0.5617310000000  0.4559580000000 1.0
C      1  0.5208850000000  0.5143210000000  0.4512390000000 1.0
C      1  0.4782710000000  0.4864850000000  0.5475660000000 1.0
C      1  0.5108310000000  0.4480900000000  0.4426790000000 1.0
C      1  0.4909520000000  0.5519750000000  0.5599890000000 1.0
C      1  0.5402720000000  0.4310630000000  0.5299170000000 1.0
C      1  0.4587290000000  0.5677830000000  0.4697790000000 1.0
C      1  0.4356240000000  0.5504000000000  0.4729730000000 1.0
C      1  0.5626700000000  0.4496380000000  0.5242040000000 1.0
C      1  0.5068520000000  0.4939550000000  0.4963010000000 1.0
END
