TITL C-32022-8494-5 -0.0839038979120257 125000 -310.464516602787 0 0 46 (C1) n - 1
REM
REM in /rds/project/t2_vol4/rds-t2-cs072/BORA/CARBON/from-Arr/AIRSS/Generating-Clusters/GAP-ML-2020/Higher-Symm/SD-CG/HFTN-CG
REM
REM
REM
REM
REM
REM ./C.cell (b20cbc046b6831c77cfcea5457e17084)
REM AIRSS Version 0.9.1 bugfix July 2018 build 013d7b7c2542+ Fri, 06 Jul 2018 19:26:36 +0100
REM compiler GCC version 9.3.0
REM options -cpp -mtune=generic -march=x86-64 -g -O0
REM seed -1153823019 1408555862 -1025749316 878131164 -357993663 -1699312447 718959348 2040551826 811103393 1344632280 -436999266 -1611601784 834022332 -251978949 -1605616854 878207608 -1519714831 1917472406 -230685579 824372311 -1569705915 867703846 -1680902580 -425650007 2004100276 -1186167529 -1086166995 301505951 382872199 -376782453 -1428234746 -856258877 -1011762078
REM
CELL 1.54180   50.00000   50.00000   50.00000   90.00000   90.00000   90.00000
LATT -1
SFAC C  
C      1  0.5006910000000  0.4594050000000  0.5273620000000 1.0
C      1  0.4772060000000  0.4611110000000  0.4855590000000 1.0
C      1  0.5252490000000  0.4567330000000  0.4849050000000 1.0
C      1  0.4674250000000  0.5395120000000  0.4558320000000 1.0
C      1  0.5676610000000  0.5303590000000  0.4852680000000 1.0
C      1  0.4862640000000  0.5375630000000  0.5562850000000 1.0
C      1  0.5481310000000  0.4739690000000  0.4904160000000 1.0
C      1  0.4862360000000  0.4806540000000  0.5414560000000 1.0
C      1  0.4738220000000  0.4817370000000  0.4653960000000 1.0
C      1  0.5452260000000  0.4840660000000  0.5371920000000 1.0
C      1  0.4460230000000  0.4888560000000  0.5164420000000 1.0
C      1  0.5156340000000  0.4856580000000  0.4430000000000 1.0
C      1  0.4520250000000  0.4680310000000  0.4974840000000 1.0
C      1  0.5269130000000  0.4633520000000  0.4570440000000 1.0
C      1  0.5245150000000  0.4651870000000  0.5421380000000 1.0
C      1  0.5553880000000  0.5197520000000  0.5071380000000 1.0
C      1  0.4693090000000  0.5269280000000  0.5367180000000 1.0
C      1  0.4916980000000  0.5268490000000  0.4547910000000 1.0
C      1  0.4391790000000  0.5075220000000  0.4950580000000 1.0
C      1  0.5399350000000  0.5014230000000  0.4464590000000 1.0
C      1  0.5315150000000  0.5046600000000  0.5527180000000 1.0
C      1  0.4648680000000  0.4980310000000  0.5352380000000 1.0
C      1  0.4916490000000  0.4979180000000  0.4508480000000 1.0
C      1  0.5544040000000  0.4912430000000  0.5118350000000 1.0
C      1  0.5513090000000  0.4805560000000  0.4625090000000 1.0
C      1  0.5095790000000  0.4866890000000  0.5574190000000 1.0
C      1  0.4475000000000  0.4884800000000  0.4755220000000 1.0
C      1  0.5325030000000  0.5359190000000  0.5161950000000 1.0
C      1  0.4664820000000  0.5424110000000  0.5128570000000 1.0
C      1  0.5157230000000  0.5375080000000  0.4680140000000 1.0
C      1  0.5661400000000  0.5383000000000  0.4612270000000 1.0
C      1  0.5096050000000  0.5449790000000  0.5626870000000 1.0
C      1  0.4457750000000  0.5459760000000  0.4671400000000 1.0
C      1  0.4470370000000  0.5343320000000  0.4942390000000 1.0
C      1  0.5396700000000  0.5281680000000  0.4551310000000 1.0
C      1  0.5278120000000  0.5312410000000  0.5444100000000 1.0
C      1  0.4693350000000  0.6276460000000  0.5042550000000 1.0
C      1  0.4965230000000  0.3941830000000  0.5007890000000 1.0
C      1  0.4887990000000  0.6110930000000  0.5017150000000 1.0
C      1  0.4885460000000  0.5854390000000  0.5027340000000 1.0
C      1  0.4951510000000  0.3678180000000  0.5012450000000 1.0
C      1  0.4895170000000  0.5594880000000  0.5045210000000 1.0
C      1  0.5003010000000  0.4478140000000  0.4994150000000 1.0
C      1  0.4979700000000  0.4185700000000  0.5002410000000 1.0
C      1  0.4940610000000  0.3428560000000  0.5017080000000 1.0
C      1  0.5145250000000  0.5461380000000  0.4960550000000 1.0
END
