TITL C-32029-8281-10 -1104.0013154148 125000 -139.139529154061 0 0 22 (C2) n - 1
REM
REM in /rds/project/t2_vol4/rds-t2-cs072/BORA/CARBON/from-Arr/AIRSS/Generating-Clusters/GAP-ML-2020/Higher-Symm/SD-CG/HFTN-CG
REM
REM
REM
REM
REM
REM ./C.cell (b20cbc046b6831c77cfcea5457e17084)
REM AIRSS Version 0.9.1 bugfix July 2018 build 013d7b7c2542+ Fri, 06 Jul 2018 19:26:36 +0100
REM compiler GCC version 9.3.0
REM options -cpp -mtune=generic -march=x86-64 -g -O0
REM seed 94660125 237505748 229587592 -897258203 -784741337 -476681897 -1479899244 -809305124 108472026 -2146577859 -145691555 -492573641 -1942203185 34852831 -724872079 1027561284 346548646 734457056 1647755478 1684661630 32686951 -101535995 -614579906 921003516 928099212 -1045982375 -509818166 -557251741 2071966890 -1823894014 -42875670 1328048771 -105734024
REM
CELL 1.54180   50.00000   50.00000   50.00000   90.00000   90.00000   90.00000
LATT -1
SFAC C  
C      1  0.4840820000000  0.5197980000000  0.4685760000000 1.0
C      1  0.5224330000000  0.5277560000000  0.4919010000000 1.0
C      1  0.5158330000000  0.5200780000000  0.5347320000000 1.0
C      1  0.4767670000000  0.5280780000000  0.5106770000000 1.0
C      1  0.5165270000000  0.4772190000000  0.4671210000000 1.0
C      1  0.4775820000000  0.4682100000000  0.4910140000000 1.0
C      1  0.4845070000000  0.4766740000000  0.5331460000000 1.0
C      1  0.5231470000000  0.4697130000000  0.5099790000000 1.0
C      1  0.4864090000000  0.5259520000000  0.5370750000000 1.0
C      1  0.4665150000000  0.5328370000000  0.4862750000000 1.0
C      1  0.5134820000000  0.5269290000000  0.4646540000000 1.0
C      1  0.5314490000000  0.5333140000000  0.5163690000000 1.0
C      1  0.5140660000000  0.4703060000000  0.5371880000000 1.0
C      1  0.5324040000000  0.4643910000000  0.4855490000000 1.0
C      1  0.4872750000000  0.4705860000000  0.4646560000000 1.0
C      1  0.4673570000000  0.4631850000000  0.5153750000000 1.0
C      1  0.5159370000000  0.5002550000000  0.4509390000000 1.0
C      1  0.4841760000000  0.4991540000000  0.5502740000000 1.0
C      1  0.4844030000000  0.4973170000000  0.4514480000000 1.0
C      1  0.5157730000000  0.4970340000000  0.5509120000000 1.0
C      1  0.4986830000000  0.5121970000000  0.4992230000000 1.0
C      1  0.4990330000000  0.4846530000000  0.5025580000000 1.0
END
