TITL C-32006-8275-4 634.964222770864 125000 -691.506054436682 0 0 103 (C1) n - 1
REM
REM in /rds/project/t2_vol4/rds-t2-cs072/BORA/CARBON/from-Arr/AIRSS/Generating-Clusters/GAP-ML-2020/Higher-Symm/SD-CG/HFTN-CG
REM
REM
REM
REM
REM
REM ./C.cell (b20cbc046b6831c77cfcea5457e17084)
REM AIRSS Version 0.9.1 bugfix July 2018 build 013d7b7c2542+ Fri, 06 Jul 2018 19:26:36 +0100
REM compiler GCC version 9.3.0
REM options -cpp -mtune=generic -march=x86-64 -g -O0
REM seed -513732624 -2065411569 346136904 -1948149049 216454079 -1817694993 -758489200 289702498 1892959313 -728725858 -1833190603 1649879945 1031954297 -527874848 -1836544318 1031066339 1745597236 1854121086 1766343520 1639224257 1050020089 -138043315 -1438408782 951959252 -1169641789 1972020678 -1730877979 -1765127001 1314940235 -314342941 2123869922 -1573195723 -2131253002
REM
CELL 1.54180   50.00000   50.00000   50.00000   90.00000   90.00000   90.00000
LATT -1
SFAC C  
C      1  0.4808720000000  0.5211960000000  0.4524700000000 1.0
C      1  0.4619030000000  0.4789260000000  0.5227850000000 1.0
C      1  0.5281050000000  0.4494880000000  0.4711710000000 1.0
C      1  0.4752690000000  0.4967380000000  0.5459650000000 1.0
C      1  0.5279890000000  0.4708000000000  0.4495660000000 1.0
C      1  0.5203590000000  0.5225610000000  0.5372490000000 1.0
C      1  0.4534980000000  0.5239570000000  0.4968480000000 1.0
C      1  0.5471030000000  0.5181290000000  0.5213620000000 1.0
C      1  0.5494920000000  0.4707180000000  0.4709930000000 1.0
C      1  0.5025940000000  0.5459070000000  0.5238610000000 1.0
C      1  0.4765740000000  0.5373200000000  0.4788490000000 1.0
C      1  0.4778150000000  0.4522490000000  0.5184360000000 1.0
C      1  0.5124280000000  0.5197380000000  0.4519820000000 1.0
C      1  0.5475540000000  0.4869450000000  0.5199630000000 1.0
C      1  0.4791590000000  0.4515930000000  0.4873460000000 1.0
C      1  0.5225970000000  0.4763600000000  0.5372280000000 1.0
C      1  0.4775250000000  0.4905970000000  0.4528400000000 1.0
C      1  0.4645270000000  0.5239710000000  0.5488140000000 1.0
C      1  0.5466240000000  0.5214050000000  0.4906550000000 1.0
C      1  0.4505730000000  0.5348760000000  0.5240200000000 1.0
C      1  0.4619390000000  0.4765180000000  0.4765910000000 1.0
C      1  0.4754630000000  0.5487640000000  0.5348200000000 1.0
C      1  0.5232420000000  0.5367550000000  0.4768490000000 1.0
C      1  0.5084790000000  0.4526780000000  0.5217330000000 1.0
C      1  0.5570050000000  0.4139030000000  0.4697230000000 1.0
C      1  0.4704580000000  0.5531170000000  0.4193030000000 1.0
C      1  0.4227450000000  0.4747020000000  0.5495850000000 1.0
C      1  0.5421460000000  0.5728560000000  0.5247170000000 1.0
C      1  0.4492970000000  0.5761820000000  0.4749220000000 1.0
C      1  0.4453830000000  0.4188150000000  0.5292860000000 1.0
C      1  0.4745550000000  0.4575950000000  0.5734460000000 1.0
C      1  0.5299230000000  0.4419950000000  0.4150990000000 1.0
C      1  0.5246710000000  0.5492970000000  0.5763680000000 1.0
C      1  0.4257950000000  0.5240480000000  0.4578820000000 1.0
C      1  0.5806300000000  0.5286240000000  0.5542610000000 1.0
C      1  0.5848060000000  0.4683500000000  0.4419760000000 1.0
C      1  0.4521960000000  0.4171240000000  0.4756390000000 1.0
C      1  0.5328940000000  0.5518410000000  0.4315540000000 1.0
C      1  0.5818570000000  0.4749390000000  0.5470730000000 1.0
C      1  0.4459450000000  0.5872210000000  0.5331660000000 1.0
C      1  0.5546930000000  0.5768230000000  0.4712420000000 1.0
C      1  0.5466050000000  0.4265140000000  0.5221260000000 1.0
C      1  0.5274010000000  0.4473140000000  0.5772460000000 1.0
C      1  0.4771620000000  0.4521230000000  0.4270380000000 1.0
C      1  0.4662640000000  0.5533660000000  0.5872860000000 1.0
C      1  0.5739020000000  0.5222490000000  0.4526230000000 1.0
C      1  0.4118640000000  0.5330550000000  0.5535700000000 1.0
C      1  0.4220380000000  0.4713660000000  0.4475480000000 1.0
C      1  0.5701770000000  0.5608140000000  0.4873930000000 1.0
C      1  0.4813960000000  0.5709950000000  0.5700740000000 1.0
C      1  0.5624110000000  0.4853300000000  0.5659960000000 1.0
C      1  0.5674280000000  0.4402220000000  0.5100140000000 1.0
C      1  0.4332790000000  0.4366480000000  0.4858770000000 1.0
C      1  0.4281060000000  0.5699990000000  0.5182240000000 1.0
C      1  0.4892530000000  0.4313510000000  0.4408380000000 1.0
C      1  0.5123240000000  0.4301950000000  0.5613540000000 1.0
C      1  0.5124780000000  0.5681490000000  0.4387430000000 1.0
C      1  0.5593330000000  0.5094100000000  0.4325320000000 1.0
C      1  0.4290610000000  0.5180340000000  0.5712050000000 1.0
C      1  0.4379690000000  0.4863410000000  0.4303580000000 1.0
C      1  0.4301400000000  0.5647660000000  0.4905130000000 1.0
C      1  0.5090920000000  0.5685840000000  0.5649280000000 1.0
C      1  0.4341950000000  0.4903770000000  0.5688200000000 1.0
C      1  0.4310430000000  0.4382500000000  0.5138370000000 1.0
C      1  0.5741980000000  0.4334580000000  0.4822940000000 1.0
C      1  0.5656180000000  0.5615880000000  0.5156750000000 1.0
C      1  0.5170680000000  0.4245530000000  0.4343130000000 1.0
C      1  0.4840150000000  0.4343780000000  0.5620470000000 1.0
C      1  0.4851510000000  0.5681720000000  0.4389940000000 1.0
C      1  0.4371710000000  0.5145680000000  0.4346100000000 1.0
C      1  0.5609310000000  0.5132880000000  0.5683120000000 1.0
C      1  0.5653930000000  0.4816910000000  0.4250370000000 1.0
C      1  0.4661600000000  0.4765480000000  0.4281320000000 1.0
C      1  0.4339210000000  0.4622410000000  0.4701610000000 1.0
C      1  0.4762960000000  0.4267390000000  0.4678350000000 1.0
C      1  0.4542930000000  0.5319240000000  0.5760610000000 1.0
C      1  0.5337070000000  0.5235000000000  0.4306600000000 1.0
C      1  0.5367880000000  0.4698080000000  0.5653370000000 1.0
C      1  0.4231960000000  0.5449250000000  0.5321050000000 1.0
C      1  0.5716040000000  0.5327490000000  0.4768870000000 1.0
C      1  0.5722450000000  0.4671920000000  0.5229570000000 1.0
C      1  0.4675320000000  0.5760840000000  0.5449350000000 1.0
C      1  0.5322760000000  0.5627370000000  0.4611880000000 1.0
C      1  0.5223010000000  0.4278970000000  0.5332950000000 1.0
C      1  0.5399350000000  0.4657220000000  0.4226050000000 1.0
C      1  0.5764560000000  0.4587480000000  0.4656610000000 1.0
C      1  0.5334720000000  0.4223590000000  0.4597250000000 1.0
C      1  0.5345770000000  0.5267190000000  0.5665220000000 1.0
C      1  0.4623130000000  0.5293660000000  0.4287730000000 1.0
C      1  0.4635520000000  0.4815100000000  0.5708730000000 1.0
C      1  0.5707450000000  0.5363220000000  0.5304250000000 1.0
C      1  0.4285180000000  0.5354160000000  0.4815610000000 1.0
C      1  0.4326420000000  0.4647050000000  0.5270660000000 1.0
C      1  0.5181060000000  0.5705640000000  0.5354860000000 1.0
C      1  0.4718130000000  0.5660960000000  0.4652540000000 1.0
C      1  0.4692140000000  0.4288090000000  0.5368380000000 1.0
C      1  0.4601390000000  0.4951210000000  0.4984690000000 1.0
C      1  0.5080640000000  0.4586310000000  0.4911340000000 1.0
C      1  0.5079840000000  0.4909210000000  0.4586030000000 1.0
C      1  0.5406830000000  0.4909570000000  0.4909480000000 1.0
C      1  0.5010920000000  0.5395160000000  0.4949690000000 1.0
C      1  0.5040820000000  0.4983050000000  0.5391510000000 1.0
C      1  0.5114450000000  0.4878270000000  0.4877270000000 1.0
END
