TITL C-32016-8381-6 0.00763606128418959 125000 -293.814555280618 0 0 44 (C2) n - 1
REM
REM in /rds/project/t2_vol4/rds-t2-cs072/BORA/CARBON/from-Arr/AIRSS/Generating-Clusters/GAP-ML-2020/Higher-Symm/SD-CG/HFTN-CG
REM
REM
REM
REM
REM
REM ./C.cell (b20cbc046b6831c77cfcea5457e17084)
REM AIRSS Version 0.9.1 bugfix July 2018 build 013d7b7c2542+ Fri, 06 Jul 2018 19:26:36 +0100
REM compiler GCC version 9.3.0
REM options -cpp -mtune=generic -march=x86-64 -g -O0
REM seed 1834735115 -627004933 -1440936405 1466503790 117439227 -734805577 926029310 -51643783 1929428894 660462319 1299168955 232862408 -400999342 1079948272 5278730 1803061543 -109543998 2132775055 -409779793 -247106501 407146588 -336286032 627662103 -723476144 -626641051 1786048725 -513664019 -1532578673 -1294579743 1408900877 91912348 -2012631417 485390815
REM
CELL 1.54180   50.00000   50.00000   50.00000   90.00000   90.00000   90.00000
LATT -1
SFAC C  
C      1  0.5327960000000  0.4751050000000  0.5638010000000 1.0
C      1  0.4857710000000  0.4604580000000  0.5668750000000 1.0
C      1  0.4561660000000  0.5005730000000  0.5659300000000 1.0
C      1  0.4859180000000  0.5406620000000  0.5652020000000 1.0
C      1  0.5325320000000  0.5246790000000  0.5634290000000 1.0
C      1  0.5351380000000  0.5261710000000  0.4293360000000 1.0
C      1  0.4875310000000  0.5412000000000  0.4300700000000 1.0
C      1  0.4591430000000  0.5009210000000  0.4318370000000 1.0
C      1  0.4879960000000  0.4606080000000  0.4314550000000 1.0
C      1  0.5346770000000  0.4763170000000  0.4283810000000 1.0
C      1  0.5128180000000  0.5387800000000  0.4401600000000 1.0
C      1  0.5401000000000  0.5008130000000  0.4394330000000 1.0
C      1  0.5132340000000  0.4631640000000  0.4414440000000 1.0
C      1  0.4694370000000  0.4777730000000  0.4430780000000 1.0
C      1  0.4689530000000  0.5240420000000  0.4426440000000 1.0
C      1  0.5108530000000  0.4623800000000  0.5538110000000 1.0
C      1  0.5377650000000  0.4998950000000  0.5521820000000 1.0
C      1  0.5110280000000  0.5376590000000  0.5526270000000 1.0
C      1  0.4668530000000  0.5238770000000  0.5551100000000 1.0
C      1  0.4670150000000  0.4771250000000  0.5558280000000 1.0
C      1  0.4873810000000  0.5409460000000  0.5114210000000 1.0
C      1  0.5290810000000  0.5215720000000  0.5103540000000 1.0
C      1  0.5293320000000  0.4777330000000  0.5110000000000 1.0
C      1  0.4873590000000  0.4587710000000  0.5122150000000 1.0
C      1  0.4582410000000  0.4999580000000  0.5123840000000 1.0
C      1  0.4892650000000  0.4647570000000  0.4842570000000 1.0
C      1  0.5343840000000  0.4740070000000  0.4830410000000 1.0
C      1  0.5338220000000  0.5244440000000  0.4828820000000 1.0
C      1  0.4861840000000  0.5405620000000  0.4838510000000 1.0
C      1  0.4637640000000  0.5004170000000  0.4849120000000 1.0
C      1  0.5124640000000  0.4579930000000  0.5251660000000 1.0
C      1  0.4718350000000  0.4786620000000  0.5265690000000 1.0
C      1  0.4718220000000  0.5212870000000  0.5263430000000 1.0
C      1  0.5130330000000  0.5419790000000  0.5242630000000 1.0
C      1  0.5442080000000  0.4995890000000  0.5248610000000 1.0
C      1  0.5103140000000  0.5337620000000  0.4689260000000 1.0
C      1  0.4647970000000  0.5263590000000  0.4710080000000 1.0
C      1  0.4643990000000  0.4737420000000  0.4703990000000 1.0
C      1  0.5145030000000  0.4586600000000  0.4700870000000 1.0
C      1  0.5352950000000  0.4992260000000  0.4686920000000 1.0
C      1  0.5055080000000  0.5039080000000  0.4631330000000 1.0
C      1  0.4932200000000  0.4999190000000  0.5321300000000 1.0
C      1  0.4930160000000  0.4948600000000  0.4866250000000 1.0
C      1  0.5086420000000  0.4999190000000  0.5086370000000 1.0
END
