TITL C-32021-8300-5 -0.112445397973747 125000 -196.871480112895 0 0 30 (C1) n - 1
REM
REM in /rds/project/t2_vol4/rds-t2-cs072/BORA/CARBON/from-Arr/AIRSS/Generating-Clusters/GAP-ML-2020/Higher-Symm/SD-CG/HFTN-CG
REM
REM
REM
REM
REM
REM ./C.cell (b20cbc046b6831c77cfcea5457e17084)
REM AIRSS Version 0.9.1 bugfix July 2018 build 013d7b7c2542+ Fri, 06 Jul 2018 19:26:36 +0100
REM compiler GCC version 9.3.0
REM options -cpp -mtune=generic -march=x86-64 -g -O0
REM seed -1574706094 462818708 1265003216 -1442371016 1127180453 -1384729466 131307297 465149118 -41315982 118320715 -1252253434 -739420259 -56759543 -1486667674 -1934009872 -337502946 -1916813646 -1788898861 -1169950214 -1304919160 -2067138207 -1986625309 276110263 -1031955054 1699735224 -338209570 613611967 1475807534 545714290 944448459 1237877319 565260064 -371951086
REM
CELL 1.54180   50.00000   50.00000   50.00000   90.00000   90.00000   90.00000
LATT -1
SFAC C  
C      1  0.4791610000000  0.4612810000000  0.4719040000000 1.0
C      1  0.4923940000000  0.5066040000000  0.5375210000000 1.0
C      1  0.4687000000000  0.5217800000000  0.5343700000000 1.0
C      1  0.5588350000000  0.4824720000000  0.5286380000000 1.0
C      1  0.4999500000000  0.5202520000000  0.5111460000000 1.0
C      1  0.5250620000000  0.5446760000000  0.4611890000000 1.0
C      1  0.5305200000000  0.4492090000000  0.5095290000000 1.0
C      1  0.5329730000000  0.4404620000000  0.4832530000000 1.0
C      1  0.5238850000000  0.5584830000000  0.4860890000000 1.0
C      1  0.4588950000000  0.4769400000000  0.4629020000000 1.0
C      1  0.4513740000000  0.5063530000000  0.5179140000000 1.0
C      1  0.4586820000000  0.5082270000000  0.4889630000000 1.0
C      1  0.5059610000000  0.4969460000000  0.4681010000000 1.0
C      1  0.5530220000000  0.4577610000000  0.5241280000000 1.0
C      1  0.4864220000000  0.5681150000000  0.5109340000000 1.0
C      1  0.5050260000000  0.4692550000000  0.4603210000000 1.0
C      1  0.4406120000000  0.4827460000000  0.5305190000000 1.0
C      1  0.5370060000000  0.4996370000000  0.5294690000000 1.0
C      1  0.4593790000000  0.4692060000000  0.5182120000000 1.0
C      1  0.4810920000000  0.5433750000000  0.5178150000000 1.0
C      1  0.5113820000000  0.4859770000000  0.5345810000000 1.0
C      1  0.5185020000000  0.5200630000000  0.4607350000000 1.0
C      1  0.5399850000000  0.5473360000000  0.5067710000000 1.0
C      1  0.4447510000000  0.4982240000000  0.4659140000000 1.0
C      1  0.4833110000000  0.4693000000000  0.5008350000000 1.0
C      1  0.5290120000000  0.5243870000000  0.5159380000000 1.0
C      1  0.5069870000000  0.4634120000000  0.5172580000000 1.0
C      1  0.5249320000000  0.4500700000000  0.4608330000000 1.0
C      1  0.4880480000000  0.5007660000000  0.4910050000000 1.0
C      1  0.5041390000000  0.5766840000000  0.4932140000000 1.0
END
