TITL C-32004-8285-7 0.0533453507862023 125000 -526.954867206258 0 0 77 (C1) n - 1
REM
REM in /rds/project/t2_vol4/rds-t2-cs072/BORA/CARBON/from-Arr/AIRSS/Generating-Clusters/GAP-ML-2020/Higher-Symm/SD-CG/HFTN-CG
REM
REM
REM
REM
REM
REM ./C.cell (b20cbc046b6831c77cfcea5457e17084)
REM AIRSS Version 0.9.1 bugfix July 2018 build 013d7b7c2542+ Fri, 06 Jul 2018 19:26:36 +0100
REM compiler GCC version 9.3.0
REM options -cpp -mtune=generic -march=x86-64 -g -O0
REM seed -288259331 -512623258 -1436127637 -1471519926 -1923077970 -1039993770 1563414041 327558652 963717426 1911466309 664326342 744001110 1626126400 -891038449 529341322 686432236 66223321 -72877287 1122208917 1434037824 -1873318971 1675776355 -1339306030 -310330013 -952297776 1886272727 -179771440 -702340404 1451969379 -2048216325 -863764854 -486921452 1943427744
REM
CELL 1.54180   50.00000   50.00000   50.00000   90.00000   90.00000   90.00000
LATT -1
SFAC C  
C      1  0.5036000000000  0.4669320000000  0.5586060000000 1.0
C      1  0.5194390000000  0.4911750000000  0.5625160000000 1.0
C      1  0.5090280000000  0.5455450000000  0.5542820000000 1.0
C      1  0.4864560000000  0.5306720000000  0.5566730000000 1.0
C      1  0.4791550000000  0.4813950000000  0.5578330000000 1.0
C      1  0.5066280000000  0.4719120000000  0.4469850000000 1.0
C      1  0.5356600000000  0.5065890000000  0.4407790000000 1.0
C      1  0.5131900000000  0.5233190000000  0.4492740000000 1.0
C      1  0.4860210000000  0.5150930000000  0.4497970000000 1.0
C      1  0.4821950000000  0.4876930000000  0.4495440000000 1.0
C      1  0.5248210000000  0.4333370000000  0.4758060000000 1.0
C      1  0.5797020000000  0.4976230000000  0.4720920000000 1.0
C      1  0.5410660000000  0.5547330000000  0.4719280000000 1.0
C      1  0.4412370000000  0.5422680000000  0.4717490000000 1.0
C      1  0.4381470000000  0.4650350000000  0.4722430000000 1.0
C      1  0.5154090000000  0.4252250000000  0.5289260000000 1.0
C      1  0.5688780000000  0.4928160000000  0.5368060000000 1.0
C      1  0.5262900000000  0.5751450000000  0.5120840000000 1.0
C      1  0.4409620000000  0.5496320000000  0.5299690000000 1.0
C      1  0.4404900000000  0.4550490000000  0.5291090000000 1.0
C      1  0.5756040000000  0.4654840000000  0.5307280000000 1.0
C      1  0.5481000000000  0.5704060000000  0.4955200000000 1.0
C      1  0.4393180000000  0.5765850000000  0.5283420000000 1.0
C      1  0.4151810000000  0.4643390000000  0.5257710000000 1.0
C      1  0.4938520000000  0.4083780000000  0.5285020000000 1.0
C      1  0.5834590000000  0.4703660000000  0.4787230000000 1.0
C      1  0.5644750000000  0.5405190000000  0.4630920000000 1.0
C      1  0.4421390000000  0.5692040000000  0.4699580000000 1.0
C      1  0.4150920000000  0.4794670000000  0.4683440000000 1.0
C      1  0.5061140000000  0.4140370000000  0.4745710000000 1.0
C      1  0.5707870000000  0.5566150000000  0.5064810000000 1.0
C      1  0.4577450000000  0.5877210000000  0.5122780000000 1.0
C      1  0.4110820000000  0.4890070000000  0.5154190000000 1.0
C      1  0.4718680000000  0.4136000000000  0.5123680000000 1.0
C      1  0.5852790000000  0.4603390000000  0.5051080000000 1.0
C      1  0.5828420000000  0.5419110000000  0.4850750000000 1.0
C      1  0.4607900000000  0.5836370000000  0.4834900000000 1.0
C      1  0.4112500000000  0.5001110000000  0.4861440000000 1.0
C      1  0.4812080000000  0.4111480000000  0.4839860000000 1.0
C      1  0.5714250000000  0.4454330000000  0.4856520000000 1.0
C      1  0.4654700000000  0.5055350000000  0.4903800000000 1.0
C      1  0.4839400000000  0.4592850000000  0.4860170000000 1.0
C      1  0.5245890000000  0.4838980000000  0.4947170000000 1.0
C      1  0.5250990000000  0.5118500000000  0.4956330000000 1.0
C      1  0.4913590000000  0.5480980000000  0.4841450000000 1.0
C      1  0.4579100000000  0.5057460000000  0.5195250000000 1.0
C      1  0.4835650000000  0.4616280000000  0.5156100000000 1.0
C      1  0.5303230000000  0.4723830000000  0.5221550000000 1.0
C      1  0.5344580000000  0.5238810000000  0.5220430000000 1.0
C      1  0.4878070000000  0.5493130000000  0.5155510000000 1.0
C      1  0.5514390000000  0.4517600000000  0.5328030000000 1.0
C      1  0.5632350000000  0.5358910000000  0.5242170000000 1.0
C      1  0.4833170000000  0.5799270000000  0.5207330000000 1.0
C      1  0.4277400000000  0.5081930000000  0.5263780000000 1.0
C      1  0.4485880000000  0.4317580000000  0.5116770000000 1.0
C      1  0.5489000000000  0.4303560000000  0.4913760000000 1.0
C      1  0.5889730000000  0.5156810000000  0.4936260000000 1.0
C      1  0.4888340000000  0.5785870000000  0.4800880000000 1.0
C      1  0.4200040000000  0.5276300000000  0.4877790000000 1.0
C      1  0.4710130000000  0.4348940000000  0.4731660000000 1.0
C      1  0.4654780000000  0.4805260000000  0.4741430000000 1.0
C      1  0.5122380000000  0.4628400000000  0.4754610000000 1.0
C      1  0.5611200000000  0.5132310000000  0.4547760000000 1.0
C      1  0.5175250000000  0.5364190000000  0.4747730000000 1.0
C      1  0.4706090000000  0.5288530000000  0.4728870000000 1.0
C      1  0.4646190000000  0.4777450000000  0.5315370000000 1.0
C      1  0.5072030000000  0.4542220000000  0.5315150000000 1.0
C      1  0.5382590000000  0.4975140000000  0.5396360000000 1.0
C      1  0.5168840000000  0.5490790000000  0.5273310000000 1.0
C      1  0.4675690000000  0.5328900000000  0.5315640000000 1.0
C      1  0.4222110000000  0.5333180000000  0.5163260000000 1.0
C      1  0.5433850000000  0.4274050000000  0.5201570000000 1.0
C      1  0.4448540000000  0.4390960000000  0.4831050000000 1.0
C      1  0.5035900000000  0.5888820000000  0.5032270000000 1.0
C      1  0.5808670000000  0.5135670000000  0.5223570000000 1.0
C      1  0.4936130000000  0.5050920000000  0.5646490000000 1.0
C      1  0.5262960000000  0.4823460000000  0.4311050000000 1.0
END
