TITL C-32010-8387-2 42.2552333537935 125000 -509.882488329237 0 0 75 (C1) n - 1
REM
REM in /rds/project/t2_vol4/rds-t2-cs072/BORA/CARBON/from-Arr/AIRSS/Generating-Clusters/GAP-ML-2020/Higher-Symm/SD-CG/HFTN-CG
REM
REM
REM
REM
REM
REM ./C.cell (b20cbc046b6831c77cfcea5457e17084)
REM AIRSS Version 0.9.1 bugfix July 2018 build 013d7b7c2542+ Fri, 06 Jul 2018 19:26:36 +0100
REM compiler GCC version 9.3.0
REM options -cpp -mtune=generic -march=x86-64 -g -O0
REM seed -982914548 543811558 1794139039 -1921695391 -760997678 -951212860 254796840 899974320 738225077 -600107093 538917608 -764994333 258226712 1054036590 601937257 -629284204 1486478644 1004788687 -662324452 90721863 -1626213208 -717743104 -2092792691 34806697 1879694126 -1758893542 -1111464889 1121724088 -1039678094 -1391077119 -1457203081 1917376807 -313571452
REM
CELL 1.54180   50.00000   50.00000   50.00000   90.00000   90.00000   90.00000
LATT -1
SFAC C  
C      1  0.4339080000000  0.4930470000000  0.5186450000000 1.0
C      1  0.5648840000000  0.4925920000000  0.5187450000000 1.0
C      1  0.5282070000000  0.5284020000000  0.4352750000000 1.0
C      1  0.4692670000000  0.5282410000000  0.4375320000000 1.0
C      1  0.4369350000000  0.5413300000000  0.5131000000000 1.0
C      1  0.5628090000000  0.5410590000000  0.5160000000000 1.0
C      1  0.4861930000000  0.5553380000000  0.5404230000000 1.0
C      1  0.5142660000000  0.5538130000000  0.5404900000000 1.0
C      1  0.5318350000000  0.5648080000000  0.4852260000000 1.0
C      1  0.4698710000000  0.5662200000000  0.4853340000000 1.0
C      1  0.5370680000000  0.4516560000000  0.4634360000000 1.0
C      1  0.4622040000000  0.4495280000000  0.4663100000000 1.0
C      1  0.4463800000000  0.5636260000000  0.4988440000000 1.0
C      1  0.5541340000000  0.5635800000000  0.5007690000000 1.0
C      1  0.5474010000000  0.5150490000000  0.4532560000000 1.0
C      1  0.4523150000000  0.5193610000000  0.4587930000000 1.0
C      1  0.4840310000000  0.4789730000000  0.4265280000000 1.0
C      1  0.5131670000000  0.4797180000000  0.4256980000000 1.0
C      1  0.5150450000000  0.5304260000000  0.5196980000000 1.0
C      1  0.4855200000000  0.5319240000000  0.5200550000000 1.0
C      1  0.4455530000000  0.5067100000000  0.5418970000000 1.0
C      1  0.5527090000000  0.5042250000000  0.5427210000000 1.0
C      1  0.4849970000000  0.5520510000000  0.4410260000000 1.0
C      1  0.5139510000000  0.5520540000000  0.4404870000000 1.0
C      1  0.4757010000000  0.5077240000000  0.5344700000000 1.0
C      1  0.5232040000000  0.5049810000000  0.5347580000000 1.0
C      1  0.4795880000000  0.4332000000000  0.5117560000000 1.0
C      1  0.5262300000000  0.4286480000000  0.5054070000000 1.0
C      1  0.4258480000000  0.4804160000000  0.4646740000000 1.0
C      1  0.5724740000000  0.4829460000000  0.4650220000000 1.0
C      1  0.4812210000000  0.5183310000000  0.5641520000000 1.0
C      1  0.5161180000000  0.5159280000000  0.5633900000000 1.0
C      1  0.4670140000000  0.5444100000000  0.5567960000000 1.0
C      1  0.5314330000000  0.5416350000000  0.5579900000000 1.0
C      1  0.4566090000000  0.4452340000000  0.5251870000000 1.0
C      1  0.5444810000000  0.4435810000000  0.5217910000000 1.0
C      1  0.5552420000000  0.4879280000000  0.4424370000000 1.0
C      1  0.4392110000000  0.4787770000000  0.4399620000000 1.0
C      1  0.5131780000000  0.4937220000000  0.4817990000000 1.0
C      1  0.4858440000000  0.4946530000000  0.4821300000000 1.0
C      1  0.4843760000000  0.4805930000000  0.5269250000000 1.0
C      1  0.5127610000000  0.4779860000000  0.5265170000000 1.0
C      1  0.5400120000000  0.4953960000000  0.5710200000000 1.0
C      1  0.4588430000000  0.4988840000000  0.5695560000000 1.0
C      1  0.4285190000000  0.5144670000000  0.5007020000000 1.0
C      1  0.5697590000000  0.5152550000000  0.5022140000000 1.0
C      1  0.4850920000000  0.5721790000000  0.4626790000000 1.0
C      1  0.5158720000000  0.5715070000000  0.4625410000000 1.0
C      1  0.5265220000000  0.5164990000000  0.4751620000000 1.0
C      1  0.4740970000000  0.5186030000000  0.4769980000000 1.0
C      1  0.4835270000000  0.5082930000000  0.4229560000000 1.0
C      1  0.5123730000000  0.5088840000000  0.4215450000000 1.0
C      1  0.4433040000000  0.5355410000000  0.5406420000000 1.0
C      1  0.5555160000000  0.5332920000000  0.5429860000000 1.0
C      1  0.4380940000000  0.4594590000000  0.4801450000000 1.0
C      1  0.5608310000000  0.4613000000000  0.4785160000000 1.0
C      1  0.5700680000000  0.5101440000000  0.4740770000000 1.0
C      1  0.4299580000000  0.5076910000000  0.4722120000000 1.0
C      1  0.4647660000000  0.4716080000000  0.5724180000000 1.0
C      1  0.5345310000000  0.4708530000000  0.5802730000000 1.0
C      1  0.5355740000000  0.4676660000000  0.4394180000000 1.0
C      1  0.4629550000000  0.4644300000000  0.4411090000000 1.0
C      1  0.4746140000000  0.4748360000000  0.4996250000000 1.0
C      1  0.5237480000000  0.4738900000000  0.4991840000000 1.0
C      1  0.5209160000000  0.4501960000000  0.5393970000000 1.0
C      1  0.4698330000000  0.4595950000000  0.5457020000000 1.0
C      1  0.4858280000000  0.5402360000000  0.4914750000000 1.0
C      1  0.5169090000000  0.5386430000000  0.4908130000000 1.0
C      1  0.4844110000000  0.4468070000000  0.4863730000000 1.0
C      1  0.5159340000000  0.4461540000000  0.4842500000000 1.0
C      1  0.5159330000000  0.4536730000000  0.5683270000000 1.0
C      1  0.4863270000000  0.4544210000000  0.5697700000000 1.0
C      1  0.5541610000000  0.4671370000000  0.5065900000000 1.0
C      1  0.4450520000000  0.4669310000000  0.5073240000000 1.0
C      1  0.5047240000000  0.4294290000000  0.5242340000000 1.0
END
