TITL C-32029-8281-9 0.675675721360581 125000 -694.832864479442 0 0 100 (C1) n - 1
REM
REM in /rds/project/t2_vol4/rds-t2-cs072/BORA/CARBON/from-Arr/AIRSS/Generating-Clusters/GAP-ML-2020/Higher-Symm/SD-CG/HFTN-CG
REM
REM
REM
REM
REM
REM ./C.cell (b20cbc046b6831c77cfcea5457e17084)
REM AIRSS Version 0.9.1 bugfix July 2018 build 013d7b7c2542+ Fri, 06 Jul 2018 19:26:36 +0100
REM compiler GCC version 9.3.0
REM options -cpp -mtune=generic -march=x86-64 -g -O0
REM seed 723450172 -268126858 -1696281153 -66570498 -1930915130 1557741247 807935015 1582893079 -1780176057 730659004 -194712630 -864377705 -563570433 -1311525114 1042425194 379183234 -1979638016 -685099036 1105586139 1627878747 -634940184 49486850 1516012569 -72666483 -511172480 105449209 -1351254869 -9181343 -144794642 -1050129503 -1788416278 899795033 -223246602
REM
CELL 1.54180   50.00000   50.00000   50.00000   90.00000   90.00000   90.00000
LATT -1
SFAC C  
C      1  0.5237810000000  0.4684130000000  0.5056110000000 1.0
C      1  0.5219370000000  0.4823080000000  0.4788860000000 1.0
C      1  0.5204590000000  0.5232280000000  0.4809780000000 1.0
C      1  0.5214050000000  0.5280980000000  0.5080080000000 1.0
C      1  0.5226110000000  0.4914420000000  0.5234670000000 1.0
C      1  0.4808730000000  0.4654370000000  0.4860480000000 1.0
C      1  0.4804360000000  0.5020320000000  0.4661450000000 1.0
C      1  0.4793540000000  0.5403130000000  0.4936990000000 1.0
C      1  0.4855780000000  0.5190700000000  0.5387040000000 1.0
C      1  0.4808870000000  0.4750410000000  0.5238180000000 1.0
C      1  0.4734480000000  0.4337450000000  0.4513280000000 1.0
C      1  0.4699810000000  0.5254900000000  0.4249340000000 1.0
C      1  0.4706710000000  0.5858020000000  0.4983400000000 1.0
C      1  0.4700610000000  0.5284270000000  0.5750010000000 1.0
C      1  0.4705250000000  0.4326720000000  0.5472010000000 1.0
C      1  0.5216350000000  0.4694160000000  0.5680320000000 1.0
C      1  0.5224650000000  0.4211150000000  0.4924540000000 1.0
C      1  0.5246810000000  0.4861470000000  0.4297020000000 1.0
C      1  0.5186830000000  0.5688480000000  0.4606510000000 1.0
C      1  0.5239120000000  0.5579780000000  0.5462570000000 1.0
C      1  0.4172010000000  0.4815090000000  0.4789960000000 1.0
C      1  0.4144660000000  0.5099070000000  0.4786370000000 1.0
C      1  0.4112990000000  0.5437160000000  0.5132090000000 1.0
C      1  0.4154090000000  0.4955920000000  0.5240680000000 1.0
C      1  0.4170340000000  0.4725520000000  0.5068890000000 1.0
C      1  0.5673010000000  0.5191860000000  0.5401790000000 1.0
C      1  0.5672800000000  0.4490240000000  0.5420690000000 1.0
C      1  0.5684220000000  0.4480640000000  0.4742610000000 1.0
C      1  0.5665480000000  0.5181060000000  0.4534640000000 1.0
C      1  0.5660610000000  0.5723850000000  0.4897360000000 1.0
C      1  0.4407390000000  0.4709800000000  0.4626500000000 1.0
C      1  0.4389060000000  0.5242520000000  0.4644790000000 1.0
C      1  0.4354400000000  0.5545400000000  0.5084620000000 1.0
C      1  0.4402720000000  0.4964480000000  0.5434260000000 1.0
C      1  0.4402790000000  0.4538480000000  0.5130130000000 1.0
C      1  0.4531370000000  0.4542120000000  0.4846640000000 1.0
C      1  0.4523870000000  0.4985790000000  0.4550700000000 1.0
C      1  0.4509020000000  0.5351700000000  0.4909120000000 1.0
C      1  0.4572520000000  0.5162920000000  0.5327460000000 1.0
C      1  0.4531170000000  0.4701350000000  0.5350800000000 1.0
C      1  0.5786050000000  0.4748110000000  0.4786730000000 1.0
C      1  0.5783290000000  0.5378440000000  0.4709450000000 1.0
C      1  0.5788460000000  0.5476470000000  0.4995290000000 1.0
C      1  0.5779300000000  0.4934210000000  0.5324190000000 1.0
C      1  0.5809890000000  0.4501100000000  0.5173560000000 1.0
C      1  0.4985160000000  0.5659470000000  0.5316650000000 1.0
C      1  0.4982010000000  0.4875220000000  0.5689070000000 1.0
C      1  0.4983910000000  0.4247950000000  0.5101740000000 1.0
C      1  0.5012240000000  0.4676870000000  0.4345300000000 1.0
C      1  0.4959390000000  0.5532970000000  0.4500380000000 1.0
C      1  0.5207680000000  0.4424440000000  0.5530350000000 1.0
C      1  0.5238190000000  0.4325120000000  0.4639960000000 1.0
C      1  0.5219510000000  0.5154380000000  0.4285690000000 1.0
C      1  0.5192980000000  0.5797780000000  0.4888840000000 1.0
C      1  0.5236320000000  0.5331920000000  0.5622300000000 1.0
C      1  0.4543360000000  0.5735040000000  0.5198400000000 1.0
C      1  0.4532910000000  0.5023060000000  0.5703260000000 1.0
C      1  0.4544030000000  0.4282070000000  0.5229740000000 1.0
C      1  0.4572940000000  0.4549490000000  0.4406120000000 1.0
C      1  0.4520370000000  0.5413980000000  0.4426660000000 1.0
C      1  0.5655600000000  0.5632090000000  0.4633120000000 1.0
C      1  0.5678110000000  0.5435610000000  0.5257840000000 1.0
C      1  0.5671880000000  0.4751430000000  0.5523710000000 1.0
C      1  0.5683800000000  0.4335710000000  0.4983580000000 1.0
C      1  0.5681790000000  0.4901630000000  0.4562910000000 1.0
C      1  0.5460320000000  0.5629900000000  0.5296200000000 1.0
C      1  0.5450380000000  0.4858710000000  0.5660130000000 1.0
C      1  0.5446000000000  0.4232500000000  0.5098420000000 1.0
C      1  0.5476340000000  0.4743420000000  0.4426450000000 1.0
C      1  0.5419450000000  0.5577850000000  0.4495690000000 1.0
C      1  0.4971600000000  0.4550900000000  0.5083040000000 1.0
C      1  0.4974900000000  0.4767220000000  0.4634330000000 1.0
C      1  0.4938790000000  0.5296680000000  0.4701740000000 1.0
C      1  0.4959360000000  0.5388670000000  0.5186820000000 1.0
C      1  0.4978720000000  0.4920370000000  0.5386290000000 1.0
C      1  0.4710160000000  0.5689350000000  0.5440170000000 1.0
C      1  0.4704390000000  0.4797240000000  0.5742950000000 1.0
C      1  0.4705340000000  0.4176420000000  0.5024680000000 1.0
C      1  0.4732290000000  0.4722340000000  0.4253150000000 1.0
C      1  0.4676500000000  0.5643260000000  0.4516290000000 1.0
C      1  0.5438930000000  0.5302290000000  0.4394350000000 1.0
C      1  0.5431130000000  0.5774860000000  0.5045230000000 1.0
C      1  0.5453880000000  0.5148010000000  0.5595980000000 1.0
C      1  0.5437090000000  0.4337330000000  0.5385040000000 1.0
C      1  0.5469010000000  0.4477460000000  0.4561540000000 1.0
C      1  0.4984140000000  0.4290310000000  0.5407320000000 1.0
C      1  0.5016870000000  0.4404330000000  0.4474700000000 1.0
C      1  0.4978710000000  0.5325320000000  0.4287140000000 1.0
C      1  0.4980850000000  0.5833600000000  0.5065770000000 1.0
C      1  0.4975530000000  0.5197490000000  0.5678940000000 1.0
C      1  0.4626940000000  0.4985630000000  0.4274850000000 1.0
C      1  0.4642630000000  0.5827230000000  0.4714680000000 1.0
C      1  0.4653550000000  0.5550270000000  0.5675520000000 1.0
C      1  0.4621610000000  0.4565320000000  0.5593420000000 1.0
C      1  0.4628260000000  0.4275020000000  0.4766860000000 1.0
C      1  0.5846100000000  0.4769760000000  0.5081390000000 1.0
C      1  0.4088880000000  0.5174670000000  0.5064820000000 1.0
C      1  0.4570150000000  0.5112140000000  0.5051560000000 1.0
C      1  0.5109770000000  0.5009870000000  0.4985710000000 1.0
C      1  0.4797290000000  0.4942380000000  0.4976400000000 1.0
END
