TITL C-32018-8319-1 -18.6998769652433 125000 -234.029320409626 0 0 35 (C3h) n - 1
REM
REM in /rds/project/t2_vol4/rds-t2-cs072/BORA/CARBON/from-Arr/AIRSS/Generating-Clusters/GAP-ML-2020/Higher-Symm/SD-CG/HFTN-CG
REM
REM
REM
REM
REM
REM ./C.cell (b20cbc046b6831c77cfcea5457e17084)
REM AIRSS Version 0.9.1 bugfix July 2018 build 013d7b7c2542+ Fri, 06 Jul 2018 19:26:36 +0100
REM compiler GCC version 9.3.0
REM options -cpp -mtune=generic -march=x86-64 -g -O0
REM seed 752238100 1795138150 1673614269 -353720234 573442051 2136042741 1203407732 -1690827725 -105569273 -309867394 -724265539 835114869 -1569531105 -1670701146 -278715140 -1521316993 -253732580 1679585451 -1563247647 -546428777 -293276300 346052491 -443546723 -315923832 859186550 1007504933 8142421 1009669916 -591709602 -592178369 1511239907 679344787 -22689695
REM
CELL 1.54180   50.00000   50.00000   50.00000   90.00000   90.00000   90.00000
LATT -1
SFAC C  
C      1  0.5088920000000  0.4764440000000  0.5353340000000 1.0
C      1  0.5177620000000  0.5255570000000  0.5314560000000 1.0
C      1  0.4706640000000  0.5086180000000  0.5322860000000 1.0
C      1  0.5097240000000  0.4705930000000  0.4631320000000 1.0
C      1  0.5185940000000  0.5197060000000  0.4592550000000 1.0
C      1  0.4714960000000  0.5027670000000  0.4600840000000 1.0
C      1  0.5643970000000  0.5384080000000  0.5205550000000 1.0
C      1  0.4356710000000  0.5410820000000  0.5188550000000 1.0
C      1  0.4976070000000  0.4286190000000  0.5286820000000 1.0
C      1  0.5649910000000  0.5342310000000  0.4690090000000 1.0
C      1  0.4362650000000  0.5369050000000  0.4673090000000 1.0
C      1  0.4982010000000  0.4244420000000  0.4771360000000 1.0
C      1  0.5460550000000  0.5139240000000  0.4665810000000 1.0
C      1  0.4631560000000  0.5302240000000  0.4643050000000 1.0
C      1  0.4903780000000  0.4504980000000  0.4710790000000 1.0
C      1  0.5453730000000  0.5187220000000  0.5257860000000 1.0
C      1  0.4624740000000  0.5350220000000  0.5235100000000 1.0
C      1  0.4896950000000  0.4552960000000  0.5302850000000 1.0
C      1  0.5363150000000  0.4726070000000  0.5288440000000 1.0
C      1  0.5070300000000  0.5502230000000  0.5222170000000 1.0
C      1  0.4542160000000  0.4860720000000  0.5268070000000 1.0
C      1  0.5369850000000  0.4679020000000  0.4707810000000 1.0
C      1  0.5077000000000  0.5455170000000  0.4641540000000 1.0
C      1  0.4548850000000  0.4813660000000  0.4687440000000 1.0
C      1  0.5493940000000  0.4889700000000  0.4833360000000 1.0
C      1  0.4839460000000  0.5475240000000  0.4778360000000 1.0
C      1  0.4657450000000  0.4617010000000  0.4845820000000 1.0
C      1  0.5490480000000  0.4914020000000  0.5133490000000 1.0
C      1  0.4836000000000  0.5499560000000  0.5078490000000 1.0
C      1  0.4653990000000  0.4641340000000  0.5145940000000 1.0
C      1  0.5001660000000  0.4235240000000  0.5031790000000 1.0
C      1  0.5661770000000  0.5397780000000  0.4945190000000 1.0
C      1  0.4322230000000  0.5385410000000  0.4930750000000 1.0
C      1  0.4999750000000  0.4974290000000  0.4576220000000 1.0
C      1  0.4990690000000  0.5037990000000  0.5362270000000 1.0
END
