TITL C-32013-8483-8 0.0133174152135518 125000 -75.7811291045634 0 0 12 (Oh) n - 1
REM
REM in /rds/project/t2_vol4/rds-t2-cs072/BORA/CARBON/from-Arr/AIRSS/Generating-Clusters/GAP-ML-2020/Higher-Symm/SD-CG/HFTN-CG
REM
REM
REM
REM
REM
REM ./C.cell (b20cbc046b6831c77cfcea5457e17084)
REM AIRSS Version 0.9.1 bugfix July 2018 build 013d7b7c2542+ Fri, 06 Jul 2018 19:26:36 +0100
REM compiler GCC version 9.3.0
REM options -cpp -mtune=generic -march=x86-64 -g -O0
REM seed -728126268 -2145322917 1594333843 373382529 1572011379 -1562183983 2099793896 1077669620 -1144326064 2078575456 -620958233 1098094520 2120529411 -394355362 -1877364524 -1826443620 -1020757258 271234779 2078390425 -972268732 -1118514189 -1407370432 727173632 -541786628 -2012705901 291605419 -228763151 -1021587384 2122075521 1897236391 -2098919893 -11830102 9884312
REM
CELL 1.54180   50.00000   50.00000   50.00000   90.00000   90.00000   90.00000
LATT -1
SFAC C  
C      1  0.4818390000000  0.4841590000000  0.5140310000000 1.0
C      1  0.4818390000000  0.5140310000000  0.5158410000000 1.0
C      1  0.4818390000000  0.5158410000000  0.4859690000000 1.0
C      1  0.4818390000000  0.4859690000000  0.4841590000000 1.0
C      1  0.5241620000000  0.4841590000000  0.5140310000000 1.0
C      1  0.5241620000000  0.5140310000000  0.5158410000000 1.0
C      1  0.5241620000000  0.5158410000000  0.4859690000000 1.0
C      1  0.5241620000000  0.4859690000000  0.4841590000000 1.0
C      1  0.5030000000000  0.5018110000000  0.4701280000000 1.0
C      1  0.5030010000000  0.5298720000000  0.5018110000000 1.0
C      1  0.5030000000000  0.4701280000000  0.4981890000000 1.0
C      1  0.5030000000000  0.4981890000000  0.5298720000000 1.0
END
