TITL C-32020-8244-5 -0.200052850344211 125000 -575.564435556499 0 0 88 (S4) n - 1
REM
REM in /rds/project/t2_vol4/rds-t2-cs072/BORA/CARBON/from-Arr/AIRSS/Generating-Clusters/GAP-ML-2020/Higher-Symm/SD-CG/HFTN-CG
REM
REM
REM
REM
REM
REM ./C.cell (b20cbc046b6831c77cfcea5457e17084)
REM AIRSS Version 0.9.1 bugfix July 2018 build 013d7b7c2542+ Fri, 06 Jul 2018 19:26:36 +0100
REM compiler GCC version 9.3.0
REM options -cpp -mtune=generic -march=x86-64 -g -O0
REM seed 1772668089 555942529 -1913021899 1373212591 863523743 1103548201 2093752528 34686757 -1392104713 1041393648 108260630 257946860 1147126858 906813599 -865562214 -822044431 -467452302 -2074273422 -542703759 -1109225484 1254403417 778895918 -624732996 -73558399 -1719252432 1636143466 -659733914 -2076649878 93784361 1327627474 -953982635 -358477510 -556373279
REM
CELL 1.54180   50.00000   50.00000   50.00000   90.00000   90.00000   90.00000
LATT -1
SFAC C  
C      1  0.5638630000000  0.5195170000000  0.4860160000000 1.0
C      1  0.4860160000000  0.4804770000000  0.4361380000000 1.0
C      1  0.4361380000000  0.5195220000000  0.5139820000000 1.0
C      1  0.5139830000000  0.4804840000000  0.5638640000000 1.0
C      1  0.4750820000000  0.5439730000000  0.4478610000000 1.0
C      1  0.4478620000000  0.4560270000000  0.5249210000000 1.0
C      1  0.5249200000000  0.5439770000000  0.5521350000000 1.0
C      1  0.5521360000000  0.4560220000000  0.4750840000000 1.0
C      1  0.4738190000000  0.4826950000000  0.4657240000000 1.0
C      1  0.4657240000000  0.5173060000000  0.5261800000000 1.0
C      1  0.5261810000000  0.4826980000000  0.5342780000000 1.0
C      1  0.5342770000000  0.5173010000000  0.4738180000000 1.0
C      1  0.4897460000000  0.5079040000000  0.4256360000000 1.0
C      1  0.4256360000000  0.4920950000000  0.5102540000000 1.0
C      1  0.5102540000000  0.5079110000000  0.5743630000000 1.0
C      1  0.5743640000000  0.4920900000000  0.4897470000000 1.0
C      1  0.5434170000000  0.5647100000000  0.5494120000000 1.0
C      1  0.5494140000000  0.4352880000000  0.4565880000000 1.0
C      1  0.4565860000000  0.5647060000000  0.4505810000000 1.0
C      1  0.4505830000000  0.4352950000000  0.5434190000000 1.0
C      1  0.4754280000000  0.4665130000000  0.5120490000000 1.0
C      1  0.5120480000000  0.5334900000000  0.5245690000000 1.0
C      1  0.5245710000000  0.4665100000000  0.4879550000000 1.0
C      1  0.4879530000000  0.5334870000000  0.4754270000000 1.0
C      1  0.4424170000000  0.5089830000000  0.4446450000000 1.0
C      1  0.4446460000000  0.4910200000000  0.5575840000000 1.0
C      1  0.5575840000000  0.5089860000000  0.5553540000000 1.0
C      1  0.5553540000000  0.4910110000000  0.4424170000000 1.0
C      1  0.4945130000000  0.4463400000000  0.5236400000000 1.0
C      1  0.5236380000000  0.5536610000000  0.5054830000000 1.0
C      1  0.5054840000000  0.4463380000000  0.4763660000000 1.0
C      1  0.4763640000000  0.5536610000000  0.4945110000000 1.0
C      1  0.4782260000000  0.4582200000000  0.4839060000000 1.0
C      1  0.4839050000000  0.5417810000000  0.5217700000000 1.0
C      1  0.5217720000000  0.4582210000000  0.5160990000000 1.0
C      1  0.5160970000000  0.5417780000000  0.4782250000000 1.0
C      1  0.5398550000000  0.5179200000000  0.4439570000000 1.0
C      1  0.4439580000000  0.4820750000000  0.4601470000000 1.0
C      1  0.4601460000000  0.5179280000000  0.5560410000000 1.0
C      1  0.5560420000000  0.4820760000000  0.5398550000000 1.0
C      1  0.4875040000000  0.5035960000000  0.4825530000000 1.0
C      1  0.4825530000000  0.4964050000000  0.5124960000000 1.0
C      1  0.5124960000000  0.5035970000000  0.5174470000000 1.0
C      1  0.5174470000000  0.4964030000000  0.4875050000000 1.0
C      1  0.5124140000000  0.4221400000000  0.4943300000000 1.0
C      1  0.4943280000000  0.5778590000000  0.4875800000000 1.0
C      1  0.4875820000000  0.4221410000000  0.5056780000000 1.0
C      1  0.5056760000000  0.5778600000000  0.5124120000000 1.0
C      1  0.4667710000000  0.5678810000000  0.5502580000000 1.0
C      1  0.5502600000000  0.4321230000000  0.5332340000000 1.0
C      1  0.5332320000000  0.5678740000000  0.4497350000000 1.0
C      1  0.4497370000000  0.4321220000000  0.4667730000000 1.0
C      1  0.5045950000000  0.4444340000000  0.4464440000000 1.0
C      1  0.4464420000000  0.5555640000000  0.4954000000000 1.0
C      1  0.4954020000000  0.4444400000000  0.5535620000000 1.0
C      1  0.5535600000000  0.5555620000000  0.5045940000000 1.0
C      1  0.5343140000000  0.5219230000000  0.5673760000000 1.0
C      1  0.5673760000000  0.4780760000000  0.4656870000000 1.0
C      1  0.4656870000000  0.5219180000000  0.4326220000000 1.0
C      1  0.4326230000000  0.4780830000000  0.5343150000000 1.0
C      1  0.4768260000000  0.4523080000000  0.4343970000000 1.0
C      1  0.4343950000000  0.5476910000000  0.5231700000000 1.0
C      1  0.5231720000000  0.4523150000000  0.5656090000000 1.0
C      1  0.5656070000000  0.5476860000000  0.4768250000000 1.0
C      1  0.5490730000000  0.4513280000000  0.5529250000000 1.0
C      1  0.5529240000000  0.5486700000000  0.4509230000000 1.0
C      1  0.4509250000000  0.4513250000000  0.4470800000000 1.0
C      1  0.4470790000000  0.5486770000000  0.5490710000000 1.0
C      1  0.4385480000000  0.5257930000000  0.4869610000000 1.0
C      1  0.4869610000000  0.4742110000000  0.5614540000000 1.0
C      1  0.5614530000000  0.5257920000000  0.5130370000000 1.0
C      1  0.5130370000000  0.4742040000000  0.4385490000000 1.0
C      1  0.5334340000000  0.4299320000000  0.5132660000000 1.0
C      1  0.5132640000000  0.5700660000000  0.4665610000000 1.0
C      1  0.4665630000000  0.4299320000000  0.4867420000000 1.0
C      1  0.4867400000000  0.5700700000000  0.5334320000000 1.0
C      1  0.5694540000000  0.4794690000000  0.5140410000000 1.0
C      1  0.5140410000000  0.5205260000000  0.4305440000000 1.0
C      1  0.4305450000000  0.4794710000000  0.4859610000000 1.0
C      1  0.4859600000000  0.5205340000000  0.5694540000000 1.0
C      1  0.4616220000000  0.4717460000000  0.5707730000000 1.0
C      1  0.5707720000000  0.5282590000000  0.5383750000000 1.0
C      1  0.5383760000000  0.4717360000000  0.4292300000000 1.0
C      1  0.4292300000000  0.5282590000000  0.4616210000000 1.0
C      1  0.5636930000000  0.5582180000000  0.5330420000000 1.0
C      1  0.5330430000000  0.4417780000000  0.4363120000000 1.0
C      1  0.4363100000000  0.5582170000000  0.4669520000000 1.0
C      1  0.4669540000000  0.4417870000000  0.5636950000000 1.0
END
