TITL C-32014-8408-13 121.853908012288 125000 -221.05244905318 0 0 34 (C2h) n - 1
REM
REM in /rds/project/t2_vol4/rds-t2-cs072/BORA/CARBON/from-Arr/AIRSS/Generating-Clusters/GAP-ML-2020/Higher-Symm/SD-CG/HFTN-CG
REM
REM
REM
REM
REM
REM ./C.cell (b20cbc046b6831c77cfcea5457e17084)
REM AIRSS Version 0.9.1 bugfix July 2018 build 013d7b7c2542+ Fri, 06 Jul 2018 19:26:36 +0100
REM compiler GCC version 9.3.0
REM options -cpp -mtune=generic -march=x86-64 -g -O0
REM seed 1560739046 512337030 -1545562253 1855918362 -988501063 -561076601 868170695 1440463780 553515592 1609618309 2018807398 -1021506231 -2092098206 699949436 -1878019159 -1111431311 -1491156709 -609214381 -2088196880 -589545961 1470127089 415668133 29968304 -1650311861 998275952 -1780757871 -1917129161 -1391551567 654631917 231518586 2032786593 -2137328004 1942402887
REM
CELL 1.54180   50.00000   50.00000   50.00000   90.00000   90.00000   90.00000
LATT -1
SFAC C  
C      1  0.5491280000000  0.4697200000000  0.4748280000000 1.0
C      1  0.5404830000000  0.5605730000000  0.4724360000000 1.0
C      1  0.4525560000000  0.5361150000000  0.4747000000000 1.0
C      1  0.4559250000000  0.4375870000000  0.4751840000000 1.0
C      1  0.5467550000000  0.4663730000000  0.5283160000000 1.0
C      1  0.5433860000000  0.5649020000000  0.5278330000000 1.0
C      1  0.4501820000000  0.5327690000000  0.5281870000000 1.0
C      1  0.4588280000000  0.4419160000000  0.5305810000000 1.0
C      1  0.4989330000000  0.5432280000000  0.5270380000000 1.0
C      1  0.4345070000000  0.4857960000000  0.5257950000000 1.0
C      1  0.5085160000000  0.4349120000000  0.5258920000000 1.0
C      1  0.5390660000000  0.5156350000000  0.5270910000000 1.0
C      1  0.4907950000000  0.5675770000000  0.4771230000000 1.0
C      1  0.4602440000000  0.4868530000000  0.4759250000000 1.0
C      1  0.5003780000000  0.4592600000000  0.4759780000000 1.0
C      1  0.5648050000000  0.5166930000000  0.4772220000000 1.0
C      1  0.5274790000000  0.4570540000000  0.4852670000000 1.0
C      1  0.5555850000000  0.5408480000000  0.4864030000000 1.0
C      1  0.4696230000000  0.5534120000000  0.4882320000000 1.0
C      1  0.4496540000000  0.4615020000000  0.4870200000000 1.0
C      1  0.5296880000000  0.4490770000000  0.5147840000000 1.0
C      1  0.5496570000000  0.5409860000000  0.5159970000000 1.0
C      1  0.4718310000000  0.5454350000000  0.5177490000000 1.0
C      1  0.4437260000000  0.4616410000000  0.5166140000000 1.0
C      1  0.4826780000000  0.4348600000000  0.5166650000000 1.0
C      1  0.5508480000000  0.4911090000000  0.5178540000000 1.0
C      1  0.5188310000000  0.5621800000000  0.5159560000000 1.0
C      1  0.4401700000000  0.5106230000000  0.5146650000000 1.0
C      1  0.4804790000000  0.4403080000000  0.4870610000000 1.0
C      1  0.5591410000000  0.4918660000000  0.4883510000000 1.0
C      1  0.5166330000000  0.5676290000000  0.4863510000000 1.0
C      1  0.4484630000000  0.5113800000000  0.4851620000000 1.0
C      1  0.4874680000000  0.4834550000000  0.4697290000000 1.0
C      1  0.5118420000000  0.5190330000000  0.5332870000000 1.0
END
