TITL C-32006-8275-1 0.10314584377009 125000 -653.966502941522 0 0 93 (C1) n - 1
REM
REM in /rds/project/t2_vol4/rds-t2-cs072/BORA/CARBON/from-Arr/AIRSS/Generating-Clusters/GAP-ML-2020/Higher-Symm/SD-CG/HFTN-CG
REM
REM
REM
REM
REM
REM ./C.cell (b20cbc046b6831c77cfcea5457e17084)
REM AIRSS Version 0.9.1 bugfix July 2018 build 013d7b7c2542+ Fri, 06 Jul 2018 19:26:36 +0100
REM compiler GCC version 9.3.0
REM options -cpp -mtune=generic -march=x86-64 -g -O0
REM seed -797964329 -2069593125 -1560303534 1579495782 -731514058 415593637 -791361220 1655261999 1593961458 1495355928 1470536611 677786322 807674638 -2140264125 1184730950 -1313323292 -90037783 -300063829 2145640074 -1323743216 -886148343 1769530977 -466853819 -702406504 -1177385917 887338150 -1403380630 -1545648817 -1448318167 100669310 -968676496 -1372968687 53584846
REM
CELL 1.54180   50.00000   50.00000   50.00000   90.00000   90.00000   90.00000
LATT -1
SFAC C  
C      1  0.5547070000000  0.4873190000000  0.4434980000000 1.0
C      1  0.4201460000000  0.4854090000000  0.4787430000000 1.0
C      1  0.5260840000000  0.4837060000000  0.5754440000000 1.0
C      1  0.5546560000000  0.5159900000000  0.4397630000000 1.0
C      1  0.4255930000000  0.5137600000000  0.4800960000000 1.0
C      1  0.5241180000000  0.5125450000000  0.5766580000000 1.0
C      1  0.4432290000000  0.4832160000000  0.4377850000000 1.0
C      1  0.5753540000000  0.4941040000000  0.4809630000000 1.0
C      1  0.4804250000000  0.4761630000000  0.5733480000000 1.0
C      1  0.4442760000000  0.5120730000000  0.4370810000000 1.0
C      1  0.5740090000000  0.5232530000000  0.4802020000000 1.0
C      1  0.4788810000000  0.5049010000000  0.5789470000000 1.0
C      1  0.5175040000000  0.5814200000000  0.5245150000000 1.0
C      1  0.5201770000000  0.5767870000000  0.4746250000000 1.0
C      1  0.4760040000000  0.5783850000000  0.5006430000000 1.0
C      1  0.5096210000000  0.4245140000000  0.5285750000000 1.0
C      1  0.5125210000000  0.4163020000000  0.4778690000000 1.0
C      1  0.4698600000000  0.4172520000000  0.5017590000000 1.0
C      1  0.4892350000000  0.5798840000000  0.5253940000000 1.0
C      1  0.4915000000000  0.5754280000000  0.4762000000000 1.0
C      1  0.5329970000000  0.5817390000000  0.4996330000000 1.0
C      1  0.4818810000000  0.4170980000000  0.5279630000000 1.0
C      1  0.4844230000000  0.4164420000000  0.4773980000000 1.0
C      1  0.5231090000000  0.4244670000000  0.5032500000000 1.0
C      1  0.5851770000000  0.4924860000000  0.5079070000000 1.0
C      1  0.4657460000000  0.4828590000000  0.4189620000000 1.0
C      1  0.4512510000000  0.4774630000000  0.5672780000000 1.0
C      1  0.5851510000000  0.5222350000000  0.5077860000000 1.0
C      1  0.4666530000000  0.5125750000000  0.4182640000000 1.0
C      1  0.4511500000000  0.5071540000000  0.5700190000000 1.0
C      1  0.4145420000000  0.4848780000000  0.5074870000000 1.0
C      1  0.5358150000000  0.4827510000000  0.4215710000000 1.0
C      1  0.5541670000000  0.4862300000000  0.5691370000000 1.0
C      1  0.4182270000000  0.5140660000000  0.5089450000000 1.0
C      1  0.5355000000000  0.5123320000000  0.4183640000000 1.0
C      1  0.5527070000000  0.5157610000000  0.5702510000000 1.0
C      1  0.5209600000000  0.4415510000000  0.5492150000000 1.0
C      1  0.5264740000000  0.4226080000000  0.4544170000000 1.0
C      1  0.4466900000000  0.4330660000000  0.4967360000000 1.0
C      1  0.5283370000000  0.5622180000000  0.5429100000000 1.0
C      1  0.5344970000000  0.5598210000000  0.4548430000000 1.0
C      1  0.4553320000000  0.5583100000000  0.5025910000000 1.0
C      1  0.4641200000000  0.4183100000000  0.5500460000000 1.0
C      1  0.4709700000000  0.4327900000000  0.4582100000000 1.0
C      1  0.5408200000000  0.4462500000000  0.4977480000000 1.0
C      1  0.4793900000000  0.5603290000000  0.5453400000000 1.0
C      1  0.4796730000000  0.5567910000000  0.4585850000000 1.0
C      1  0.5592510000000  0.5727160000000  0.5017500000000 1.0
C      1  0.4859290000000  0.4631850000000  0.4190010000000 1.0
C      1  0.4340320000000  0.4606080000000  0.5527640000000 1.0
C      1  0.5780610000000  0.4703750000000  0.5247250000000 1.0
C      1  0.4866210000000  0.5321250000000  0.4159340000000 1.0
C      1  0.4394980000000  0.5292790000000  0.5562520000000 1.0
C      1  0.5829140000000  0.5389130000000  0.5305190000000 1.0
C      1  0.5158920000000  0.4623010000000  0.4197830000000 1.0
C      1  0.5660880000000  0.4677110000000  0.5519510000000 1.0
C      1  0.4203850000000  0.4643650000000  0.5261990000000 1.0
C      1  0.5162130000000  0.5320730000000  0.4146920000000 1.0
C      1  0.5671920000000  0.5361860000000  0.5564640000000 1.0
C      1  0.4238530000000  0.5317160000000  0.5302060000000 1.0
C      1  0.5549780000000  0.5619750000000  0.5497080000000 1.0
C      1  0.5186160000000  0.5558780000000  0.4319620000000 1.0
C      1  0.4375510000000  0.5569340000000  0.5243250000000 1.0
C      1  0.5486700000000  0.4456730000000  0.5441140000000 1.0
C      1  0.5144040000000  0.4370810000000  0.4354370000000 1.0
C      1  0.4306840000000  0.4385340000000  0.5182260000000 1.0
C      1  0.4522150000000  0.5555300000000  0.5496040000000 1.0
C      1  0.4892360000000  0.5559480000000  0.4329130000000 1.0
C      1  0.5702370000000  0.5646100000000  0.5246540000000 1.0
C      1  0.4434750000000  0.4341440000000  0.5449340000000 1.0
C      1  0.4844320000000  0.4387830000000  0.4348930000000 1.0
C      1  0.5604630000000  0.4485940000000  0.5172740000000 1.0
C      1  0.4789200000000  0.4872410000000  0.5156390000000 1.0
C      1  0.5298000000000  0.4732410000000  0.4875030000000 1.0
C      1  0.4776030000000  0.4741570000000  0.4898230000000 1.0
C      1  0.4924900000000  0.5330320000000  0.5422530000000 1.0
C      1  0.5261620000000  0.5189760000000  0.5091770000000 1.0
C      1  0.4748460000000  0.5286140000000  0.4718440000000 1.0
C      1  0.5039640000000  0.4816070000000  0.5294800000000 1.0
C      1  0.4542840000000  0.4519320000000  0.4743720000000 1.0
C      1  0.5009720000000  0.4812280000000  0.4750500000000 1.0
C      1  0.5179300000000  0.5373650000000  0.5292170000000 1.0
C      1  0.4710820000000  0.5336120000000  0.4994880000000 1.0
C      1  0.5239330000000  0.5224040000000  0.4806660000000 1.0
C      1  0.4457490000000  0.5234870000000  0.4622910000000 1.0
C      1  0.5064280000000  0.4675910000000  0.5593990000000 1.0
C      1  0.5505040000000  0.5336900000000  0.4633590000000 1.0
C      1  0.5549790000000  0.4783450000000  0.4699930000000 1.0
C      1  0.4986360000000  0.5225510000000  0.5701580000000 1.0
C      1  0.4347680000000  0.4690110000000  0.4607350000000 1.0
C      1  0.4754980000000  0.5158320000000  0.5202360000000 1.0
C      1  0.5261520000000  0.4904140000000  0.5144180000000 1.0
C      1  0.5007530000000  0.5099770000000  0.4696510000000 1.0
END
