TITL C-32016-8381-9 -253.159538770106 125000 -661.81475669207 0 0 95 (C2) n - 1
REM
REM in /rds/project/t2_vol4/rds-t2-cs072/BORA/CARBON/from-Arr/AIRSS/Generating-Clusters/GAP-ML-2020/Higher-Symm/SD-CG/HFTN-CG
REM
REM
REM
REM
REM
REM ./C.cell (b20cbc046b6831c77cfcea5457e17084)
REM AIRSS Version 0.9.1 bugfix July 2018 build 013d7b7c2542+ Fri, 06 Jul 2018 19:26:36 +0100
REM compiler GCC version 9.3.0
REM options -cpp -mtune=generic -march=x86-64 -g -O0
REM seed -667494187 -790222326 847708694 1040472243 -334093076 -183430899 -1775471992 -1997034137 -1913274988 586384213 -1437567322 -903883114 1406038933 -1697403394 -1899002700 1140249100 -585914510 -1991802999 1897060692 1282507469 1003835081 261765507 7586203 -164002673 1567665157 -789153229 1226218203 -331226873 1279683580 -104910285 1658459326 945306140 -439810185
REM
CELL 1.54180   50.00000   50.00000   50.00000   90.00000   90.00000   90.00000
LATT -1
SFAC C  
C      1  0.4718740000000  0.5658030000000  0.4889820000000 1.0
C      1  0.4717310000000  0.4658760000000  0.4576580000000 1.0
C      1  0.4742060000000  0.4780900000000  0.5511570000000 1.0
C      1  0.5282530000000  0.5550720000000  0.5075740000000 1.0
C      1  0.5305110000000  0.4564460000000  0.5503800000000 1.0
C      1  0.5301500000000  0.4814160000000  0.4486800000000 1.0
C      1  0.5878980000000  0.5134860000000  0.4581250000000 1.0
C      1  0.5831160000000  0.4595030000000  0.5027710000000 1.0
C      1  0.5853270000000  0.5263530000000  0.5304610000000 1.0
C      1  0.4171710000000  0.5127280000000  0.5387750000000 1.0
C      1  0.4141430000000  0.4575290000000  0.4903140000000 1.0
C      1  0.4190060000000  0.5236660000000  0.4672380000000 1.0
C      1  0.4099770000000  0.5235200000000  0.4940850000000 1.0
C      1  0.4018750000000  0.4804600000000  0.4783420000000 1.0
C      1  0.4069840000000  0.4907270000000  0.5236300000000 1.0
C      1  0.5953550000000  0.5247630000000  0.5037390000000 1.0
C      1  0.5922990000000  0.4825130000000  0.5165010000000 1.0
C      1  0.6001710000000  0.4913270000000  0.4714670000000 1.0
C      1  0.5111120000000  0.5022810000000  0.5742350000000 1.0
C      1  0.5113020000000  0.5653470000000  0.4596070000000 1.0
C      1  0.5093640000000  0.4361100000000  0.4675050000000 1.0
C      1  0.4924780000000  0.5053800000000  0.4285370000000 1.0
C      1  0.4915580000000  0.5624000000000  0.5404330000000 1.0
C      1  0.4909130000000  0.4316830000000  0.5350010000000 1.0
C      1  0.4769210000000  0.4810820000000  0.4317600000000 1.0
C      1  0.4764420000000  0.4473450000000  0.5548380000000 1.0
C      1  0.4769430000000  0.5733280000000  0.5172430000000 1.0
C      1  0.5256290000000  0.4767370000000  0.5714850000000 1.0
C      1  0.5248600000000  0.4514040000000  0.4483010000000 1.0
C      1  0.5259380000000  0.5741550000000  0.4831960000000 1.0
C      1  0.5502620000000  0.5694260000000  0.4692250000000 1.0
C      1  0.5494770000000  0.4410180000000  0.4589300000000 1.0
C      1  0.5498940000000  0.4916130000000  0.5757580000000 1.0
C      1  0.4527510000000  0.5693550000000  0.5323200000000 1.0
C      1  0.4520220000000  0.4379230000000  0.5436960000000 1.0
C      1  0.4523330000000  0.4956330000000  0.4285240000000 1.0
C      1  0.4230580000000  0.4671810000000  0.5179290000000 1.0
C      1  0.4254040000000  0.5326330000000  0.5183990000000 1.0
C      1  0.4141790000000  0.4960290000000  0.4573090000000 1.0
C      1  0.5877970000000  0.4653110000000  0.4739600000000 1.0
C      1  0.5791730000000  0.5321350000000  0.4807370000000 1.0
C      1  0.5770420000000  0.4986400000000  0.5369790000000 1.0
C      1  0.4630450000000  0.5423570000000  0.4485020000000 1.0
C      1  0.4602260000000  0.4412610000000  0.4943910000000 1.0
C      1  0.4619240000000  0.5240910000000  0.5565650000000 1.0
C      1  0.5407150000000  0.5358290000000  0.5496530000000 1.0
C      1  0.5390310000000  0.4339370000000  0.5093060000000 1.0
C      1  0.5417860000000  0.5255500000000  0.4465870000000 1.0
C      1  0.4379570000000  0.5072550000000  0.5580190000000 1.0
C      1  0.4389550000000  0.5439540000000  0.4637920000000 1.0
C      1  0.4354280000000  0.4437580000000  0.4764470000000 1.0
C      1  0.5664890000000  0.5088270000000  0.4392850000000 1.0
C      1  0.5646340000000  0.5457160000000  0.5358670000000 1.0
C      1  0.5632140000000  0.4461100000000  0.5184550000000 1.0
C      1  0.5401790000000  0.4883100000000  0.4772080000000 1.0
C      1  0.5468410000000  0.5105170000000  0.5336690000000 1.0
C      1  0.5483170000000  0.5174520000000  0.4765550000000 1.0
C      1  0.4538420000000  0.4711100000000  0.5030250000000 1.0
C      1  0.4618890000000  0.4867390000000  0.4783900000000 1.0
C      1  0.4556240000000  0.5235510000000  0.5266700000000 1.0
C      1  0.5699660000000  0.4594850000000  0.4529530000000 1.0
C      1  0.5693460000000  0.4806890000000  0.5584090000000 1.0
C      1  0.5691670000000  0.5588040000000  0.4866130000000 1.0
C      1  0.4331830000000  0.4583600000000  0.5437260000000 1.0
C      1  0.4318700000000  0.4810210000000  0.4413410000000 1.0
C      1  0.4331640000000  0.5602380000000  0.5141010000000 1.0
C      1  0.5579820000000  0.4569230000000  0.5450630000000 1.0
C      1  0.5568660000000  0.5599050000000  0.5129310000000 1.0
C      1  0.5580200000000  0.4821960000000  0.4381290000000 1.0
C      1  0.4438040000000  0.4565370000000  0.4530200000000 1.0
C      1  0.4443750000000  0.5610970000000  0.4867940000000 1.0
C      1  0.4456400000000  0.4802610000000  0.5582300000000 1.0
C      1  0.4799630000000  0.5072660000000  0.4860960000000 1.0
C      1  0.4763950000000  0.4798540000000  0.5203560000000 1.0
C      1  0.4775790000000  0.5094290000000  0.5142260000000 1.0
C      1  0.5247690000000  0.5072590000000  0.5152690000000 1.0
C      1  0.5222160000000  0.4843260000000  0.4988610000000 1.0
C      1  0.5258920000000  0.5278200000000  0.4931410000000 1.0
C      1  0.4879830000000  0.5054170000000  0.5577120000000 1.0
C      1  0.4868210000000  0.5513890000000  0.4662980000000 1.0
C      1  0.4866490000000  0.4494900000000  0.4795860000000 1.0
C      1  0.5153060000000  0.5087090000000  0.4461090000000 1.0
C      1  0.5146020000000  0.5465680000000  0.5344230000000 1.0
C      1  0.5153870000000  0.4445580000000  0.5263870000000 1.0
C      1  0.4668830000000  0.5208020000000  0.4302710000000 1.0
C      1  0.4653790000000  0.4279670000000  0.5201920000000 1.0
C      1  0.4660540000000  0.5527310000000  0.5522950000000 1.0
C      1  0.5366530000000  0.5173530000000  0.5719620000000 1.0
C      1  0.5350190000000  0.4295210000000  0.4814480000000 1.0
C      1  0.5367390000000  0.5545230000000  0.4486100000000 1.0
C      1  0.5001990000000  0.4658930000000  0.5052120000000 1.0
C      1  0.5019560000000  0.5221750000000  0.4734910000000 1.0
C      1  0.5012340000000  0.5172310000000  0.5305190000000 1.0
C      1  0.6051230000000  0.4992970000000  0.4982580000000 1.0
C      1  0.3971030000000  0.4992630000000  0.4990650000000 1.0
END
