TITL C-32027-8298-7 0.152061971729512 125000 -513.770076189448 0 0 77 (C3) n - 1
REM
REM in /rds/project/t2_vol4/rds-t2-cs072/BORA/CARBON/from-Arr/AIRSS/Generating-Clusters/GAP-ML-2020/Higher-Symm/SD-CG/HFTN-CG
REM
REM
REM
REM
REM
REM ./C.cell (b20cbc046b6831c77cfcea5457e17084)
REM AIRSS Version 0.9.1 bugfix July 2018 build 013d7b7c2542+ Fri, 06 Jul 2018 19:26:36 +0100
REM compiler GCC version 9.3.0
REM options -cpp -mtune=generic -march=x86-64 -g -O0
REM seed 1309485239 350856892 363536602 166365233 -615184132 1370965180 -1267909438 1410629963 -954174274 254987288 1015268541 429986099 1382660776 -483264596 1741154774 2012136940 -2036791495 -1867949494 -1855188957 -69959178 -1876716700 -815179087 -984515882 -1003002182 743618875 1439125882 -1651646870 1665066752 1627989447 -461246226 -647162652 -117519140 -1996186573
REM
CELL 1.54180   50.00000   50.00000   50.00000   90.00000   90.00000   90.00000
LATT -1
SFAC C  
C      1  0.4486220000000  0.5450890000000  0.4828970000000 1.0
C      1  0.5422340000000  0.5444950000000  0.4644960000000 1.0
C      1  0.5113480000000  0.5429040000000  0.5547500000000 1.0
C      1  0.4669460000000  0.4821140000000  0.4529730000000 1.0
C      1  0.5568220000000  0.4803000000000  0.4938780000000 1.0
C      1  0.4764350000000  0.4799280000000  0.5512550000000 1.0
C      1  0.5595920000000  0.5077630000000  0.4441910000000 1.0
C      1  0.5189900000000  0.5053260000000  0.5790870000000 1.0
C      1  0.4224550000000  0.5085200000000  0.4765100000000 1.0
C      1  0.5157120000000  0.4851910000000  0.5194270000000 1.0
C      1  0.4750390000000  0.4859670000000  0.5030030000000 1.0
C      1  0.5096100000000  0.4861770000000  0.4759940000000 1.0
C      1  0.5456960000000  0.4379850000000  0.5193560000000 1.0
C      1  0.4585010000000  0.4387200000000  0.5279360000000 1.0
C      1  0.4946830000000  0.4400330000000  0.4481470000000 1.0
C      1  0.4524560000000  0.4436950000000  0.4780880000000 1.0
C      1  0.5410160000000  0.4429790000000  0.4679150000000 1.0
C      1  0.5055310000000  0.4416170000000  0.5496810000000 1.0
C      1  0.5322420000000  0.5113010000000  0.5219460000000 1.0
C      1  0.4654880000000  0.5121160000000  0.5166550000000 1.0
C      1  0.5034610000000  0.5128870000000  0.4614990000000 1.0
C      1  0.4882200000000  0.4706380000000  0.5247150000000 1.0
C      1  0.4837070000000  0.4717150000000  0.4762200000000 1.0
C      1  0.5279690000000  0.4708170000000  0.4965510000000 1.0
C      1  0.4830580000000  0.4813610000000  0.4282900000000 1.0
C      1  0.5701040000000  0.4784950000000  0.5201400000000 1.0
C      1  0.4470060000000  0.4791650000000  0.5496040000000 1.0
C      1  0.4915780000000  0.5418320000000  0.4303560000000 1.0
C      1  0.5661230000000  0.5389770000000  0.5278620000000 1.0
C      1  0.4443790000000  0.5399230000000  0.5436750000000 1.0
C      1  0.5135380000000  0.5202990000000  0.4324460000000 1.0
C      1  0.5526030000000  0.5174920000000  0.5453490000000 1.0
C      1  0.4352690000000  0.5192060000000  0.5227450000000 1.0
C      1  0.5423780000000  0.5277940000000  0.4415210000000 1.0
C      1  0.5305890000000  0.5252770000000  0.5659670000000 1.0
C      1  0.4286940000000  0.5278860000000  0.4935600000000 1.0
C      1  0.4317460000000  0.4903560000000  0.5289220000000 1.0
C      1  0.5089670000000  0.4917360000000  0.4256550000000 1.0
C      1  0.5597890000000  0.4886860000000  0.5441320000000 1.0
C      1  0.4691250000000  0.5382500000000  0.5011820000000 1.0
C      1  0.5159270000000  0.5383570000000  0.4729680000000 1.0
C      1  0.5169550000000  0.5371860000000  0.5275940000000 1.0
C      1  0.5596410000000  0.4652040000000  0.4677740000000 1.0
C      1  0.4971030000000  0.4637690000000  0.5663880000000 1.0
C      1  0.4429670000000  0.4665340000000  0.4629500000000 1.0
C      1  0.5290100000000  0.4722360000000  0.4333420000000 1.0
C      1  0.5424520000000  0.4694650000000  0.5572110000000 1.0
C      1  0.4284370000000  0.4717320000000  0.5069400000000 1.0
C      1  0.4658060000000  0.5311530000000  0.4375470000000 1.0
C      1  0.5724160000000  0.5286690000000  0.5017070000000 1.0
C      1  0.4635170000000  0.5285360000000  0.5619510000000 1.0
C      1  0.4575930000000  0.5515360000000  0.4568080000000 1.0
C      1  0.5605480000000  0.5498450000000  0.4854390000000 1.0
C      1  0.4842520000000  0.5490590000000  0.5602760000000 1.0
C      1  0.4668310000000  0.5598920000000  0.5400740000000 1.0
C      1  0.4841540000000  0.5615780000000  0.4520530000000 1.0
C      1  0.5517300000000  0.5596140000000  0.5110460000000 1.0
C      1  0.5242490000000  0.5611920000000  0.5153390000000 1.0
C      1  0.4769060000000  0.5617150000000  0.5141640000000 1.0
C      1  0.5016040000000  0.5623130000000  0.4737590000000 1.0
C      1  0.5306730000000  0.4412110000000  0.4947750000000 1.0
C      1  0.4873940000000  0.4409770000000  0.5272710000000 1.0
C      1  0.4808950000000  0.4421860000000  0.4735550000000 1.0
C      1  0.4444720000000  0.4471940000000  0.5049430000000 1.0
C      1  0.5218850000000  0.4475950000000  0.4476700000000 1.0
C      1  0.5327720000000  0.4454500000000  0.5433250000000 1.0
C      1  0.5534640000000  0.4817080000000  0.4457810000000 1.0
C      1  0.5197880000000  0.4793740000000  0.5723950000000 1.0
C      1  0.4269630000000  0.4823130000000  0.4799530000000 1.0
C      1  0.4737360000000  0.5095880000000  0.4550680000000 1.0
C      1  0.5525530000000  0.5078190000000  0.4993370000000 1.0
C      1  0.4747840000000  0.5076580000000  0.5454570000000 1.0
C      1  0.5693010000000  0.4522080000000  0.5161690000000 1.0
C      1  0.4499460000000  0.4527390000000  0.5502950000000 1.0
C      1  0.4800880000000  0.4549780000000  0.4298920000000 1.0
C      1  0.5010100000000  0.5703120000000  0.5012690000000 1.0
C      1  0.5002810000000  0.5010980000000  0.4998000000000 1.0
END
