TITL C-32013-8483-1 -31.0271442157528 125000 -905.864863267371 0 0 132 (Ci) n - 1
REM
REM in /rds/project/t2_vol4/rds-t2-cs072/BORA/CARBON/from-Arr/AIRSS/Generating-Clusters/GAP-ML-2020/Higher-Symm/SD-CG/HFTN-CG
REM
REM
REM
REM
REM
REM ./C.cell (b20cbc046b6831c77cfcea5457e17084)
REM AIRSS Version 0.9.1 bugfix July 2018 build 013d7b7c2542+ Fri, 06 Jul 2018 19:26:36 +0100
REM compiler GCC version 9.3.0
REM options -cpp -mtune=generic -march=x86-64 -g -O0
REM seed -443376716 869551764 1832552802 -64604955 1979784892 1494999997 1563997312 -1787715474 1605127969 -2123036044 -1249416939 1998739750 470102222 -23211106 -651145027 -126335485 355749360 867874491 -672692192 -1600051065 223380404 -1209228986 974083011 -1348352921 -283501754 837859466 757653722 -1533522677 869758319 -1961974869 1892363868 1380916690 -1027880193
REM
CELL 1.54180   50.00000   50.00000   50.00000   90.00000   90.00000   90.00000
LATT -1
SFAC C  
C      1  0.4451460000000  0.4975950000000  0.5891800000000 1.0
C      1  0.5548540000000  0.5024050000000  0.4108200000000 1.0
C      1  0.4674830000000  0.5240880000000  0.5366060000000 1.0
C      1  0.5325170000000  0.4759120000000  0.4633940000000 1.0
C      1  0.4606040000000  0.4441300000000  0.4243600000000 1.0
C      1  0.5393960000000  0.5558700000000  0.5756400000000 1.0
C      1  0.5527650000000  0.4073530000000  0.4964110000000 1.0
C      1  0.4472350000000  0.5926470000000  0.5035890000000 1.0
C      1  0.4602410000000  0.4084450000000  0.5017890000000 1.0
C      1  0.5397590000000  0.5915550000000  0.4982110000000 1.0
C      1  0.5329210000000  0.4775010000000  0.5189550000000 1.0
C      1  0.4670790000000  0.5224990000000  0.4810450000000 1.0
C      1  0.5841890000000  0.4619760000000  0.5323190000000 1.0
C      1  0.4158110000000  0.5380240000000  0.4676810000000 1.0
C      1  0.5368710000000  0.5294780000000  0.5867740000000 1.0
C      1  0.4631290000000  0.4705220000000  0.4132260000000 1.0
C      1  0.4135670000000  0.5518760000000  0.4957770000000 1.0
C      1  0.5864330000000  0.4481240000000  0.5042230000000 1.0
C      1  0.5622310000000  0.4337380000000  0.4968820000000 1.0
C      1  0.4377690000000  0.5662620000000  0.5031180000000 1.0
C      1  0.5927600000000  0.4728010000000  0.4924080000000 1.0
C      1  0.4072400000000  0.5271990000000  0.5075920000000 1.0
C      1  0.5909750000000  0.5399740000000  0.5243050000000 1.0
C      1  0.4090250000000  0.4600260000000  0.4756950000000 1.0
C      1  0.4800170000000  0.4301350000000  0.5448840000000 1.0
C      1  0.5199830000000  0.5698650000000  0.4551160000000 1.0
C      1  0.4223080000000  0.4618460000000  0.4503050000000 1.0
C      1  0.5776920000000  0.5381540000000  0.5496950000000 1.0
C      1  0.5634380000000  0.5799670000000  0.5122760000000 1.0
C      1  0.4365620000000  0.4200330000000  0.4877240000000 1.0
C      1  0.4798720000000  0.4128310000000  0.5228230000000 1.0
C      1  0.5201280000000  0.5871690000000  0.4771770000000 1.0
C      1  0.5627050000000  0.5140570000000  0.5516960000000 1.0
C      1  0.4372950000000  0.4859430000000  0.4483040000000 1.0
C      1  0.4497150000000  0.4935410000000  0.4241050000000 1.0
C      1  0.5502850000000  0.5064590000000  0.5758950000000 1.0
C      1  0.5133970000000  0.5452190000000  0.5354000000000 1.0
C      1  0.4866030000000  0.4547810000000  0.4646000000000 1.0
C      1  0.5279170000000  0.5894320000000  0.5431260000000 1.0
C      1  0.4720830000000  0.4105680000000  0.4568740000000 1.0
C      1  0.4871560000000  0.5588690000000  0.5044500000000 1.0
C      1  0.5128440000000  0.4411310000000  0.4955500000000 1.0
C      1  0.4117630000000  0.5162720000000  0.5576980000000 1.0
C      1  0.5882370000000  0.4837280000000  0.4423020000000 1.0
C      1  0.5708330000000  0.4542170000000  0.5535230000000 1.0
C      1  0.4291670000000  0.5457830000000  0.4464770000000 1.0
C      1  0.4328710000000  0.5195980000000  0.5746780000000 1.0
C      1  0.5671290000000  0.4804020000000  0.4253220000000 1.0
C      1  0.5033740000000  0.4120410000000  0.5028980000000 1.0
C      1  0.4966260000000  0.5879590000000  0.4971020000000 1.0
C      1  0.5310570000000  0.4042560000000  0.5126620000000 1.0
C      1  0.4689430000000  0.5957440000000  0.4873380000000 1.0
C      1  0.4885320000000  0.5179000000000  0.5943310000000 1.0
C      1  0.5114680000000  0.4821000000000  0.4056690000000 1.0
C      1  0.4780190000000  0.5405940000000  0.5786590000000 1.0
C      1  0.5219810000000  0.4594060000000  0.4213410000000 1.0
C      1  0.5927110000000  0.5189950000000  0.4833280000000 1.0
C      1  0.4072890000000  0.4810050000000  0.5166720000000 1.0
C      1  0.4700780000000  0.4609780000000  0.4893280000000 1.0
C      1  0.5299220000000  0.5390220000000  0.5106720000000 1.0
C      1  0.4951760000000  0.4568410000000  0.5393590000000 1.0
C      1  0.5048240000000  0.5431590000000  0.4606410000000 1.0
C      1  0.5184680000000  0.5967600000000  0.5174210000000 1.0
C      1  0.4815320000000  0.4032400000000  0.4825790000000 1.0
C      1  0.4458460000000  0.5049970000000  0.4925580000000 1.0
C      1  0.5541540000000  0.4950030000000  0.5074420000000 1.0
C      1  0.5165930000000  0.5172540000000  0.5423820000000 1.0
C      1  0.4834070000000  0.4827460000000  0.4576180000000 1.0
C      1  0.5151670000000  0.5116560000000  0.5910570000000 1.0
C      1  0.4848330000000  0.4883440000000  0.4089430000000 1.0
C      1  0.5487570000000  0.5204260000000  0.4570100000000 1.0
C      1  0.4512430000000  0.4795740000000  0.5429900000000 1.0
C      1  0.4597660000000  0.4537860000000  0.5807130000000 1.0
C      1  0.5402340000000  0.5462140000000  0.4192870000000 1.0
C      1  0.5848130000000  0.4886150000000  0.5162310000000 1.0
C      1  0.4151870000000  0.5113850000000  0.4837690000000 1.0
C      1  0.5163010000000  0.4488390000000  0.4667820000000 1.0
C      1  0.4836990000000  0.5511610000000  0.5332180000000 1.0
C      1  0.4416490000000  0.4747080000000  0.5732830000000 1.0
C      1  0.5583510000000  0.5252920000000  0.4267170000000 1.0
C      1  0.5180690000000  0.5329380000000  0.4057870000000 1.0
C      1  0.4819310000000  0.4670620000000  0.5942130000000 1.0
C      1  0.4894270000000  0.5606930000000  0.5628190000000 1.0
C      1  0.5105730000000  0.4393070000000  0.4371810000000 1.0
C      1  0.5352270000000  0.4287860000000  0.5320670000000 1.0
C      1  0.4647730000000  0.5712140000000  0.4679330000000 1.0
C      1  0.4175500000000  0.4405930000000  0.4955000000000 1.0
C      1  0.5824500000000  0.5594070000000  0.5045000000000 1.0
C      1  0.5824070000000  0.5455570000000  0.4787350000000 1.0
C      1  0.4175930000000  0.4544430000000  0.5212650000000 1.0
C      1  0.4918320000000  0.5033230000000  0.5363640000000 1.0
C      1  0.5081680000000  0.4966770000000  0.4636360000000 1.0
C      1  0.5276750000000  0.4414450000000  0.5824800000000 1.0
C      1  0.4723250000000  0.5585550000000  0.4175200000000 1.0
C      1  0.5198990000000  0.5200370000000  0.4514150000000 1.0
C      1  0.4801010000000  0.4799630000000  0.5485850000000 1.0
C      1  0.4562690000000  0.5310270000000  0.5636160000000 1.0
C      1  0.5437310000000  0.4689730000000  0.4363840000000 1.0
C      1  0.5597210000000  0.5472000000000  0.4611730000000 1.0
C      1  0.4402790000000  0.4528000000000  0.5388270000000 1.0
C      1  0.5118110000000  0.4622420000000  0.5901320000000 1.0
C      1  0.4881890000000  0.5377580000000  0.4098680000000 1.0
C      1  0.5971800000000  0.5152650000000  0.5107640000000 1.0
C      1  0.4028200000000  0.4847350000000  0.4892360000000 1.0
C      1  0.4624700000000  0.5521500000000  0.4900630000000 1.0
C      1  0.5375300000000  0.4478500000000  0.5099370000000 1.0
C      1  0.5622400000000  0.5603990000000  0.5586810000000 1.0
C      1  0.4377600000000  0.4396010000000  0.4413190000000 1.0
C      1  0.4966530000000  0.5102240000000  0.4891280000000 1.0
C      1  0.5033470000000  0.4897760000000  0.5108720000000 1.0
C      1  0.5168270000000  0.5706980000000  0.5627610000000 1.0
C      1  0.4831730000000  0.4293020000000  0.4372390000000 1.0
C      1  0.4458660000000  0.5047730000000  0.5241000000000 1.0
C      1  0.5541340000000  0.4952270000000  0.4759000000000 1.0
C      1  0.4739090000000  0.5133760000000  0.4229090000000 1.0
C      1  0.5260910000000  0.4866240000000  0.5770910000000 1.0
C      1  0.4749670000000  0.5316400000000  0.4523280000000 1.0
C      1  0.5250330000000  0.4683600000000  0.5476720000000 1.0
C      1  0.4444510000000  0.4192420000000  0.4603010000000 1.0
C      1  0.5555490000000  0.5807580000000  0.5396990000000 1.0
C      1  0.5277330000000  0.5051510000000  0.4023590000000 1.0
C      1  0.4722670000000  0.4948490000000  0.5976410000000 1.0
C      1  0.4569270000000  0.4842550000000  0.4751770000000 1.0
C      1  0.5430730000000  0.5157450000000  0.5248230000000 1.0
C      1  0.5074570000000  0.5380380000000  0.4913420000000 1.0
C      1  0.4925430000000  0.4619620000000  0.5086580000000 1.0
C      1  0.4574840000000  0.5560100000000  0.4425150000000 1.0
C      1  0.5425160000000  0.4439900000000  0.5574850000000 1.0
C      1  0.4563450000000  0.4371020000000  0.5579410000000 1.0
C      1  0.5436550000000  0.5628980000000  0.4420590000000 1.0
C      1  0.5859020000000  0.4908230000000  0.4700650000000 1.0
C      1  0.4140980000000  0.5091770000000  0.5299350000000 1.0
END
