TITL C-32005-8417-8 208.549861905586 125000 -822.025952298434 0 0 118 (C1) n - 1
REM
REM in /rds/project/t2_vol4/rds-t2-cs072/BORA/CARBON/from-Arr/AIRSS/Generating-Clusters/GAP-ML-2020/Higher-Symm/SD-CG/HFTN-CG
REM
REM
REM
REM
REM
REM ./C.cell (b20cbc046b6831c77cfcea5457e17084)
REM AIRSS Version 0.9.1 bugfix July 2018 build 013d7b7c2542+ Fri, 06 Jul 2018 19:26:36 +0100
REM compiler GCC version 9.3.0
REM options -cpp -mtune=generic -march=x86-64 -g -O0
REM seed 397053364 -729576894 -383042657 1962157901 1801361 652225770 -1865438542 799428597 1438581108 -237811467 1278830845 -1927487172 -407261174 1687036661 -1876759855 2120955357 -1288216436 906415650 265234387 -691508378 -114803257 -998354732 -2145719408 -1196396569 1924309848 -1358764443 -372510445 1089939016 1237206732 -1407621245 603874335 -1882190388 -420279999
REM
CELL 1.54180   50.00000   50.00000   50.00000   90.00000   90.00000   90.00000
LATT -1
SFAC C  
C      1  0.4065970000000  0.4732070000000  0.4562720000000 1.0
C      1  0.4057610000000  0.4749820000000  0.5445670000000 1.0
C      1  0.4071030000000  0.5520560000000  0.5001960000000 1.0
C      1  0.5368910000000  0.4817980000000  0.5653350000000 1.0
C      1  0.5383830000000  0.5601030000000  0.4841530000000 1.0
C      1  0.5431080000000  0.4483750000000  0.4370840000000 1.0
C      1  0.5981150000000  0.5069340000000  0.5174210000000 1.0
C      1  0.5680450000000  0.5154900000000  0.4716660000000 1.0
C      1  0.5939860000000  0.4840270000000  0.4998290000000 1.0
C      1  0.4600450000000  0.4791240000000  0.5524940000000 1.0
C      1  0.4606790000000  0.5552230000000  0.4928460000000 1.0
C      1  0.4608810000000  0.4659930000000  0.4558060000000 1.0
C      1  0.4782070000000  0.5042620000000  0.5189030000000 1.0
C      1  0.4772640000000  0.5118660000000  0.4825430000000 1.0
C      1  0.4779630000000  0.4854950000000  0.4957880000000 1.0
C      1  0.4145630000000  0.5455740000000  0.4753970000000 1.0
C      1  0.4156420000000  0.4551980000000  0.4737370000000 1.0
C      1  0.4143230000000  0.4991530000000  0.5515820000000 1.0
C      1  0.5469910000000  0.5080760000000  0.5766640000000 1.0
C      1  0.5464400000000  0.5574130000000  0.4552980000000 1.0
C      1  0.5524270000000  0.4359220000000  0.4617260000000 1.0
C      1  0.5232020000000  0.4862120000000  0.4139500000000 1.0
C      1  0.5235330000000  0.4362290000000  0.5565790000000 1.0
C      1  0.5278510000000  0.5737270000000  0.5282960000000 1.0
C      1  0.5883730000000  0.5352060000000  0.4836860000000 1.0
C      1  0.5877100000000  0.4723470000000  0.4735630000000 1.0
C      1  0.5965810000000  0.4949160000000  0.5446290000000 1.0
C      1  0.5895210000000  0.5345500000000  0.5124070000000 1.0
C      1  0.5789860000000  0.4924240000000  0.4560140000000 1.0
C      1  0.5842540000000  0.4689200000000  0.5417570000000 1.0
C      1  0.5293740000000  0.4224990000000  0.4747120000000 1.0
C      1  0.5241550000000  0.5214880000000  0.5849470000000 1.0
C      1  0.5241120000000  0.5607700000000  0.4394720000000 1.0
C      1  0.4646200000000  0.4394320000000  0.5345050000000 1.0
C      1  0.4637100000000  0.5604340000000  0.5356090000000 1.0
C      1  0.4631110000000  0.5003850000000  0.4291190000000 1.0
C      1  0.5681110000000  0.5240670000000  0.5664520000000 1.0
C      1  0.5648250000000  0.5371320000000  0.4481610000000 1.0
C      1  0.5694490000000  0.4439520000000  0.5052220000000 1.0
C      1  0.4833060000000  0.4234130000000  0.4674020000000 1.0
C      1  0.4790480000000  0.5121340000000  0.5854110000000 1.0
C      1  0.4800430000000  0.5675920000000  0.4483550000000 1.0
C      1  0.5491390000000  0.4947960000000  0.5166810000000 1.0
C      1  0.5429200000000  0.5068840000000  0.4913390000000 1.0
C      1  0.5721270000000  0.4721120000000  0.5155070000000 1.0
C      1  0.4265600000000  0.5120780000000  0.5264170000000 1.0
C      1  0.4255850000000  0.5166780000000  0.4765470000000 1.0
C      1  0.4265750000000  0.4712050000000  0.4977040000000 1.0
C      1  0.5032630000000  0.5803100000000  0.5089160000000 1.0
C      1  0.5002310000000  0.4661240000000  0.4218710000000 1.0
C      1  0.4995070000000  0.4521820000000  0.5689610000000 1.0
C      1  0.4815220000000  0.6025800000000  0.5012450000000 1.0
C      1  0.4772650000000  0.4487950000000  0.4084930000000 1.0
C      1  0.4770510000000  0.4481430000000  0.5907030000000 1.0
C      1  0.5024590000000  0.5201290000000  0.4725320000000 1.0
C      1  0.5047130000000  0.4721990000000  0.4959770000000 1.0
C      1  0.5042780000000  0.5098430000000  0.5296090000000 1.0
C      1  0.4593180000000  0.4359400000000  0.4537260000000 1.0
C      1  0.4567300000000  0.4925220000000  0.5797410000000 1.0
C      1  0.4580320000000  0.5725140000000  0.4680120000000 1.0
C      1  0.5583200000000  0.4303740000000  0.5271620000000 1.0
C      1  0.5578180000000  0.5470150000000  0.5513820000000 1.0
C      1  0.5543190000000  0.5186230000000  0.4268320000000 1.0
C      1  0.4209180000000  0.4973910000000  0.4536610000000 1.0
C      1  0.4216120000000  0.4608760000000  0.5257810000000 1.0
C      1  0.4215090000000  0.5416290000000  0.5218430000000 1.0
C      1  0.5303350000000  0.4228450000000  0.5289980000000 1.0
C      1  0.5310710000000  0.5589500000000  0.5539820000000 1.0
C      1  0.5274570000000  0.5166760000000  0.4165860000000 1.0
C      1  0.5169440000000  0.4178930000000  0.5020700000000 1.0
C      1  0.5129020000000  0.5450190000000  0.5733110000000 1.0
C      1  0.5113450000000  0.5410220000000  0.4226330000000 1.0
C      1  0.5159130000000  0.4438040000000  0.4350480000000 1.0
C      1  0.5128420000000  0.4768190000000  0.5796360000000 1.0
C      1  0.5156070000000  0.5771570000000  0.4824120000000 1.0
C      1  0.5921510000000  0.5470630000000  0.4589380000000 1.0
C      1  0.5736270000000  0.4464220000000  0.4775780000000 1.0
C      1  0.5938230000000  0.5133390000000  0.5644740000000 1.0
C      1  0.4850280000000  0.4826410000000  0.4412790000000 1.0
C      1  0.4852590000000  0.4588190000000  0.5442540000000 1.0
C      1  0.4853340000000  0.5573450000000  0.5144460000000 1.0
C      1  0.4634680000000  0.6012870000000  0.4830940000000 1.0
C      1  0.4617350000000  0.4330310000000  0.4214060000000 1.0
C      1  0.4600430000000  0.4657940000000  0.5982210000000 1.0
C      1  0.4316950000000  0.5086230000000  0.5733450000000 1.0
C      1  0.4324410000000  0.5597950000000  0.4569850000000 1.0
C      1  0.4342910000000  0.4324980000000  0.4708450000000 1.0
C      1  0.4559800000000  0.5022870000000  0.5351440000000 1.0
C      1  0.4553580000000  0.5286090000000  0.4816320000000 1.0
C      1  0.4566790000000  0.4703280000000  0.4848260000000 1.0
C      1  0.5042810000000  0.5013490000000  0.5899600000000 1.0
C      1  0.5057940000000  0.5751630000000  0.4560500000000 1.0
C      1  0.5084980000000  0.4259550000000  0.4557260000000 1.0
C      1  0.5259260000000  0.4893920000000  0.5334000000000 1.0
C      1  0.5229100000000  0.5302670000000  0.4915950000000 1.0
C      1  0.5242530000000  0.4851480000000  0.4791740000000 1.0
C      1  0.5471160000000  0.4731720000000  0.4222040000000 1.0
C      1  0.5456380000000  0.4520610000000  0.5646320000000 1.0
C      1  0.5496710000000  0.5667030000000  0.5112400000000 1.0
C      1  0.4428710000000  0.4847700000000  0.4405980000000 1.0
C      1  0.4434860000000  0.4559170000000  0.5430010000000 1.0
C      1  0.4430400000000  0.5594930000000  0.5167780000000 1.0
C      1  0.5074380000000  0.5339200000000  0.5161820000000 1.0
C      1  0.5089000000000  0.4965340000000  0.4581550000000 1.0
C      1  0.5095610000000  0.4671410000000  0.5236770000000 1.0
C      1  0.4599920000000  0.5287340000000  0.4266620000000 1.0
C      1  0.4640630000000  0.4233710000000  0.5111190000000 1.0
C      1  0.4606300000000  0.5495580000000  0.5616750000000 1.0
C      1  0.4385310000000  0.5426480000000  0.4369050000000 1.0
C      1  0.4414920000000  0.4236500000000  0.4952060000000 1.0
C      1  0.4383820000000  0.5344730000000  0.5687280000000 1.0
C      1  0.4828680000000  0.5462210000000  0.4288010000000 1.0
C      1  0.4880010000000  0.4186720000000  0.4952890000000 1.0
C      1  0.4836610000000  0.5387320000000  0.5751520000000 1.0
C      1  0.5653790000000  0.4928650000000  0.4313720000000 1.0
C      1  0.5688090000000  0.4460460000000  0.5503610000000 1.0
C      1  0.5695010000000  0.5512910000000  0.5254580000000 1.0
C      1  0.4202960000000  0.4999530000000  0.5002710000000 1.0
END
