TITL C-32003-8308-7 -0.0709578809930053 125000 -529.358379541407 0 0 80 (C1) n - 1
REM
REM in /rds/project/t2_vol4/rds-t2-cs072/BORA/CARBON/from-Arr/AIRSS/Generating-Clusters/GAP-ML-2020/Higher-Symm/SD-CG/HFTN-CG
REM
REM
REM
REM
REM
REM ./C.cell (b20cbc046b6831c77cfcea5457e17084)
REM AIRSS Version 0.9.1 bugfix July 2018 build 013d7b7c2542+ Fri, 06 Jul 2018 19:26:36 +0100
REM compiler GCC version 9.3.0
REM options -cpp -mtune=generic -march=x86-64 -g -O0
REM seed 1554220360 -2109090469 390971942 1582646380 -1256136676 -254707513 -1224218516 1427904491 -1638287201 -1409893093 1189477417 856791177 695787605 -921992717 1880103169 -362081075 1187086135 974294547 -973427775 894308450 1058368672 382154076 1893094750 1438091100 328906260 -1191708980 -795143895 1157051866 -106395303 18139005 -206313250 -1454962408 -1637868428
REM
CELL 1.54180   50.00000   50.00000   50.00000   90.00000   90.00000   90.00000
LATT -1
SFAC C  
C      1  0.5687840000000  0.5515410000000  0.4877370000000 1.0
C      1  0.5673980000000  0.5376870000000  0.5411570000000 1.0
C      1  0.5683780000000  0.4856360000000  0.5563700000000 1.0
C      1  0.5683730000000  0.4452790000000  0.5179720000000 1.0
C      1  0.5720730000000  0.4603770000000  0.4634130000000 1.0
C      1  0.5674410000000  0.5084990000000  0.4316330000000 1.0
C      1  0.4354870000000  0.5681760000000  0.4772580000000 1.0
C      1  0.4357060000000  0.5361740000000  0.5394120000000 1.0
C      1  0.4350560000000  0.4835570000000  0.5536860000000 1.0
C      1  0.4345170000000  0.4442890000000  0.5141360000000 1.0
C      1  0.4380680000000  0.4614560000000  0.4573790000000 1.0
C      1  0.4268840000000  0.5014800000000  0.4477670000000 1.0
C      1  0.4413660000000  0.5594100000000  0.5254420000000 1.0
C      1  0.4430950000000  0.4996410000000  0.5723800000000 1.0
C      1  0.4439360000000  0.4371790000000  0.5370320000000 1.0
C      1  0.4465980000000  0.4364240000000  0.4603780000000 1.0
C      1  0.4399850000000  0.4813660000000  0.4356120000000 1.0
C      1  0.4487260000000  0.5742640000000  0.4557940000000 1.0
C      1  0.5582990000000  0.5616260000000  0.5374710000000 1.0
C      1  0.5580580000000  0.5019390000000  0.5737140000000 1.0
C      1  0.5584970000000  0.4366850000000  0.5401280000000 1.0
C      1  0.5615090000000  0.4375240000000  0.4690780000000 1.0
C      1  0.5525710000000  0.4948820000000  0.4153280000000 1.0
C      1  0.5619490000000  0.5494070000000  0.4607660000000 1.0
C      1  0.4792440000000  0.4759900000000  0.4599160000000 1.0
C      1  0.4714690000000  0.5245530000000  0.4598840000000 1.0
C      1  0.4845980000000  0.5564100000000  0.5043290000000 1.0
C      1  0.4755250000000  0.5233890000000  0.5430910000000 1.0
C      1  0.4773740000000  0.4729060000000  0.5436440000000 1.0
C      1  0.4780080000000  0.4493730000000  0.4998180000000 1.0
C      1  0.5278930000000  0.4777710000000  0.4594860000000 1.0
C      1  0.5160570000000  0.5310930000000  0.4533090000000 1.0
C      1  0.5281230000000  0.5474410000000  0.5012590000000 1.0
C      1  0.5238690000000  0.5231490000000  0.5450950000000 1.0
C      1  0.5255320000000  0.4738220000000  0.5445920000000 1.0
C      1  0.5267170000000  0.4504390000000  0.5011370000000 1.0
C      1  0.4911190000000  0.5671090000000  0.4785250000000 1.0
C      1  0.4856970000000  0.5525260000000  0.5446420000000 1.0
C      1  0.4867580000000  0.4866590000000  0.5693980000000 1.0
C      1  0.4879410000000  0.4336520000000  0.5237130000000 1.0
C      1  0.4902700000000  0.4478940000000  0.4563460000000 1.0
C      1  0.4805900000000  0.5113630000000  0.4330850000000 1.0
C      1  0.5192780000000  0.5642060000000  0.4768450000000 1.0
C      1  0.5140470000000  0.5519790000000  0.5458790000000 1.0
C      1  0.5145650000000  0.4868610000000  0.5700760000000 1.0
C      1  0.5157710000000  0.4340270000000  0.5245260000000 1.0
C      1  0.5178850000000  0.4485180000000  0.4575160000000 1.0
C      1  0.5089460000000  0.5135260000000  0.4315470000000 1.0
C      1  0.5707200000000  0.5217860000000  0.4548960000000 1.0
C      1  0.5532710000000  0.5273970000000  0.4992660000000 1.0
C      1  0.5497100000000  0.5167240000000  0.5275260000000 1.0
C      1  0.5506570000000  0.4867480000000  0.5314030000000 1.0
C      1  0.5517260000000  0.4684050000000  0.5069590000000 1.0
C      1  0.5554480000000  0.4805830000000  0.4785070000000 1.0
C      1  0.4458470000000  0.5090550000000  0.4721190000000 1.0
C      1  0.4320650000000  0.5517600000000  0.4985870000000 1.0
C      1  0.4505380000000  0.5149120000000  0.5233740000000 1.0
C      1  0.4527850000000  0.4851530000000  0.5286840000000 1.0
C      1  0.4528060000000  0.4667090000000  0.5047590000000 1.0
C      1  0.4533400000000  0.4792130000000  0.4777760000000 1.0
C      1  0.4695390000000  0.5088320000000  0.5696640000000 1.0
C      1  0.4708080000000  0.4429410000000  0.5436870000000 1.0
C      1  0.4720750000000  0.4347140000000  0.4725980000000 1.0
C      1  0.4685130000000  0.4865390000000  0.4339690000000 1.0
C      1  0.4717490000000  0.5570730000000  0.4598240000000 1.0
C      1  0.4692740000000  0.5663990000000  0.5262770000000 1.0
C      1  0.5310060000000  0.5093150000000  0.5717490000000 1.0
C      1  0.5316830000000  0.4438860000000  0.5451250000000 1.0
C      1  0.5342480000000  0.4355730000000  0.4758650000000 1.0
C      1  0.5283260000000  0.4925540000000  0.4316460000000 1.0
C      1  0.5340010000000  0.5538180000000  0.4553470000000 1.0
C      1  0.5321660000000  0.5634330000000  0.5274980000000 1.0
C      1  0.5001900000000  0.5119440000000  0.5279430000000 1.0
C      1  0.4988190000000  0.5182140000000  0.4764130000000 1.0
C      1  0.5020910000000  0.5303730000000  0.5036130000000 1.0
C      1  0.5030710000000  0.4885800000000  0.4754940000000 1.0
C      1  0.5016120000000  0.4819820000000  0.5261600000000 1.0
C      1  0.5023040000000  0.4702060000000  0.4992100000000 1.0
C      1  0.5630940000000  0.5083300000000  0.4788750000000 1.0
C      1  0.4398710000000  0.5238530000000  0.4969040000000 1.0
END
