TITL C-32029-8281-6 -0.0479802472427994 125000 -534.266965243348 0 0 78 (C1) n - 1
REM
REM in /rds/project/t2_vol4/rds-t2-cs072/BORA/CARBON/from-Arr/AIRSS/Generating-Clusters/GAP-ML-2020/Higher-Symm/SD-CG/HFTN-CG
REM
REM
REM
REM
REM
REM ./C.cell (b20cbc046b6831c77cfcea5457e17084)
REM AIRSS Version 0.9.1 bugfix July 2018 build 013d7b7c2542+ Fri, 06 Jul 2018 19:26:36 +0100
REM compiler GCC version 9.3.0
REM options -cpp -mtune=generic -march=x86-64 -g -O0
REM seed -2123630253 391014753 -714324383 2076336020 -856724993 702790983 -808519781 907364028 1651779277 719451127 1975297003 1427721514 1111702506 -932119252 387119330 -1729696040 -1892369664 -247681035 1861206049 -427686302 1486107287 -1681973591 1470096420 1961863800 263923160 -614207512 -1472904764 430567233 1757691839 -1893577327 1236822508 -86523318 -2015674299
REM
CELL 1.54180   50.00000   50.00000   50.00000   90.00000   90.00000   90.00000
LATT -1
SFAC C  
C      1  0.5440750000000  0.5108540000000  0.5443020000000 1.0
C      1  0.5405270000000  0.4530850000000  0.4817010000000 1.0
C      1  0.5365720000000  0.5371450000000  0.4646750000000 1.0
C      1  0.5218250000000  0.5617970000000  0.5332280000000 1.0
C      1  0.5210980000000  0.4378120000000  0.5342530000000 1.0
C      1  0.5219630000000  0.4997120000000  0.4263050000000 1.0
C      1  0.5378570000000  0.4877220000000  0.4477210000000 1.0
C      1  0.5369320000000  0.5512300000000  0.5093420000000 1.0
C      1  0.5398110000000  0.4625300000000  0.5337510000000 1.0
C      1  0.5658330000000  0.4474350000000  0.5333290000000 1.0
C      1  0.5654440000000  0.4977960000000  0.4508510000000 1.0
C      1  0.5649820000000  0.5602180000000  0.5169700000000 1.0
C      1  0.4963050000000  0.4221230000000  0.4979570000000 1.0
C      1  0.4958410000000  0.5379510000000  0.4332600000000 1.0
C      1  0.5020090000000  0.5375790000000  0.5679850000000 1.0
C      1  0.5226330000000  0.4227870000000  0.5095850000000 1.0
C      1  0.5227110000000  0.5292220000000  0.4292270000000 1.0
C      1  0.5270140000000  0.5463200000000  0.5571580000000 1.0
C      1  0.4855510000000  0.4644650000000  0.5535480000000 1.0
C      1  0.4831300000000  0.4712990000000  0.4399860000000 1.0
C      1  0.4812480000000  0.5649910000000  0.5057260000000 1.0
C      1  0.4991350000000  0.5070050000000  0.4705950000000 1.0
C      1  0.5034690000000  0.5183680000000  0.5182930000000 1.0
C      1  0.5024270000000  0.4763720000000  0.5042530000000 1.0
C      1  0.4585690000000  0.5108470000000  0.4400880000000 1.0
C      1  0.4603530000000  0.5363470000000  0.5392480000000 1.0
C      1  0.4599320000000  0.4535430000000  0.5133040000000 1.0
C      1  0.5668370000000  0.4311180000000  0.5138220000000 1.0
C      1  0.5695450000000  0.5206510000000  0.4369080000000 1.0
C      1  0.5687820000000  0.5506670000000  0.5405130000000 1.0
C      1  0.4951200000000  0.5099260000000  0.5657970000000 1.0
C      1  0.4908820000000  0.4386860000000  0.4753990000000 1.0
C      1  0.4817660000000  0.5488640000000  0.4570170000000 1.0
C      1  0.5281490000000  0.5086450000000  0.4708130000000 1.0
C      1  0.5344070000000  0.5187600000000  0.5169750000000 1.0
C      1  0.5321590000000  0.4729730000000  0.5030910000000 1.0
C      1  0.4604520000000  0.4701270000000  0.5396850000000 1.0
C      1  0.4573210000000  0.4833040000000  0.4497970000000 1.0
C      1  0.4566540000000  0.5523380000000  0.5133440000000 1.0
C      1  0.4941650000000  0.4392260000000  0.5423440000000 1.0
C      1  0.4955830000000  0.4913850000000  0.4235310000000 1.0
C      1  0.4945960000000  0.5676630000000  0.5313730000000 1.0
C      1  0.4366390000000  0.5179470000000  0.5397570000000 1.0
C      1  0.4369710000000  0.4637460000000  0.4974530000000 1.0
C      1  0.4343970000000  0.5307780000000  0.4741430000000 1.0
C      1  0.5236560000000  0.5545440000000  0.4828670000000 1.0
C      1  0.5324730000000  0.4851140000000  0.5513500000000 1.0
C      1  0.5291790000000  0.4612950000000  0.4569350000000 1.0
C      1  0.4558090000000  0.5339920000000  0.4566920000000 1.0
C      1  0.4843450000000  0.5172010000000  0.5402730000000 1.0
C      1  0.4820790000000  0.4586420000000  0.4941030000000 1.0
C      1  0.4335010000000  0.5430420000000  0.5003880000000 1.0
C      1  0.4383600000000  0.4882550000000  0.5388720000000 1.0
C      1  0.4383280000000  0.4797880000000  0.4709740000000 1.0
C      1  0.5484090000000  0.5383360000000  0.4390740000000 1.0
C      1  0.5530650000000  0.5342530000000  0.5572950000000 1.0
C      1  0.5467380000000  0.4284780000000  0.4946830000000 1.0
C      1  0.5056930000000  0.4837900000000  0.5626010000000 1.0
C      1  0.5016330000000  0.4532220000000  0.4528530000000 1.0
C      1  0.4954640000000  0.5602470000000  0.4806150000000 1.0
C      1  0.4205110000000  0.5253440000000  0.5180970000000 1.0
C      1  0.4232950000000  0.4798140000000  0.5158250000000 1.0
C      1  0.4236130000000  0.5040630000000  0.4767640000000 1.0
C      1  0.4818690000000  0.5521280000000  0.5523780000000 1.0
C      1  0.4784090000000  0.4307290000000  0.5197430000000 1.0
C      1  0.4807430000000  0.5151750000000  0.4240670000000 1.0
C      1  0.5974020000000  0.4999130000000  0.4865170000000 1.0
C      1  0.4910550000000  0.5023720000000  0.4978210000000 1.0
C      1  0.4077740000000  0.5022790000000  0.5031260000000 1.0
C      1  0.6429620000000  0.5007140000000  0.5094260000000 1.0
C      1  0.6187780000000  0.5014570000000  0.4998470000000 1.0
C      1  0.3795190000000  0.5021690000000  0.5033920000000 1.0
C      1  0.6664780000000  0.4994300000000  0.5188670000000 1.0
C      1  0.3329840000000  0.4909330000000  0.4995800000000 1.0
C      1  0.4620790000000  0.5041220000000  0.5015900000000 1.0
C      1  0.3545040000000  0.5044320000000  0.5062860000000 1.0
C      1  0.5715750000000  0.4991010000000  0.4789930000000 1.0
C      1  0.5435130000000  0.4998430000000  0.4950170000000 1.0
END
