TITL C-32008-8336-2 0.0565477900438917 125000 -608.564368316673 0 0 91 (C1) n - 1
REM
REM in /rds/project/t2_vol4/rds-t2-cs072/BORA/CARBON/from-Arr/AIRSS/Generating-Clusters/GAP-ML-2020/Higher-Symm/SD-CG/HFTN-CG
REM
REM
REM
REM
REM
REM ./C.cell (b20cbc046b6831c77cfcea5457e17084)
REM AIRSS Version 0.9.1 bugfix July 2018 build 013d7b7c2542+ Fri, 06 Jul 2018 19:26:36 +0100
REM compiler GCC version 9.3.0
REM options -cpp -mtune=generic -march=x86-64 -g -O0
REM seed 524340900 -1973852850 -876154679 62439900 699305482 -1054542236 -1479181699 1027289053 85991744 -1980484812 -1741650304 135332893 -746335008 1128074648 855932823 -696131992 -1607669837 -1759828404 1384528898 -658822173 -587909705 -1348285605 -1370468953 1710015597 1249109154 -280934496 1148525509 2133630557 1479012700 -1806392561 1687724292 -2016959489 70948242
REM
CELL 1.54180   50.00000   50.00000   50.00000   90.00000   90.00000   90.00000
LATT -1
SFAC C  
C      1  0.4744810000000  0.4371170000000  0.5054900000000 1.0
C      1  0.5084540000000  0.4695360000000  0.3983550000000 1.0
C      1  0.5326090000000  0.5153820000000  0.4870440000000 1.0
C      1  0.5414090000000  0.5253540000000  0.4403600000000 1.0
C      1  0.4493400000000  0.4989580000000  0.4641580000000 1.0
C      1  0.5010550000000  0.4085760000000  0.4693600000000 1.0
C      1  0.5217530000000  0.4992700000000  0.4381000000000 1.0
C      1  0.4754170000000  0.4607410000000  0.4560180000000 1.0
C      1  0.4993270000000  0.5482670000000  0.5110650000000 1.0
C      1  0.4887210000000  0.4149130000000  0.4940860000000 1.0
C      1  0.5410470000000  0.4499560000000  0.5495350000000 1.0
C      1  0.4518840000000  0.4871620000000  0.5673490000000 1.0
C      1  0.4300420000000  0.5215910000000  0.5149650000000 1.0
C      1  0.4366210000000  0.5448470000000  0.4974480000000 1.0
C      1  0.4316600000000  0.4529340000000  0.4584520000000 1.0
C      1  0.5725350000000  0.4987790000000  0.5430050000000 1.0
C      1  0.4894700000000  0.5285880000000  0.4929730000000 1.0
C      1  0.5394800000000  0.4775600000000  0.5498480000000 1.0
C      1  0.4369720000000  0.4494020000000  0.5341710000000 1.0
C      1  0.4349600000000  0.4921530000000  0.5121210000000 1.0
C      1  0.5305930000000  0.5486490000000  0.4329840000000 1.0
C      1  0.4743420000000  0.4628650000000  0.4857590000000 1.0
C      1  0.5151950000000  0.4056010000000  0.4937050000000 1.0
C      1  0.5488240000000  0.5468830000000  0.4821190000000 1.0
C      1  0.5149450000000  0.4640050000000  0.5109470000000 1.0
C      1  0.4850730000000  0.5016690000000  0.5016990000000 1.0
C      1  0.4478730000000  0.5587940000000  0.5198410000000 1.0
C      1  0.4764980000000  0.4720130000000  0.5395950000000 1.0
C      1  0.5325870000000  0.5135340000000  0.5169480000000 1.0
C      1  0.5155960000000  0.5722860000000  0.5008090000000 1.0
C      1  0.4606500000000  0.5127050000000  0.5744230000000 1.0
C      1  0.4252730000000  0.4801930000000  0.4646120000000 1.0
C      1  0.5023140000000  0.4710470000000  0.5750200000000 1.0
C      1  0.4532200000000  0.4485400000000  0.4399740000000 1.0
C      1  0.5441380000000  0.4633740000000  0.4729090000000 1.0
C      1  0.5157020000000  0.5650050000000  0.4497550000000 1.0
C      1  0.5700160000000  0.5440770000000  0.5276780000000 1.0
C      1  0.4916660000000  0.5223340000000  0.5462580000000 1.0
C      1  0.5071560000000  0.5221090000000  0.4733720000000 1.0
C      1  0.5301950000000  0.5430500000000  0.5595270000000 1.0
C      1  0.4942820000000  0.4504330000000  0.5296380000000 1.0
C      1  0.5761360000000  0.5066500000000  0.4705590000000 1.0
C      1  0.4468700000000  0.5269570000000  0.4529930000000 1.0
C      1  0.5108830000000  0.4993120000000  0.5819260000000 1.0
C      1  0.4705900000000  0.5648620000000  0.4694590000000 1.0
C      1  0.5131710000000  0.4501420000000  0.5559230000000 1.0
C      1  0.4294540000000  0.4487560000000  0.4882380000000 1.0
C      1  0.5283330000000  0.5672120000000  0.4749620000000 1.0
C      1  0.4804010000000  0.5341000000000  0.4360200000000 1.0
C      1  0.5538460000000  0.4984420000000  0.5634180000000 1.0
C      1  0.5153090000000  0.5827260000000  0.5411920000000 1.0
C      1  0.5591990000000  0.5593980000000  0.5064770000000 1.0
C      1  0.4892470000000  0.5154300000000  0.5768120000000 1.0
C      1  0.5155060000000  0.5331980000000  0.5318900000000 1.0
C      1  0.4588900000000  0.4895640000000  0.4927040000000 1.0
C      1  0.5521200000000  0.5567060000000  0.5456530000000 1.0
C      1  0.5397560000000  0.5743210000000  0.5235130000000 1.0
C      1  0.5544970000000  0.4908850000000  0.4790550000000 1.0
C      1  0.5077730000000  0.5633650000000  0.5604160000000 1.0
C      1  0.4874400000000  0.5599290000000  0.4487650000000 1.0
C      1  0.5580000000000  0.4556050000000  0.5259510000000 1.0
C      1  0.5409920000000  0.4341600000000  0.4666050000000 1.0
C      1  0.5210020000000  0.4876130000000  0.4117690000000 1.0
C      1  0.4551990000000  0.5307120000000  0.4268360000000 1.0
C      1  0.5641700000000  0.5163540000000  0.5217220000000 1.0
C      1  0.4654450000000  0.4458220000000  0.4156250000000 1.0
C      1  0.5402450000000  0.4499500000000  0.5039150000000 1.0
C      1  0.4755100000000  0.5652290000000  0.5259680000000 1.0
C      1  0.5210680000000  0.4883040000000  0.5276030000000 1.0
C      1  0.4962100000000  0.5863710000000  0.5199530000000 1.0
C      1  0.5023170000000  0.4529050000000  0.4451330000000 1.0
C      1  0.4794790000000  0.5526570000000  0.5525130000000 1.0
C      1  0.5749420000000  0.4979420000000  0.5002360000000 1.0
C      1  0.4385700000000  0.5380130000000  0.5378250000000 1.0
C      1  0.4470730000000  0.5496630000000  0.4718880000000 1.0
C      1  0.4915390000000  0.4970560000000  0.5305000000000 1.0
C      1  0.4445810000000  0.4380050000000  0.5104160000000 1.0
C      1  0.5385360000000  0.4228880000000  0.4925000000000 1.0
C      1  0.4749310000000  0.4705470000000  0.5689960000000 1.0
C      1  0.4546590000000  0.5377590000000  0.5610010000000 1.0
C      1  0.5616850000000  0.5297650000000  0.4609740000000 1.0
C      1  0.4733340000000  0.4901210000000  0.4497550000000 1.0
C      1  0.4950760000000  0.5103120000000  0.4480230000000 1.0
C      1  0.4442090000000  0.4766830000000  0.5378450000000 1.0
C      1  0.5010170000000  0.4766640000000  0.4879280000000 1.0
C      1  0.4187360000000  0.4753630000000  0.4925710000000 1.0
C      1  0.4921660000000  0.4539850000000  0.4148770000000 1.0
C      1  0.5768000000000  0.4780070000000  0.5225590000000 1.0
C      1  0.5195250000000  0.4742980000000  0.4599710000000 1.0
C      1  0.5344040000000  0.5162420000000  0.5733980000000 1.0
C      1  0.5157790000000  0.4288000000000  0.4536890000000 1.0
END
