TITL C-32031-8284-7 27.6004655411246 125000 -1212.28727846599 0 0 175 (C1) n - 1
REM
REM in /rds/project/t2_vol4/rds-t2-cs072/BORA/CARBON/from-Arr/AIRSS/Generating-Clusters/GAP-ML-2020/Higher-Symm/SD-CG/HFTN-CG
REM
REM
REM
REM
REM
REM ./C.cell (b20cbc046b6831c77cfcea5457e17084)
REM AIRSS Version 0.9.1 bugfix July 2018 build 013d7b7c2542+ Fri, 06 Jul 2018 19:26:36 +0100
REM compiler GCC version 9.3.0
REM options -cpp -mtune=generic -march=x86-64 -g -O0
REM seed -1759196449 1135549036 1167389421 1117042786 -333446499 1250488069 -1221853177 343404894 444071210 216494378 -712736685 -1644225622 1820016331 1562863899 1369610493 -1270760584 -1540117600 963124776 -2043392753 -712130167 1152149599 1619003635 -1598016338 -1470899058 732178070 419005699 571808216 -1605732458 -1490093428 2097624631 -1023430662 1646136014 -842579663
REM
CELL 1.54180   50.00000   50.00000   50.00000   90.00000   90.00000   90.00000
LATT -1
SFAC C  
C      1  0.4475240000000  0.5413960000000  0.5088730000000 1.0
C      1  0.4465390000000  0.4727730000000  0.5314350000000 1.0
C      1  0.4462430000000  0.4867170000000  0.4608010000000 1.0
C      1  0.4761020000000  0.5287770000000  0.4558030000000 1.0
C      1  0.4762560000000  0.5240770000000  0.5476790000000 1.0
C      1  0.4754450000000  0.4479150000000  0.4974420000000 1.0
C      1  0.4652550000000  0.4673050000000  0.5532800000000 1.0
C      1  0.4651500000000  0.4702940000000  0.4454690000000 1.0
C      1  0.4658170000000  0.5630110000000  0.5024010000000 1.0
C      1  0.4954830000000  0.5174480000000  0.4743590000000 1.0
C      1  0.4955760000000  0.5138250000000  0.5283940000000 1.0
C      1  0.4956050000000  0.4687720000000  0.4980970000000 1.0
C      1  0.5256950000000  0.5719980000000  0.4201090000000 1.0
C      1  0.5258980000000  0.5334870000000  0.6028470000000 1.0
C      1  0.5257190000000  0.3946040000000  0.4781000000000 1.0
C      1  0.5327270000000  0.5465200000000  0.5291090000000 1.0
C      1  0.5323920000000  0.4516690000000  0.5262650000000 1.0
C      1  0.5324350000000  0.5015870000000  0.4454380000000 1.0
C      1  0.5042530000000  0.4035610000000  0.5493550000000 1.0
C      1  0.5042000000000  0.5057260000000  0.3919850000000 1.0
C      1  0.5046190000000  0.5910110000000  0.5594840000000 1.0
C      1  0.5343060000000  0.5855460000000  0.5622040000000 1.0
C      1  0.5339570000000  0.4038020000000  0.5433880000000 1.0
C      1  0.5339230000000  0.5107980000000  0.3953770000000 1.0
C      1  0.5931060000000  0.4694900000000  0.5229340000000 1.0
C      1  0.5930790000000  0.4956170000000  0.4625500000000 1.0
C      1  0.5931990000000  0.5348010000000  0.5153810000000 1.0
C      1  0.4790940000000  0.6020370000000  0.5117810000000 1.0
C      1  0.4787340000000  0.4394070000000  0.5827310000000 1.0
C      1  0.4788080000000  0.4589700000000  0.4064750000000 1.0
C      1  0.3976970000000  0.4786880000000  0.4596860000000 1.0
C      1  0.3993740000000  0.5442570000000  0.5037030000000 1.0
C      1  0.3980170000000  0.4733260000000  0.5369410000000 1.0
C      1  0.5218090000000  0.5283030000000  0.4566080000000 1.0
C      1  0.5219900000000  0.5236390000000  0.5466550000000 1.0
C      1  0.5216230000000  0.4480350000000  0.4975710000000 1.0
C      1  0.5283150000000  0.6041800000000  0.5201250000000 1.0
C      1  0.5279500000000  0.4308960000000  0.5805480000000 1.0
C      1  0.5279530000000  0.4650500000000  0.4002370000000 1.0
C      1  0.6100410000000  0.5144280000000  0.5074350000000 1.0
C      1  0.6099950000000  0.4864910000000  0.5092250000000 1.0
C      1  0.6099890000000  0.4989080000000  0.4841250000000 1.0
C      1  0.5460370000000  0.5414830000000  0.5007380000000 1.0
C      1  0.5458540000000  0.4788130000000  0.5358970000000 1.0
C      1  0.5458450000000  0.4796980000000  0.4641660000000 1.0
C      1  0.5084980000000  0.5375660000000  0.4317560000000 1.0
C      1  0.5087880000000  0.5405620000000  0.5671820000000 1.0
C      1  0.5083090000000  0.4219570000000  0.5020370000000 1.0
C      1  0.5761740000000  0.4704410000000  0.4615710000000 1.0
C      1  0.5763190000000  0.5482740000000  0.4940370000000 1.0
C      1  0.5762220000000  0.4812260000000  0.5452440000000 1.0
C      1  0.4948280000000  0.4703700000000  0.5474220000000 1.0
C      1  0.4947350000000  0.4740130000000  0.4510210000000 1.0
C      1  0.4950970000000  0.5559000000000  0.5025640000000 1.0
C      1  0.4283930000000  0.5842950000000  0.5115300000000 1.0
C      1  0.4279100000000  0.4483520000000  0.5675310000000 1.0
C      1  0.4279770000000  0.4674120000000  0.4219840000000 1.0
C      1  0.4779580000000  0.5979940000000  0.4818170000000 1.0
C      1  0.4776710000000  0.4672190000000  0.5941700000000 1.0
C      1  0.4778910000000  0.4350840000000  0.4247650000000 1.0
C      1  0.4747970000000  0.5502350000000  0.4062190000000 1.0
C      1  0.4750720000000  0.5563980000000  0.5909470000000 1.0
C      1  0.4749030000000  0.3933320000000  0.5038580000000 1.0
C      1  0.4083140000000  0.4506590000000  0.4598570000000 1.0
C      1  0.4081580000000  0.5587470000000  0.4790230000000 1.0
C      1  0.4080890000000  0.4893380000000  0.5612300000000 1.0
C      1  0.4321550000000  0.4224860000000  0.4980960000000 1.0
C      1  0.4319800000000  0.5406110000000  0.4344250000000 1.0
C      1  0.4321540000000  0.5369310000000  0.5686350000000 1.0
C      1  0.5660730000000  0.5637340000000  0.4434900000000 1.0
C      1  0.5661530000000  0.5172640000000  0.5839230000000 1.0
C      1  0.5660120000000  0.4189980000000  0.4734950000000 1.0
C      1  0.5011810000000  0.4878000000000  0.4764390000000 1.0
C      1  0.5011140000000  0.5269200000000  0.5016470000000 1.0
C      1  0.5011520000000  0.4855010000000  0.5227960000000 1.0
C      1  0.5850570000000  0.5355370000000  0.5431590000000 1.0
C      1  0.5849280000000  0.4450890000000  0.5097000000000 1.0
C      1  0.5849390000000  0.5192930000000  0.4480010000000 1.0
C      1  0.4559390000000  0.5871280000000  0.5224880000000 1.0
C      1  0.4556440000000  0.4377840000000  0.5643270000000 1.0
C      1  0.4556020000000  0.4756390000000  0.4143520000000 1.0
C      1  0.5566280000000  0.5920740000000  0.4831530000000 1.0
C      1  0.5564220000000  0.4687810000000  0.5886110000000 1.0
C      1  0.5564030000000  0.4391260000000  0.4291060000000 1.0
C      1  0.5020890000000  0.4775220000000  0.4017640000000 1.0
C      1  0.5024520000000  0.5967450000000  0.5302030000000 1.0
C      1  0.5020790000000  0.4259980000000  0.5689800000000 1.0
C      1  0.4274760000000  0.5797710000000  0.4843790000000 1.0
C      1  0.4270830000000  0.4743190000000  0.5769730000000 1.0
C      1  0.4274880000000  0.4457160000000  0.4391660000000 1.0
C      1  0.4768910000000  0.5205290000000  0.4022280000000 1.0
C      1  0.4773070000000  0.5747800000000  0.5672570000000 1.0
C      1  0.4770250000000  0.4047660000000  0.5315210000000 1.0
C      1  0.5734020000000  0.5128610000000  0.4222450000000 1.0
C      1  0.5736420000000  0.5610990000000  0.5504850000000 1.0
C      1  0.5734300000000  0.4260110000000  0.5281740000000 1.0
C      1  0.4964440000000  0.5831490000000  0.4611510000000 1.0
C      1  0.4962470000000  0.4925140000000  0.5918330000000 1.0
C      1  0.4963840000000  0.4244650000000  0.4479940000000 1.0
C      1  0.5699700000000  0.5815670000000  0.5303330000000 1.0
C      1  0.5697250000000  0.4332080000000  0.5559690000000 1.0
C      1  0.5696830000000  0.4851980000000  0.4145960000000 1.0
C      1  0.5471180000000  0.4854520000000  0.3970840000000 1.0
C      1  0.5474890000000  0.5966880000000  0.5393580000000 1.0
C      1  0.5471280000000  0.4179550000000  0.5644890000000 1.0
C      1  0.4529360000000  0.4178940000000  0.5430850000000 1.0
C      1  0.4525870000000  0.5039690000000  0.4078900000000 1.0
C      1  0.4530720000000  0.5783750000000  0.5502570000000 1.0
C      1  0.5314650000000  0.5175040000000  0.5008560000000 1.0
C      1  0.5315710000000  0.4908410000000  0.5149000000000 1.0
C      1  0.5315960000000  0.4919260000000  0.4850730000000 1.0
C      1  0.4573320000000  0.5771740000000  0.4765940000000 1.0
C      1  0.4570640000000  0.4822550000000  0.5786910000000 1.0
C      1  0.4572340000000  0.4407740000000  0.4454430000000 1.0
C      1  0.4379540000000  0.5252910000000  0.4849820000000 1.0
C      1  0.4365430000000  0.5016830000000  0.5294800000000 1.0
C      1  0.4354940000000  0.4752210000000  0.4868110000000 1.0
C      1  0.5307640000000  0.4579300000000  0.5860520000000 1.0
C      1  0.5307780000000  0.4468100000000  0.4209400000000 1.0
C      1  0.5310460000000  0.5953500000000  0.4939450000000 1.0
C      1  0.5026700000000  0.5475680000000  0.5940500000000 1.0
C      1  0.5024910000000  0.3951860000000  0.4947100000000 1.0
C      1  0.5024150000000  0.5573630000000  0.4123090000000 1.0
C      1  0.5323280000000  0.4530340000000  0.4699100000000 1.0
C      1  0.5324910000000  0.5497490000000  0.4748010000000 1.0
C      1  0.5324260000000  0.4971300000000  0.5561110000000 1.0
C      1  0.4564400000000  0.5351130000000  0.5862600000000 1.0
C      1  0.4564420000000  0.4081870000000  0.4877200000000 1.0
C      1  0.4563270000000  0.5567670000000  0.4271130000000 1.0
C      1  0.5798710000000  0.5446720000000  0.4612370000000 1.0
C      1  0.5798670000000  0.5113880000000  0.5585050000000 1.0
C      1  0.5797730000000  0.4438940000000  0.4811000000000 1.0
C      1  0.5515200000000  0.4954100000000  0.5973530000000 1.0
C      1  0.5514610000000  0.4182860000000  0.4478460000000 1.0
C      1  0.5515770000000  0.5863040000000  0.4557340000000 1.0
C      1  0.4561070000000  0.4674350000000  0.5050230000000 1.0
C      1  0.4573390000000  0.5122090000000  0.4690330000000 1.0
C      1  0.4572670000000  0.5211860000000  0.5269730000000 1.0
C      1  0.3958600000000  0.5130220000000  0.5012050000000 1.0
C      1  0.3869500000000  0.4860180000000  0.5133990000000 1.0
C      1  0.3868400000000  0.4900060000000  0.4845320000000 1.0
C      1  0.5733350000000  0.4598990000000  0.5668880000000 1.0
C      1  0.5732930000000  0.4623830000000  0.4322710000000 1.0
C      1  0.5735100000000  0.5776690000000  0.5017170000000 1.0
C      1  0.5514570000000  0.5418440000000  0.5896150000000 1.0
C      1  0.5512090000000  0.4018610000000  0.4919520000000 1.0
C      1  0.5512230000000  0.5563590000000  0.4194240000000 1.0
C      1  0.4712440000000  0.4278610000000  0.4694380000000 1.0
C      1  0.4713050000000  0.5627860000000  0.4532800000000 1.0
C      1  0.4712810000000  0.5094730000000  0.5782490000000 1.0
C      1  0.5239980000000  0.4073290000000  0.4525840000000 1.0
C      1  0.5240280000000  0.5877210000000  0.4439510000000 1.0
C      1  0.5240520000000  0.5049950000000  0.6044520000000 1.0
C      1  0.5120340000000  0.4800120000000  0.5707790000000 1.0
C      1  0.5120020000000  0.4490010000000  0.4476740000000 1.0
C      1  0.5122550000000  0.5711260000000  0.4824640000000 1.0
C      1  0.5055800000000  0.4930320000000  0.4322750000000 1.0
C      1  0.5060270000000  0.5624110000000  0.5284100000000 1.0
C      1  0.5054680000000  0.4445820000000  0.5402550000000 1.0
C      1  0.4209230000000  0.5133770000000  0.5541780000000 1.0
C      1  0.4209320000000  0.4463760000000  0.4847400000000 1.0
C      1  0.4216150000000  0.5406440000000  0.4620410000000 1.0
C      1  0.4309700000000  0.5595230000000  0.5515250000000 1.0
C      1  0.4305540000000  0.4258650000000  0.5262720000000 1.0
C      1  0.4302780000000  0.5144070000000  0.4235650000000 1.0
C      1  0.5533780000000  0.5294850000000  0.4090510000000 1.0
C      1  0.5536730000000  0.5642840000000  0.5715250000000 1.0
C      1  0.5534010000000  0.4063010000000  0.5203840000000 1.0
C      1  0.4879980000000  0.5520800000000  0.5507190000000 1.0
C      1  0.4872450000000  0.4307430000000  0.5199820000000 1.0
C      1  0.4877210000000  0.5175340000000  0.4300720000000 1.0
C      1  0.4193080000000  0.4506060000000  0.5390680000000 1.0
C      1  0.4199860000000  0.4905120000000  0.4396220000000 1.0
C      1  0.4207930000000  0.5572420000000  0.5229260000000 1.0
C      1  0.4244000000000  0.5026360000000  0.5006270000000 1.0
END
