TITL C-33998-6869-1 0.0632495507461264 125000 -580.608651750965 0 0 87 (C1) n - 1
REM
REM in /rds/project/t2_vol4/rds-t2-cs072/BORA/CARBON/from-Arr/AIRSS/Generating-Clusters/GAP-ML-2020/Higher-Symm/SD-CG/HFTN-CG
REM
REM
REM
REM
REM
REM ./C.cell (b20cbc046b6831c77cfcea5457e17084)
REM AIRSS Version 0.9.1 bugfix July 2018 build 013d7b7c2542+ Fri, 06 Jul 2018 19:26:36 +0100
REM compiler GCC version 9.3.0
REM options -cpp -mtune=generic -march=x86-64 -g -O0
REM seed -980772584 -1065881615 987661845 162958763 -1723464990 -250072321 7425937 1263025940 -1895799750 1447821291 -561054554 636491688 710658636 1761170439 -464865094 -1152553250 -155287374 -1253747386 1854790048 651255489 -1320172819 -358378669 -651939784 -1949270272 882016515 165280990 -2091614515 -384655460 951021610 562312043 1605702875 908313577 749493882
REM
CELL 1.54180   50.00000   50.00000   50.00000   90.00000   90.00000   90.00000
LATT -1
SFAC C  
C      1  0.4648390000000  0.5253750000000  0.5809400000000 1.0
C      1  0.4702630000000  0.5758460000000  0.5301470000000 1.0
C      1  0.4659170000000  0.5731300000000  0.4575750000000 1.0
C      1  0.4620180000000  0.5130020000000  0.4159620000000 1.0
C      1  0.4614790000000  0.4441030000000  0.4387500000000 1.0
C      1  0.4625570000000  0.4189850000000  0.5061110000000 1.0
C      1  0.4602040000000  0.4529860000000  0.5709790000000 1.0
C      1  0.5408190000000  0.5515360000000  0.5093910000000 1.0
C      1  0.5384050000000  0.5394060000000  0.4579150000000 1.0
C      1  0.5371430000000  0.4934810000000  0.4407930000000 1.0
C      1  0.5364480000000  0.4544040000000  0.4683620000000 1.0
C      1  0.5344260000000  0.4483300000000  0.5163390000000 1.0
C      1  0.5382970000000  0.4756890000000  0.5569650000000 1.0
C      1  0.5405330000000  0.5241670000000  0.5535030000000 1.0
C      1  0.4530070000000  0.4812250000000  0.5258400000000 1.0
C      1  0.4553580000000  0.5079570000000  0.5320480000000 1.0
C      1  0.4576520000000  0.5289070000000  0.5141120000000 1.0
C      1  0.4561190000000  0.5297060000000  0.4866500000000 1.0
C      1  0.4537720000000  0.5087320000000  0.4689380000000 1.0
C      1  0.4524730000000  0.4818540000000  0.4752160000000 1.0
C      1  0.4528060000000  0.4701140000000  0.5003600000000 1.0
C      1  0.4998200000000  0.4261720000000  0.4636540000000 1.0
C      1  0.4992620000000  0.4250710000000  0.5369700000000 1.0
C      1  0.4998370000000  0.4792500000000  0.5855340000000 1.0
C      1  0.5048680000000  0.5497550000000  0.5666250000000 1.0
C      1  0.5066100000000  0.5814500000000  0.4992520000000 1.0
C      1  0.5021850000000  0.5525150000000  0.4326160000000 1.0
C      1  0.4995490000000  0.4813130000000  0.4168480000000 1.0
C      1  0.5577020000000  0.4655930000000  0.5091080000000 1.0
C      1  0.5595860000000  0.4828410000000  0.5341810000000 1.0
C      1  0.5616920000000  0.5125000000000  0.5375980000000 1.0
C      1  0.5644240000000  0.5346020000000  0.5162220000000 1.0
C      1  0.5631690000000  0.5252760000000  0.4680310000000 1.0
C      1  0.5587870000000  0.4965970000000  0.4609300000000 1.0
C      1  0.5580930000000  0.4717220000000  0.4783680000000 1.0
C      1  0.4791070000000  0.5481120000000  0.5228570000000 1.0
C      1  0.4752820000000  0.5499520000000  0.4751860000000 1.0
C      1  0.4718850000000  0.5131530000000  0.4448780000000 1.0
C      1  0.4709290000000  0.4663830000000  0.4567020000000 1.0
C      1  0.4724930000000  0.4469730000000  0.5007600000000 1.0
C      1  0.4704380000000  0.4659160000000  0.5452680000000 1.0
C      1  0.4741940000000  0.5127060000000  0.5553010000000 1.0
C      1  0.5200990000000  0.5049940000000  0.4181790000000 1.0
C      1  0.5193360000000  0.4419220000000  0.4452710000000 1.0
C      1  0.5188100000000  0.4234140000000  0.5116060000000 1.0
C      1  0.5194550000000  0.4565330000000  0.5729880000000 1.0
C      1  0.5225850000000  0.5262650000000  0.5780280000000 1.0
C      1  0.5251680000000  0.5716080000000  0.5232640000000 1.0
C      1  0.5232500000000  0.5653310000000  0.4524790000000 1.0
C      1  0.5137570000000  0.4934370000000  0.4594750000000 1.0
C      1  0.5125020000000  0.4707820000000  0.4781050000000 1.0
C      1  0.5117350000000  0.4678870000000  0.5215220000000 1.0
C      1  0.5149220000000  0.4872340000000  0.5439300000000 1.0
C      1  0.5181000000000  0.5159310000000  0.5360360000000 1.0
C      1  0.5182950000000  0.5355340000000  0.4939330000000 1.0
C      1  0.5153070000000  0.5232300000000  0.4664810000000 1.0
C      1  0.4695090000000  0.4154580000000  0.5355820000000 1.0
C      1  0.4696870000000  0.4752480000000  0.5911180000000 1.0
C      1  0.4752260000000  0.5540170000000  0.5756440000000 1.0
C      1  0.4773840000000  0.5913250000000  0.5050680000000 1.0
C      1  0.4728210000000  0.5620530000000  0.4295940000000 1.0
C      1  0.4698860000000  0.4841660000000  0.4077630000000 1.0
C      1  0.4700760000000  0.4199050000000  0.4556750000000 1.0
C      1  0.4884490000000  0.4884850000000  0.4442260000000 1.0
C      1  0.4890760000000  0.4520430000000  0.4756390000000 1.0
C      1  0.4881830000000  0.4510780000000  0.5258980000000 1.0
C      1  0.4888160000000  0.4864110000000  0.5581560000000 1.0
C      1  0.4941940000000  0.5322580000000  0.5442190000000 1.0
C      1  0.4949440000000  0.5537070000000  0.4980630000000 1.0
C      1  0.4906590000000  0.5348310000000  0.4543040000000 1.0
C      1  0.4560420000000  0.4307760000000  0.5563870000000 1.0
C      1  0.4582650000000  0.5015250000000  0.5922160000000 1.0
C      1  0.4637940000000  0.5709660000000  0.5561410000000 1.0
C      1  0.4631330000000  0.5873820000000  0.4801830000000 1.0
C      1  0.4589360000000  0.5396170000000  0.4178740000000 1.0
C      1  0.4568180000000  0.4611200000000  0.4182210000000 1.0
C      1  0.4572440000000  0.4135070000000  0.4801610000000 1.0
C      1  0.5127140000000  0.5050800000000  0.5906840000000 1.0
C      1  0.5173320000000  0.5689290000000  0.5484550000000 1.0
C      1  0.5167500000000  0.5822300000000  0.4718340000000 1.0
C      1  0.5125350000000  0.5302660000000  0.4162600000000 1.0
C      1  0.5109790000000  0.4552320000000  0.4239020000000 1.0
C      1  0.5106620000000  0.4149240000000  0.4879640000000 1.0
C      1  0.5105140000000  0.4339740000000  0.5623910000000 1.0
C      1  0.5075100000000  0.4872180000000  0.5007570000000 1.0
C      1  0.5188670000000  0.5113510000000  0.5077910000000 1.0
C      1  0.5756770000000  0.5332490000000  0.4912140000000 1.0
END
