TITL C-33980-7966-6 0.0498685791731619 125000 -140.563218019358 0 0 22 (C1) n - 1
REM
REM in /rds/project/t2_vol4/rds-t2-cs072/BORA/CARBON/from-Arr/AIRSS/Generating-Clusters/GAP-ML-2020/Higher-Symm/SD-CG/HFTN-CG
REM
REM
REM
REM
REM
REM ./C.cell (b20cbc046b6831c77cfcea5457e17084)
REM AIRSS Version 0.9.1 bugfix July 2018 build 013d7b7c2542+ Fri, 06 Jul 2018 19:26:36 +0100
REM compiler GCC version 9.3.0
REM options -cpp -mtune=generic -march=x86-64 -g -O0
REM seed -36620814 -1447758050 1975847016 -435666717 2025608821 -1677857846 1257364344 1701552277 2130782181 2144287400 -287442844 -1117681549 425465050 726224384 1179378329 2086511056 -805890907 -423990673 -1542924395 -1726153427 -56701188 -1326449912 -1488957090 1844985274 2094000252 -1722307285 -1745787650 1191489864 90724813 -1876553102 -1279314596 1027500609 -412014366
REM
CELL 1.54180   50.00000   50.00000   50.00000   90.00000   90.00000   90.00000
LATT -1
SFAC C  
C      1  0.5320870000000  0.4948740000000  0.4577110000000 1.0
C      1  0.4925280000000  0.4992420000000  0.4868680000000 1.0
C      1  0.5061110000000  0.4561470000000  0.4777680000000 1.0
C      1  0.5572080000000  0.5219230000000  0.5143590000000 1.0
C      1  0.5120290000000  0.4811340000000  0.4694120000000 1.0
C      1  0.4663050000000  0.5375730000000  0.4905290000000 1.0
C      1  0.5303030000000  0.5183940000000  0.4726360000000 1.0
C      1  0.5334380000000  0.5151940000000  0.5026840000000 1.0
C      1  0.4808870000000  0.4422540000000  0.5196180000000 1.0
C      1  0.5825670000000  0.5343960000000  0.5112120000000 1.0
C      1  0.4883190000000  0.5284060000000  0.4768600000000 1.0
C      1  0.4592830000000  0.5200620000000  0.5108700000000 1.0
C      1  0.4204410000000  0.4866740000000  0.4980610000000 1.0
C      1  0.5089790000000  0.5046530000000  0.5122010000000 1.0
C      1  0.4847050000000  0.4567130000000  0.4965050000000 1.0
C      1  0.4701260000000  0.4813970000000  0.4905070000000 1.0
C      1  0.4801210000000  0.4317990000000  0.5424720000000 1.0
C      1  0.4679710000000  0.5227700000000  0.5384700000000 1.0
C      1  0.4908480000000  0.5117830000000  0.5314020000000 1.0
C      1  0.5115040000000  0.5370840000000  0.4646470000000 1.0
C      1  0.4463950000000  0.4930120000000  0.5008000000000 1.0
C      1  0.5778460000000  0.5245150000000  0.5344090000000 1.0
END
