TITL C-33996-6779-6 21.9061113654073 125000 -333.261949170602 0 0 49 (C1) n - 1
REM
REM in /rds/project/t2_vol4/rds-t2-cs072/BORA/CARBON/from-Arr/AIRSS/Generating-Clusters/GAP-ML-2020/Higher-Symm/SD-CG/HFTN-CG
REM
REM
REM
REM
REM
REM ./C.cell (b20cbc046b6831c77cfcea5457e17084)
REM AIRSS Version 0.9.1 bugfix July 2018 build 013d7b7c2542+ Fri, 06 Jul 2018 19:26:36 +0100
REM compiler GCC version 9.3.0
REM options -cpp -mtune=generic -march=x86-64 -g -O0
REM seed 835144705 390330580 -988301756 -49769531 -2088874989 1887021676 -1029634463 1283267075 -229907670 -2056346237 1482876320 -227566535 510445573 -1571063513 811553710 1925472478 -438810737 -714963676 -183483863 1371376333 -1808777856 429780093 -388814922 142049951 -1096761040 -2002242891 -1277357315 -1018124045 -1389003114 282901014 484327733 -685053065 526697182
REM
CELL 1.54180   50.00000   50.00000   50.00000   90.00000   90.00000   90.00000
LATT -1
SFAC C  
C      1  0.5372830000000  0.5187860000000  0.5499600000000 1.0
C      1  0.4941660000000  0.5408990000000  0.5487100000000 1.0
C      1  0.4601120000000  0.5075950000000  0.5475390000000 1.0
C      1  0.4811570000000  0.4648550000000  0.5476620000000 1.0
C      1  0.5292770000000  0.4709570000000  0.5497750000000 1.0
C      1  0.4645490000000  0.5181510000000  0.4477310000000 1.0
C      1  0.5053300000000  0.5408630000000  0.4478400000000 1.0
C      1  0.5377040000000  0.5071950000000  0.4495440000000 1.0
C      1  0.5182750000000  0.4652780000000  0.4491170000000 1.0
C      1  0.4722370000000  0.4734300000000  0.4486730000000 1.0
C      1  0.4510120000000  0.4925210000000  0.4589210000000 1.0
C      1  0.4937710000000  0.4554820000000  0.4613140000000 1.0
C      1  0.5390570000000  0.4815830000000  0.4628460000000 1.0
C      1  0.5294960000000  0.5325940000000  0.4620780000000 1.0
C      1  0.4778440000000  0.5420270000000  0.4600040000000 1.0
C      1  0.5458740000000  0.4924180000000  0.5372010000000 1.0
C      1  0.5068720000000  0.4553930000000  0.5360410000000 1.0
C      1  0.4592620000000  0.4815610000000  0.5341700000000 1.0
C      1  0.4690060000000  0.5333870000000  0.5347430000000 1.0
C      1  0.5219110000000  0.5404580000000  0.5363050000000 1.0
C      1  0.4768470000000  0.5503610000000  0.4871940000000 1.0
C      1  0.4430790000000  0.4944340000000  0.4862130000000 1.0
C      1  0.4899790000000  0.4474710000000  0.4884610000000 1.0
C      1  0.5477140000000  0.4748390000000  0.4893590000000 1.0
C      1  0.5391590000000  0.5370930000000  0.4886650000000 1.0
C      1  0.5227730000000  0.5498390000000  0.5093730000000 1.0
C      1  0.5556360000000  0.4940590000000  0.5102950000000 1.0
C      1  0.5112070000000  0.4468300000000  0.5090190000000 1.0
C      1  0.4514950000000  0.4750720000000  0.5071960000000 1.0
C      1  0.4599610000000  0.5376500000000  0.5077950000000 1.0
C      1  0.5109680000000  0.4787690000000  0.4237540000000 1.0
C      1  0.5236280000000  0.5045160000000  0.4239740000000 1.0
C      1  0.5033970000000  0.5251050000000  0.4229870000000 1.0
C      1  0.4773520000000  0.5121250000000  0.4213940000000 1.0
C      1  0.4823150000000  0.4827160000000  0.4219870000000 1.0
C      1  0.4883290000000  0.4789030000000  0.5722650000000 1.0
C      1  0.4757150000000  0.5045250000000  0.5719120000000 1.0
C      1  0.4960060000000  0.5246920000000  0.5727670000000 1.0
C      1  0.5217420000000  0.5115280000000  0.5736600000000 1.0
C      1  0.5169210000000  0.4829790000000  0.5734630000000 1.0
C      1  0.5357320000000  0.4529830000000  0.4997650000000 1.0
C      1  0.4997360000000  0.5589320000000  0.4986330000000 1.0
C      1  0.4653210000000  0.4539140000000  0.4975610000000 1.0
C      1  0.4433600000000  0.5193840000000  0.4966820000000 1.0
C      1  0.5558310000000  0.5189180000000  0.4998500000000 1.0
C      1  0.4897430000000  0.5004160000000  0.4617430000000 1.0
C      1  0.5023650000000  0.5004140000000  0.5301030000000 1.0
C      1  0.5078690000000  0.5005730000000  0.5048160000000 1.0
C      1  0.4890190000000  0.5021210000000  0.4883850000000 1.0
END
