TITL C-33988-6634-7 -16.1082763252916 125000 -144.381304086079 0 0 22 (C1) n - 1
REM
REM in /rds/project/t2_vol4/rds-t2-cs072/BORA/CARBON/from-Arr/AIRSS/Generating-Clusters/GAP-ML-2020/Higher-Symm/SD-CG/HFTN-CG
REM
REM
REM
REM
REM
REM ./C.cell (b20cbc046b6831c77cfcea5457e17084)
REM AIRSS Version 0.9.1 bugfix July 2018 build 013d7b7c2542+ Fri, 06 Jul 2018 19:26:36 +0100
REM compiler GCC version 9.3.0
REM options -cpp -mtune=generic -march=x86-64 -g -O0
REM seed 589863904 -502824907 -1654898891 -1344171006 202014100 -1139376893 1018422996 843360802 16384668 -1121353623 1531211554 191601232 -2087315573 -1719661040 -179210143 206225130 -1644399965 -1730289604 274056449 1217961783 2044104402 2102373690 749726124 -1557771452 1772689720 -815465604 127136986 -254176384 -1720609283 -1116003097 -1920866757 -257429342 -1087564906
REM
CELL 1.54180   50.00000   50.00000   50.00000   90.00000   90.00000   90.00000
LATT -1
SFAC C  
C      1  0.5025190000000  0.4971040000000  0.4561940000000 1.0
C      1  0.5244670000000  0.4818580000000  0.4449370000000 1.0
C      1  0.5334070000000  0.4649700000000  0.4245570000000 1.0
C      1  0.5079300000000  0.4710210000000  0.4237470000000 1.0
C      1  0.4875690000000  0.4863920000000  0.4348090000000 1.0
C      1  0.4461080000000  0.4689630000000  0.5281490000000 1.0
C      1  0.4515970000000  0.5414860000000  0.5275250000000 1.0
C      1  0.5212510000000  0.5639840000000  0.5273660000000 1.0
C      1  0.5602090000000  0.5055880000000  0.5195020000000 1.0
C      1  0.5108550000000  0.4503470000000  0.5094660000000 1.0
C      1  0.5434030000000  0.5509170000000  0.5278290000000 1.0
C      1  0.5518290000000  0.4824470000000  0.5133440000000 1.0
C      1  0.4868610000000  0.4456740000000  0.5160330000000 1.0
C      1  0.4374720000000  0.4931340000000  0.5289750000000 1.0
C      1  0.4712060000000  0.5582160000000  0.5268670000000 1.0
C      1  0.4956170000000  0.5661560000000  0.5266540000000 1.0
C      1  0.5596720000000  0.5309750000000  0.5263070000000 1.0
C      1  0.5257570000000  0.4739430000000  0.5080230000000 1.0
C      1  0.4623310000000  0.4492050000000  0.5247450000000 1.0
C      1  0.4397570000000  0.5187450000000  0.5283210000000 1.0
C      1  0.5078140000000  0.4948270000000  0.4998700000000 1.0
C      1  0.4956990000000  0.5081440000000  0.4813330000000 1.0
END
