TITL C-33995-6621-2 -37.6250602593145 125000 -317.297595696091 0 0 45 (C1) n - 1
REM
REM in /rds/project/t2_vol4/rds-t2-cs072/BORA/CARBON/from-Arr/AIRSS/Generating-Clusters/GAP-ML-2020/Higher-Symm/SD-CG/HFTN-CG
REM
REM
REM
REM
REM
REM ./C.cell (b20cbc046b6831c77cfcea5457e17084)
REM AIRSS Version 0.9.1 bugfix July 2018 build 013d7b7c2542+ Fri, 06 Jul 2018 19:26:36 +0100
REM compiler GCC version 9.3.0
REM options -cpp -mtune=generic -march=x86-64 -g -O0
REM seed 1649076670 1350895155 -1707889299 -2022762394 -1345752664 1282648828 -1017835292 -1512609240 -639560583 -978477860 1089549246 -325815684 -2093619330 -1629404614 1763749132 -701743246 -403022604 -1981806324 -1324423510 -118222977 -1962568468 13792142 330047577 407484143 -1144124631 -271652594 -1672800099 1219922933 1215826561 1758024920 -1308942000 359614558 480374997
REM
CELL 1.54180   50.00000   50.00000   50.00000   90.00000   90.00000   90.00000
LATT -1
SFAC C  
C      1  0.5402510000000  0.4622470000000  0.4990000000000 1.0
C      1  0.5318500000000  0.4576890000000  0.4717770000000 1.0
C      1  0.5067580000000  0.4549740000000  0.4564180000000 1.0
C      1  0.4785410000000  0.4592460000000  0.4628590000000 1.0
C      1  0.4621370000000  0.4633390000000  0.4859020000000 1.0
C      1  0.4621230000000  0.4620070000000  0.5147940000000 1.0
C      1  0.4807980000000  0.4629830000000  0.5367750000000 1.0
C      1  0.5086090000000  0.4594050000000  0.5426290000000 1.0
C      1  0.5334480000000  0.4593400000000  0.5266820000000 1.0
C      1  0.5184230000000  0.5600040000000  0.4713120000000 1.0
C      1  0.4973490000000  0.5557250000000  0.4889770000000 1.0
C      1  0.4734890000000  0.5415200000000  0.4812790000000 1.0
C      1  0.4552420000000  0.5400330000000  0.5027110000000 1.0
C      1  0.4645140000000  0.5399640000000  0.5309770000000 1.0
C      1  0.4919610000000  0.5401050000000  0.5369650000000 1.0
C      1  0.5083190000000  0.5505200000000  0.5159030000000 1.0
C      1  0.5349300000000  0.5412710000000  0.5114250000000 1.0
C      1  0.5385360000000  0.5426810000000  0.4823650000000 1.0
C      1  0.4469100000000  0.4948800000000  0.5453030000000 1.0
C      1  0.4924670000000  0.4972500000000  0.5663570000000 1.0
C      1  0.5382410000000  0.4903570000000  0.5626040000000 1.0
C      1  0.5600150000000  0.4982960000000  0.5227000000000 1.0
C      1  0.5577570000000  0.4969460000000  0.4724330000000 1.0
C      1  0.5338860000000  0.4869830000000  0.4344670000000 1.0
C      1  0.4896720000000  0.4896760000000  0.4286000000000 1.0
C      1  0.4551500000000  0.5000030000000  0.4575800000000 1.0
C      1  0.4314520000000  0.4955400000000  0.5017310000000 1.0
C      1  0.4967500000000  0.5157130000000  0.4412070000000 1.0
C      1  0.4740140000000  0.5229260000000  0.4591630000000 1.0
C      1  0.4338630000000  0.5223040000000  0.5096870000000 1.0
C      1  0.4435920000000  0.5218170000000  0.5382720000000 1.0
C      1  0.5040460000000  0.5224970000000  0.5564850000000 1.0
C      1  0.5324640000000  0.5179060000000  0.5544820000000 1.0
C      1  0.5463820000000  0.5230780000000  0.5295720000000 1.0
C      1  0.5439850000000  0.5211270000000  0.4653500000000 1.0
C      1  0.5260540000000  0.5141300000000  0.4433790000000 1.0
C      1  0.5486790000000  0.4756590000000  0.4555510000000 1.0
C      1  0.5110170000000  0.4710280000000  0.4311240000000 1.0
C      1  0.4686040000000  0.4790680000000  0.4433890000000 1.0
C      1  0.4435180000000  0.4856290000000  0.4786700000000 1.0
C      1  0.4397110000000  0.4788740000000  0.5230800000000 1.0
C      1  0.4705250000000  0.4839420000000  0.5555000000000 1.0
C      1  0.5135450000000  0.4773550000000  0.5656470000000 1.0
C      1  0.5515800000000  0.4779720000000  0.5410870000000 1.0
C      1  0.5588430000000  0.4859920000000  0.4978310000000 1.0
END
