TITL C-33980-7966-12 -0.572466344601194 125000 -321.095741119717 0 0 44 (D3h) n - 1
REM
REM in /rds/project/t2_vol4/rds-t2-cs072/BORA/CARBON/from-Arr/AIRSS/Generating-Clusters/GAP-ML-2020/Higher-Symm/SD-CG/HFTN-CG
REM
REM
REM
REM
REM
REM ./C.cell (b20cbc046b6831c77cfcea5457e17084)
REM AIRSS Version 0.9.1 bugfix July 2018 build 013d7b7c2542+ Fri, 06 Jul 2018 19:26:36 +0100
REM compiler GCC version 9.3.0
REM options -cpp -mtune=generic -march=x86-64 -g -O0
REM seed 2101162046 -886441951 1683664400 1224304546 730953812 -386429172 -1399883847 924045894 -587373300 -1965852079 -2049506492 -1019428824 -80471868 -1763195457 -1170723906 1950229104 483039821 -1704591645 2051959147 -1194151779 -671942694 -1858096655 913720009 1895176702 -1400573346 -1626443649 1054395078 -532080903 -2026677430 -1928352020 -1412274431 1788998955 355472302
REM
CELL 1.54180   50.00000   50.00000   50.00000   90.00000   90.00000   90.00000
LATT -1
SFAC C  
C      1  0.5305120000000  0.5360310000000  0.5317950000000 1.0
C      1  0.5305150000000  0.5089940000000  0.4526820000000 1.0
C      1  0.5305120000000  0.4539980000000  0.5156530000000 1.0
C      1  0.4736350000000  0.5360310000000  0.5317930000000 1.0
C      1  0.4736380000000  0.5089940000000  0.4526800000000 1.0
C      1  0.4736350000000  0.4539980000000  0.5156510000000 1.0
C      1  0.4330910000000  0.5081100000000  0.5255650000000 1.0
C      1  0.4330930000000  0.5175630000000  0.4799710000000 1.0
C      1  0.4330920000000  0.4733510000000  0.4945820000000 1.0
C      1  0.5710560000000  0.5081100000000  0.5255700000000 1.0
C      1  0.5710580000000  0.5175620000000  0.4799760000000 1.0
C      1  0.5710570000000  0.4733500000000  0.4945870000000 1.0
C      1  0.5167200000000  0.4520330000000  0.4901660000000 1.0
C      1  0.5167180000000  0.5149420000000  0.5462390000000 1.0
C      1  0.5167210000000  0.5320480000000  0.4637220000000 1.0
C      1  0.4874290000000  0.4520330000000  0.4901650000000 1.0
C      1  0.4874280000000  0.5149420000000  0.5462380000000 1.0
C      1  0.4874310000000  0.5320490000000  0.4637210000000 1.0
C      1  0.5571310000000  0.5022010000000  0.4605960000000 1.0
C      1  0.5571290000000  0.4642480000000  0.5175800000000 1.0
C      1  0.5571290000000  0.5325740000000  0.5219560000000 1.0
C      1  0.4470210000000  0.5022010000000  0.4605920000000 1.0
C      1  0.4470190000000  0.4642480000000  0.5175760000000 1.0
C      1  0.4470190000000  0.5325740000000  0.5219520000000 1.0
C      1  0.5157480000000  0.4661160000000  0.5376910000000 1.0
C      1  0.5157500000000  0.5490580000000  0.5102800000000 1.0
C      1  0.5157510000000  0.4838490000000  0.4521560000000 1.0
C      1  0.4883980000000  0.4661160000000  0.5376900000000 1.0
C      1  0.4883990000000  0.5490580000000  0.5102800000000 1.0
C      1  0.4884010000000  0.4838490000000  0.4521550000000 1.0
C      1  0.5305140000000  0.5456570000000  0.4853610000000 1.0
C      1  0.5305140000000  0.4639680000000  0.4675620000000 1.0
C      1  0.5305110000000  0.4893980000000  0.5472060000000 1.0
C      1  0.4736370000000  0.5456570000000  0.4853590000000 1.0
C      1  0.4736370000000  0.4639680000000  0.4675600000000 1.0
C      1  0.4736340000000  0.4893980000000  0.5472040000000 1.0
C      1  0.5571300000000  0.4741390000000  0.4698700000000 1.0
C      1  0.5571280000000  0.4863110000000  0.5372460000000 1.0
C      1  0.5571300000000  0.5385740000000  0.4930170000000 1.0
C      1  0.4470210000000  0.4741390000000  0.4698660000000 1.0
C      1  0.4470180000000  0.4863110000000  0.5372420000000 1.0
C      1  0.4470200000000  0.5385740000000  0.4930130000000 1.0
C      1  0.5814110000000  0.4996740000000  0.5000450000000 1.0
C      1  0.4227380000000  0.4996750000000  0.5000390000000 1.0
END
