TITL C-33993-6620-1 0.0711936335266642 125000 -507.845564338696 0 0 73 (C3) n - 1
REM
REM in /rds/project/t2_vol4/rds-t2-cs072/BORA/CARBON/from-Arr/AIRSS/Generating-Clusters/GAP-ML-2020/Higher-Symm/SD-CG/HFTN-CG
REM
REM
REM
REM
REM
REM ./C.cell (b20cbc046b6831c77cfcea5457e17084)
REM AIRSS Version 0.9.1 bugfix July 2018 build 013d7b7c2542+ Fri, 06 Jul 2018 19:26:36 +0100
REM compiler GCC version 9.3.0
REM options -cpp -mtune=generic -march=x86-64 -g -O0
REM seed -669679705 288298586 260311065 -1236109344 -1148629007 -233268310 -1475390767 -1694281091 1134079076 -1984553750 1670478133 -1204265414 -173707747 1932993460 674512191 -1847206382 -1990402869 -1742121282 412484672 -1778409657 -1658462768 815201386 65135888 -562980558 -1312586418 -1705793131 -1731228599 -2060902836 -2041109482 582331093 -384060404 -35570860 20664452
REM
CELL 1.54180   50.00000   50.00000   50.00000   90.00000   90.00000   90.00000
LATT -1
SFAC C  
C      1  0.5282390000000  0.5624230000000  0.4846600000000 1.0
C      1  0.5282410000000  0.4557510000000  0.4532210000000 1.0
C      1  0.5282280000000  0.4818600000000  0.5613210000000 1.0
C      1  0.5331690000000  0.5462000000000  0.4608520000000 1.0
C      1  0.5331650000000  0.4432440000000  0.4791750000000 1.0
C      1  0.5331570000000  0.5105900000000  0.5591760000000 1.0
C      1  0.4459740000000  0.5263900000000  0.5444640000000 1.0
C      1  0.4459840000000  0.5255700000000  0.4545120000000 1.0
C      1  0.4459780000000  0.4480790000000  0.5001980000000 1.0
C      1  0.4578950000000  0.5523170000000  0.5417790000000 1.0
C      1  0.4579070000000  0.5102800000000  0.4334030000000 1.0
C      1  0.4578950000000  0.4374420000000  0.5239960000000 1.0
C      1  0.4593390000000  0.5484140000000  0.4666750000000 1.0
C      1  0.4593370000000  0.4471890000000  0.4743340000000 1.0
C      1  0.4593280000000  0.5044350000000  0.5581680000000 1.0
C      1  0.4303340000000  0.5284850000000  0.4978720000000 1.0
C      1  0.4303360000000  0.4841750000000  0.4759910000000 1.0
C      1  0.4303300000000  0.4873800000000  0.5253050000000 1.0
C      1  0.5077940000000  0.5237330000000  0.5652130000000 1.0
C      1  0.5078090000000  0.5448600000000  0.4464480000000 1.0
C      1  0.5078020000000  0.4314430000000  0.4875340000000 1.0
C      1  0.5369830000000  0.4576730000000  0.5468220000000 1.0
C      1  0.5369890000000  0.5619590000000  0.5128570000000 1.0
C      1  0.5369960000000  0.4804020000000  0.4395260000000 1.0
C      1  0.4301590000000  0.4716440000000  0.5017770000000 1.0
C      1  0.4301580000000  0.5159770000000  0.5232640000000 1.0
C      1  0.4301630000000  0.5124180000000  0.4741270000000 1.0
C      1  0.4481980000000  0.5509700000000  0.4931460000000 1.0
C      1  0.4482000000000  0.4688370000000  0.4588840000000 1.0
C      1  0.4481900000000  0.4802310000000  0.5471440000000 1.0
C      1  0.5488940000000  0.5206170000000  0.5366490000000 1.0
C      1  0.5489030000000  0.5216750000000  0.4634350000000 1.0
C      1  0.5488980000000  0.4577410000000  0.4991250000000 1.0
C      1  0.4626760000000  0.4558110000000  0.5462750000000 1.0
C      1  0.4626820000000  0.5624260000000  0.5147320000000 1.0
C      1  0.4626890000000  0.4818010000000  0.4381720000000 1.0
C      1  0.5842200000000  0.4923530000000  0.4568340000000 1.0
C      1  0.5842110000000  0.4666810000000  0.5278250000000 1.0
C      1  0.5842140000000  0.5409970000000  0.5145630000000 1.0
C      1  0.4855220000000  0.5075270000000  0.4743480000000 1.0
C      1  0.4855180000000  0.4742740000000  0.5059110000000 1.0
C      1  0.4855170000000  0.5182350000000  0.5189280000000 1.0
C      1  0.5342960000000  0.5124380000000  0.5119150000000 1.0
C      1  0.5343000000000  0.5043460000000  0.4828830000000 1.0
C      1  0.5342970000000  0.4832500000000  0.5044070000000 1.0
C      1  0.5019220000000  0.5228320000000  0.4279720000000 1.0
C      1  0.5019100000000  0.4264570000000  0.5158480000000 1.0
C      1  0.5019070000000  0.5507470000000  0.5553730000000 1.0
C      1  0.4895870000000  0.4738550000000  0.4341550000000 1.0
C      1  0.4895730000000  0.4563020000000  0.5551700000000 1.0
C      1  0.4895800000000  0.5698800000000  0.5098630000000 1.0
C      1  0.5001070000000  0.4790340000000  0.5674910000000 1.0
C      1  0.5001190000000  0.5691830000000  0.4840180000000 1.0
C      1  0.5001210000000  0.4518180000000  0.4476830000000 1.0
C      1  0.5098480000000  0.4726040000000  0.5170410000000 1.0
C      1  0.5098500000000  0.5287050000000  0.5148130000000 1.0
C      1  0.5098550000000  0.4987260000000  0.4673420000000 1.0
C      1  0.4766500000000  0.4175260000000  0.5204150000000 1.0
C      1  0.4766470000000  0.5591710000000  0.5608200000000 1.0
C      1  0.4766630000000  0.5233400000000  0.4179490000000 1.0
C      1  0.5898960000000  0.4872230000000  0.5110950000000 1.0
C      1  0.5898970000000  0.5162370000000  0.5051390000000 1.0
C      1  0.5899000000000  0.4965720000000  0.4829900000000 1.0
C      1  0.5112710000000  0.4950220000000  0.4361770000000 1.0
C      1  0.5112580000000  0.4474660000000  0.5358310000000 1.0
C      1  0.5112610000000  0.5575470000000  0.5271890000000 1.0
C      1  0.4864540000000  0.5041350000000  0.5684880000000 1.0
C      1  0.4864670000000  0.5574980000000  0.4617790000000 1.0
C      1  0.4864640000000  0.4384030000000  0.4689210000000 1.0
C      1  0.5590690000000  0.4548620000000  0.5273240000000 1.0
C      1  0.5590710000000  0.5464760000000  0.5250440000000 1.0
C      1  0.5590790000000  0.4986940000000  0.4468440000000 1.0
C      1  0.4787700000000  0.5000120000000  0.4997280000000 1.0
END
