TITL C-33989-6561-6 0.106587299207145 125000 -436.389599508708 0 0 64 (Cs) n - 1
REM
REM in /rds/project/t2_vol4/rds-t2-cs072/BORA/CARBON/from-Arr/AIRSS/Generating-Clusters/GAP-ML-2020/Higher-Symm/SD-CG/HFTN-CG
REM
REM
REM
REM
REM
REM ./C.cell (b20cbc046b6831c77cfcea5457e17084)
REM AIRSS Version 0.9.1 bugfix July 2018 build 013d7b7c2542+ Fri, 06 Jul 2018 19:26:36 +0100
REM compiler GCC version 9.3.0
REM options -cpp -mtune=generic -march=x86-64 -g -O0
REM seed 1304435791 437624299 1931286175 451986855 -1684098108 80932120 1335099560 148884445 1312754260 492322315 -1479130037 558562269 -1096936607 168080923 2017484015 -414032116 1713536846 496773323 1174539285 -465506874 -118055751 843964662 366795331 2140217731 -1425739474 1766901905 -1284087975 1804229156 1766301904 193009960 1614777745 567167523 -1689839540
REM
CELL 1.54180   50.00000   50.00000   50.00000   90.00000   90.00000   90.00000
LATT -1
SFAC C  
C      1  0.5266950000000  0.4969870000000  0.5670910000000 1.0
C      1  0.4731770000000  0.4957450000000  0.4319970000000 1.0
C      1  0.5268150000000  0.4957470000000  0.4319940000000 1.0
C      1  0.4733140000000  0.4969850000000  0.5670950000000 1.0
C      1  0.5636510000000  0.4871460000000  0.4853280000000 1.0
C      1  0.4367890000000  0.4877960000000  0.5131360000000 1.0
C      1  0.5632130000000  0.4878010000000  0.5131290000000 1.0
C      1  0.4363480000000  0.4871410000000  0.4853360000000 1.0
C      1  0.4612920000000  0.5570130000000  0.5264990000000 1.0
C      1  0.5382740000000  0.5552130000000  0.4738080000000 1.0
C      1  0.4617190000000  0.5552100000000  0.4738130000000 1.0
C      1  0.5387070000000  0.5570160000000  0.5264940000000 1.0
C      1  0.5144190000000  0.5237450000000  0.5607070000000 1.0
C      1  0.4857400000000  0.5211510000000  0.4410200000000 1.0
C      1  0.5142510000000  0.5211520000000  0.4410180000000 1.0
C      1  0.4855860000000  0.5237440000000  0.5607090000000 1.0
C      1  0.4666920000000  0.4726510000000  0.4476860000000 1.0
C      1  0.5294380000000  0.4766510000000  0.5460720000000 1.0
C      1  0.4705690000000  0.4766490000000  0.5460750000000 1.0
C      1  0.5333040000000  0.4726530000000  0.4476820000000 1.0
C      1  0.4611140000000  0.5808980000000  0.5125290000000 1.0
C      1  0.5387720000000  0.5801040000000  0.4860470000000 1.0
C      1  0.4612200000000  0.5801010000000  0.4860520000000 1.0
C      1  0.5388810000000  0.5809010000000  0.5125240000000 1.0
C      1  0.4500280000000  0.4667270000000  0.4707820000000 1.0
C      1  0.5506110000000  0.4671090000000  0.5270760000000 1.0
C      1  0.4493950000000  0.4671050000000  0.5270830000000 1.0
C      1  0.5499710000000  0.4667310000000  0.4707760000000 1.0
C      1  0.4855210000000  0.4511410000000  0.4457260000000 1.0
C      1  0.5141940000000  0.4521920000000  0.5512190000000 1.0
C      1  0.4858160000000  0.4521910000000  0.5512210000000 1.0
C      1  0.5144760000000  0.4511420000000  0.4457240000000 1.0
C      1  0.4858360000000  0.4877520000000  0.4912750000000 1.0
C      1  0.5144670000000  0.4905920000000  0.5219280000000 1.0
C      1  0.4855360000000  0.4905910000000  0.5219300000000 1.0
C      1  0.5141640000000  0.4877530000000  0.4912730000000 1.0
C      1  0.5159650000000  0.5391440000000  0.5348360000000 1.0
C      1  0.4842710000000  0.5364990000000  0.4673470000000 1.0
C      1  0.5157220000000  0.5365000000000  0.4673450000000 1.0
C      1  0.4840370000000  0.5391430000000  0.5348380000000 1.0
C      1  0.4453030000000  0.5127500000000  0.4771090000000 1.0
C      1  0.5559370000000  0.5135160000000  0.5240880000000 1.0
C      1  0.4440650000000  0.5135120000000  0.5240950000000 1.0
C      1  0.5546930000000  0.5127550000000  0.4771020000000 1.0
C      1  0.4850040000000  0.4348090000000  0.4696380000000 1.0
C      1  0.5151360000000  0.4358340000000  0.5279820000000 1.0
C      1  0.4848720000000  0.4358330000000  0.5279840000000 1.0
C      1  0.5149970000000  0.4348100000000  0.4696360000000 1.0
C      1  0.5127970000000  0.4895730000000  0.4071940000000 1.0
C      1  0.4872190000000  0.4878920000000  0.5900560000000 1.0
C      1  0.5127930000000  0.4878930000000  0.5900550000000 1.0
C      1  0.4871920000000  0.4895720000000  0.4071960000000 1.0
C      1  0.4393760000000  0.5393300000000  0.5148550000000 1.0
C      1  0.5604520000000  0.5386960000000  0.4852940000000 1.0
C      1  0.4395430000000  0.5386920000000  0.4853010000000 1.0
C      1  0.5606230000000  0.5393350000000  0.5148480000000 1.0
C      1  0.4617340000000  0.4445190000000  0.5132420000000 1.0
C      1  0.5379330000000  0.4441440000000  0.4848010000000 1.0
C      1  0.4620700000000  0.4441410000000  0.4848050000000 1.0
C      1  0.5382720000000  0.4445220000000  0.5132370000000 1.0
C      1  0.5260750000000  0.5153580000000  0.4863030000000 1.0
C      1  0.4731890000000  0.5173230000000  0.5173270000000 1.0
C      1  0.5268120000000  0.5173250000000  0.5173240000000 1.0
C      1  0.4739230000000  0.5153560000000  0.4863070000000 1.0
END
