TITL C-33984-7291-1 100.089716776395 125000 -331.797923105551 0 0 49 (C3) n - 1
REM
REM in /rds/project/t2_vol4/rds-t2-cs072/BORA/CARBON/from-Arr/AIRSS/Generating-Clusters/GAP-ML-2020/Higher-Symm/SD-CG/HFTN-CG
REM
REM
REM
REM
REM
REM ./C.cell (b20cbc046b6831c77cfcea5457e17084)
REM AIRSS Version 0.9.1 bugfix July 2018 build 013d7b7c2542+ Fri, 06 Jul 2018 19:26:36 +0100
REM compiler GCC version 9.3.0
REM options -cpp -mtune=generic -march=x86-64 -g -O0
REM seed 285344936 1932081460 -1861915261 -469905446 -1486553096 -367440918 -120827887 -1613668048 -1089117178 -1595274875 -107706021 -1199471910 1799833001 1963511176 -637355122 1642365501 -710383726 -1548002103 -373642437 940629791 -2021812285 -1866733057 -1371451100 262116391 -1601897639 1046806064 398598721 1305017019 225994887 1851067233 640346705 585678529 903282238
REM
CELL 1.54180   50.00000   50.00000   50.00000   90.00000   90.00000   90.00000
LATT -1
SFAC C  
C      1  0.5504920000000  0.4634170000000  0.5227880000000 1.0
C      1  0.4945700000000  0.4634300000000  0.4441450000000 1.0
C      1  0.4544230000000  0.4633920000000  0.5318970000000 1.0
C      1  0.5272410000000  0.5220790000000  0.4867420000000 1.0
C      1  0.4972630000000  0.5220580000000  0.5298240000000 1.0
C      1  0.4749420000000  0.5220690000000  0.4823220000000 1.0
C      1  0.4389240000000  0.4888380000000  0.5353210000000 1.0
C      1  0.5611910000000  0.4888660000000  0.5345070000000 1.0
C      1  0.4993530000000  0.4888870000000  0.4290270000000 1.0
C      1  0.4499300000000  0.5083480000000  0.4698810000000 1.0
C      1  0.5505210000000  0.5083700000000  0.4712920000000 1.0
C      1  0.4990030000000  0.5083300000000  0.5577010000000 1.0
C      1  0.4562030000000  0.5076820000000  0.5475320000000 1.0
C      1  0.5631150000000  0.5077170000000  0.5134430000000 1.0
C      1  0.4801370000000  0.5077240000000  0.4378990000000 1.0
C      1  0.4585640000000  0.4913390000000  0.4503610000000 1.0
C      1  0.5631090000000  0.4913500000000  0.4885180000000 1.0
C      1  0.4777920000000  0.4913070000000  0.5599780000000 1.0
C      1  0.4854690000000  0.5304120000000  0.4559370000000 1.0
C      1  0.4691440000000  0.5303820000000  0.5339020000000 1.0
C      1  0.5448270000000  0.5304080000000  0.5090580000000 1.0
C      1  0.4785050000000  0.4651730000000  0.5463540000000 1.0
C      1  0.4700090000000  0.4652000000000  0.4577730000000 1.0
C      1  0.5509700000000  0.4652060000000  0.4947050000000 1.0
C      1  0.5007110000000  0.5549660000000  0.4581970000000 1.0
C      1  0.4634650000000  0.5549370000000  0.5195800000000 1.0
C      1  0.5352470000000  0.5549530000000  0.5211440000000 1.0
C      1  0.5028390000000  0.4526920000000  0.5373470000000 1.0
C      1  0.4656430000000  0.4527020000000  0.4833410000000 1.0
C      1  0.5310110000000  0.4527180000000  0.4781310000000 1.0
C      1  0.5133210000000  0.4337280000000  0.4906360000000 1.0
C      1  0.4853290000000  0.4337210000000  0.4924030000000 1.0
C      1  0.5008560000000  0.4337170000000  0.5157620000000 1.0
C      1  0.5146450000000  0.5696380000000  0.5069000000000 1.0
C      1  0.4861010000000  0.5696310000000  0.5088700000000 1.0
C      1  0.4986670000000  0.5696430000000  0.4831660000000 1.0
C      1  0.5266610000000  0.5139730000000  0.5581830000000 1.0
C      1  0.5371060000000  0.5140120000000  0.4471010000000 1.0
C      1  0.4356840000000  0.5139740000000  0.4935960000000 1.0
C      1  0.5262400000000  0.4891500000000  0.4390230000000 1.0
C      1  0.5390910000000  0.4891160000000  0.5527940000000 1.0
C      1  0.4341370000000  0.4891070000000  0.5070380000000 1.0
C      1  0.5219000000000  0.4638780000000  0.4540670000000 1.0
C      1  0.4493510000000  0.4638450000000  0.5032670000000 1.0
C      1  0.5282340000000  0.4638500000000  0.5414960000000 1.0
C      1  0.5242110000000  0.5341870000000  0.5366530000000 1.0
C      1  0.4555530000000  0.5341830000000  0.5022540000000 1.0
C      1  0.5196730000000  0.5342110000000  0.4599940000000 1.0
C      1  0.4998180000000  0.5108520000000  0.4996260000000 1.0
END
