TITL C-33998-6869-2 -0.324579251520311 125000 -931.432043909501 0 0 135 (C1) n - 1
REM
REM in /rds/project/t2_vol4/rds-t2-cs072/BORA/CARBON/from-Arr/AIRSS/Generating-Clusters/GAP-ML-2020/Higher-Symm/SD-CG/HFTN-CG
REM
REM
REM
REM
REM
REM ./C.cell (b20cbc046b6831c77cfcea5457e17084)
REM AIRSS Version 0.9.1 bugfix July 2018 build 013d7b7c2542+ Fri, 06 Jul 2018 19:26:36 +0100
REM compiler GCC version 9.3.0
REM options -cpp -mtune=generic -march=x86-64 -g -O0
REM seed 1261004179 -396034572 -721496133 -580917055 824379390 1033661645 -1223643083 948643882 1115418532 1184598501 -1419652128 -160601845 -790563730 1056764950 426423201 -671566067 2082736989 865548640 -459419614 912758301 1360118560 1001654897 324241844 -716516495 810579876 26750372 1868788884 856268962 -1317120724 1536403067 -119539045 -503645331 -635477591
REM
CELL 1.54180   50.00000   50.00000   50.00000   90.00000   90.00000   90.00000
LATT -1
SFAC C  
C      1  0.5850110000000  0.5210700000000  0.4696450000000 1.0
C      1  0.5536480000000  0.4207610000000  0.4742680000000 1.0
C      1  0.4486860000000  0.4314680000000  0.4691660000000 1.0
C      1  0.4163180000000  0.5324800000000  0.4731550000000 1.0
C      1  0.4991300000000  0.5877720000000  0.4721290000000 1.0
C      1  0.4612060000000  0.5756240000000  0.5477120000000 1.0
C      1  0.5594580000000  0.5601090000000  0.5462060000000 1.0
C      1  0.5755590000000  0.4620210000000  0.5478720000000 1.0
C      1  0.4875690000000  0.4170130000000  0.5457250000000 1.0
C      1  0.4170800000000  0.4864730000000  0.5461320000000 1.0
C      1  0.5674760000000  0.4916900000000  0.5060510000000 1.0
C      1  0.5139920000000  0.4343530000000  0.5046520000000 1.0
C      1  0.4418710000000  0.4676810000000  0.5050830000000 1.0
C      1  0.4508340000000  0.5468390000000  0.5062850000000 1.0
C      1  0.5279920000000  0.5615890000000  0.5060730000000 1.0
C      1  0.4312780000000  0.4817700000000  0.4515020000000 1.0
C      1  0.4543440000000  0.5766740000000  0.4472370000000 1.0
C      1  0.5425170000000  0.5649980000000  0.4496150000000 1.0
C      1  0.5668680000000  0.4612870000000  0.4508900000000 1.0
C      1  0.4925410000000  0.4200340000000  0.4457850000000 1.0
C      1  0.5728770000000  0.4105140000000  0.5169920000000 1.0
C      1  0.4396570000000  0.4048620000000  0.5098380000000 1.0
C      1  0.3897790000000  0.5283910000000  0.5130260000000 1.0
C      1  0.4928940000000  0.6141470000000  0.5130450000000 1.0
C      1  0.6052100000000  0.5410620000000  0.5093710000000 1.0
C      1  0.5050570000000  0.5681460000000  0.4268110000000 1.0
C      1  0.5663610000000  0.5011050000000  0.4268000000000 1.0
C      1  0.5396160000000  0.4284450000000  0.4283570000000 1.0
C      1  0.4564880000000  0.4510770000000  0.4236030000000 1.0
C      1  0.4368990000000  0.5358110000000  0.4277960000000 1.0
C      1  0.4594240000000  0.4240610000000  0.5510510000000 1.0
C      1  0.4153530000000  0.5152810000000  0.5522640000000 1.0
C      1  0.4882570000000  0.5861210000000  0.5531090000000 1.0
C      1  0.5781170000000  0.5377720000000  0.5512440000000 1.0
C      1  0.5596320000000  0.4380310000000  0.5536880000000 1.0
C      1  0.4157520000000  0.4770210000000  0.5188350000000 1.0
C      1  0.4513220000000  0.5741890000000  0.5206420000000 1.0
C      1  0.5548520000000  0.5685800000000  0.5190260000000 1.0
C      1  0.5825090000000  0.4682960000000  0.5207620000000 1.0
C      1  0.4963270000000  0.4127170000000  0.5184220000000 1.0
C      1  0.4313680000000  0.5221870000000  0.4519590000000 1.0
C      1  0.4856110000000  0.5717680000000  0.4498570000000 1.0
C      1  0.5679370000000  0.5208270000000  0.4472040000000 1.0
C      1  0.5580310000000  0.4327820000000  0.4493390000000 1.0
C      1  0.4680800000000  0.4375650000000  0.4475460000000 1.0
C      1  0.5007620000000  0.5651380000000  0.5134000000000 1.0
C      1  0.5621090000000  0.5193180000000  0.5124330000000 1.0
C      1  0.5382480000000  0.4476550000000  0.5117950000000 1.0
C      1  0.4621050000000  0.4486760000000  0.5120710000000 1.0
C      1  0.4389990000000  0.5213270000000  0.5128350000000 1.0
C      1  0.5848960000000  0.4681160000000  0.4734220000000 1.0
C      1  0.5014180000000  0.4086980000000  0.4710350000000 1.0
C      1  0.4141630000000  0.4722720000000  0.4716060000000 1.0
C      1  0.4433010000000  0.5774350000000  0.4739330000000 1.0
C      1  0.5520030000000  0.5769870000000  0.4731760000000 1.0
C      1  0.4742250000000  0.4712130000000  0.4109710000000 1.0
C      1  0.4573250000000  0.5186520000000  0.4142430000000 1.0
C      1  0.5053870000000  0.5404340000000  0.4166590000000 1.0
C      1  0.5388480000000  0.5009460000000  0.4160010000000 1.0
C      1  0.5262320000000  0.4494170000000  0.4163180000000 1.0
C      1  0.5363980000000  0.4745520000000  0.4538370000000 1.0
C      1  0.4887110000000  0.4604730000000  0.4529280000000 1.0
C      1  0.4517970000000  0.5019490000000  0.4569060000000 1.0
C      1  0.4826590000000  0.5414070000000  0.4529170000000 1.0
C      1  0.5402000000000  0.5328190000000  0.4499320000000 1.0
C      1  0.4619380000000  0.4729240000000  0.5743100000000 1.0
C      1  0.4626120000000  0.5280570000000  0.5747390000000 1.0
C      1  0.5151320000000  0.5446340000000  0.5746160000000 1.0
C      1  0.5470410000000  0.4998950000000  0.5745560000000 1.0
C      1  0.5139800000000  0.4555640000000  0.5747510000000 1.0
C      1  0.4389480000000  0.5631720000000  0.4286170000000 1.0
C      1  0.5294420000000  0.5793040000000  0.4289230000000 1.0
C      1  0.5754920000000  0.4759500000000  0.4275210000000 1.0
C      1  0.5125110000000  0.4256610000000  0.4260680000000 1.0
C      1  0.4371170000000  0.4718140000000  0.4255670000000 1.0
C      1  0.4963450000000  0.4730450000000  0.4282310000000 1.0
C      1  0.4540640000000  0.4913840000000  0.4107870000000 1.0
C      1  0.4810860000000  0.5298060000000  0.4256310000000 1.0
C      1  0.5286700000000  0.5258450000000  0.4227540000000 1.0
C      1  0.5246670000000  0.4770740000000  0.4262310000000 1.0
C      1  0.4819540000000  0.6020770000000  0.4902140000000 1.0
C      1  0.5895850000000  0.5450300000000  0.4862130000000 1.0
C      1  0.5750650000000  0.4242410000000  0.4931700000000 1.0
C      1  0.4549940000000  0.4094350000000  0.4866820000000 1.0
C      1  0.3987860000000  0.5162120000000  0.4893960000000 1.0
C      1  0.4882570000000  0.5221750000000  0.5238860000000 1.0
C      1  0.5171250000000  0.5185340000000  0.5232120000000 1.0
C      1  0.5229380000000  0.4901510000000  0.5237940000000 1.0
C      1  0.4976720000000  0.4756760000000  0.5237910000000 1.0
C      1  0.4761740000000  0.4954990000000  0.5242360000000 1.0
C      1  0.4992560000000  0.5926620000000  0.5281240000000 1.0
C      1  0.5877890000000  0.5292640000000  0.5262930000000 1.0
C      1  0.5543170000000  0.4255210000000  0.5294780000000 1.0
C      1  0.4468200000000  0.4251950000000  0.5260250000000 1.0
C      1  0.4124910000000  0.5282730000000  0.5276280000000 1.0
C      1  0.4789090000000  0.4876320000000  0.5541430000000 1.0
C      1  0.4816480000000  0.5168400000000  0.5540390000000 1.0
C      1  0.5101650000000  0.5231870000000  0.5539470000000 1.0
C      1  0.5250310000000  0.4979430000000  0.5539790000000 1.0
C      1  0.5056810000000  0.4759440000000  0.5540960000000 1.0
C      1  0.5394030000000  0.4775430000000  0.5038370000000 1.0
C      1  0.4906200000000  0.4564950000000  0.5031860000000 1.0
C      1  0.4552680000000  0.4966680000000  0.5045940000000 1.0
C      1  0.4824550000000  0.5426650000000  0.5039970000000 1.0
C      1  0.5345020000000  0.5304010000000  0.5034520000000 1.0
C      1  0.4315790000000  0.5536720000000  0.4841970000000 1.0
C      1  0.5252980000000  0.5797030000000  0.4825540000000 1.0
C      1  0.5843030000000  0.4953290000000  0.4819700000000 1.0
C      1  0.5260210000000  0.4178790000000  0.4828200000000 1.0
C      1  0.4330480000000  0.4530600000000  0.4802450000000 1.0
C      1  0.4042040000000  0.4876480000000  0.4936550000000 1.0
C      1  0.4563130000000  0.5897150000000  0.4959700000000 1.0
C      1  0.5696610000000  0.5666280000000  0.4931860000000 1.0
C      1  0.5855690000000  0.4515430000000  0.4965920000000 1.0
C      1  0.4832440000000  0.4048740000000  0.4926800000000 1.0
C      1  0.4669450000000  0.4437910000000  0.5707530000000 1.0
C      1  0.4365030000000  0.5139780000000  0.5716800000000 1.0
C      1  0.4938560000000  0.5651930000000  0.5721120000000 1.0
C      1  0.5602400000000  0.5263530000000  0.5709260000000 1.0
C      1  0.5431910000000  0.4517150000000  0.5727400000000 1.0
C      1  0.4908940000000  0.5270650000000  0.4775680000000 1.0
C      1  0.5226780000000  0.5189500000000  0.4769980000000 1.0
C      1  0.5237220000000  0.4859780000000  0.4773790000000 1.0
C      1  0.4928270000000  0.4749830000000  0.4777630000000 1.0
C      1  0.4724880000000  0.5006120000000  0.4783030000000 1.0
C      1  0.5244500000000  0.4997300000000  0.5952760000000 1.0
C      1  0.5069610000000  0.4768820000000  0.5953150000000 1.0
C      1  0.4799310000000  0.4862490000000  0.5953020000000 1.0
C      1  0.4807000000000  0.5149870000000  0.5954840000000 1.0
C      1  0.5082100000000  0.5232250000000  0.5952850000000 1.0
C      1  0.4358050000000  0.4853470000000  0.5689150000000 1.0
C      1  0.4664170000000  0.5568760000000  0.5698600000000 1.0
C      1  0.5436720000000  0.5497890000000  0.5688570000000 1.0
C      1  0.5606840000000  0.4743830000000  0.5700430000000 1.0
C      1  0.4940630000000  0.4345210000000  0.5686740000000 1.0
END
