TITL C-33991-6804-13 -164.658531520872 125000 -345.685567395365 0 0 52 (C1) n - 1
REM
REM in /rds/project/t2_vol4/rds-t2-cs072/BORA/CARBON/from-Arr/AIRSS/Generating-Clusters/GAP-ML-2020/Higher-Symm/SD-CG/HFTN-CG
REM
REM
REM
REM
REM
REM ./C.cell (b20cbc046b6831c77cfcea5457e17084)
REM AIRSS Version 0.9.1 bugfix July 2018 build 013d7b7c2542+ Fri, 06 Jul 2018 19:26:36 +0100
REM compiler GCC version 9.3.0
REM options -cpp -mtune=generic -march=x86-64 -g -O0
REM seed 932956850 -1164412206 -739461800 -737826214 1499571840 1107874665 85683108 -1735669049 -1255518145 2141629953 -128893246 351615384 -1844164444 1479218701 -2136487209 1171748426 -1173401424 238879164 1942620899 -157563506 -1004297570 -1194420482 1113995399 -1651152704 1229728819 1420880882 58316211 1263434056 875636126 -1755664586 -1683694724 -697432319 -1967212216
REM
CELL 1.54180   50.00000   50.00000   50.00000   90.00000   90.00000   90.00000
LATT -1
SFAC C  
C      1  0.4299580000000  0.5082490000000  0.4908140000000 1.0
C      1  0.4962950000000  0.5199100000000  0.4276450000000 1.0
C      1  0.5655000000000  0.5171780000000  0.4722360000000 1.0
C      1  0.5520880000000  0.5124560000000  0.5570260000000 1.0
C      1  0.4491970000000  0.4939310000000  0.5549960000000 1.0
C      1  0.5378960000000  0.4995980000000  0.5768150000000 1.0
C      1  0.4323190000000  0.4708010000000  0.5439990000000 1.0
C      1  0.4379300000000  0.4949600000000  0.4651750000000 1.0
C      1  0.5188030000000  0.5024700000000  0.4270290000000 1.0
C      1  0.5756420000000  0.4999800000000  0.4938620000000 1.0
C      1  0.4621530000000  0.5775170000000  0.4658510000000 1.0
C      1  0.4855720000000  0.5765810000000  0.4745930000000 1.0
C      1  0.5100920000000  0.5656540000000  0.4830470000000 1.0
C      1  0.5180280000000  0.5658770000000  0.5105480000000 1.0
C      1  0.5258080000000  0.5506940000000  0.5290100000000 1.0
C      1  0.5142130000000  0.4855070000000  0.5744820000000 1.0
C      1  0.4484420000000  0.4499350000000  0.5362580000000 1.0
C      1  0.4479850000000  0.4694460000000  0.4654690000000 1.0
C      1  0.5287490000000  0.4787500000000  0.4389970000000 1.0
C      1  0.5659330000000  0.4758180000000  0.5043030000000 1.0
C      1  0.5777220000000  0.4960790000000  0.5216110000000 1.0
C      1  0.4888170000000  0.4911160000000  0.5876420000000 1.0
C      1  0.4099500000000  0.4795760000000  0.5282910000000 1.0
C      1  0.4514070000000  0.5056870000000  0.4437690000000 1.0
C      1  0.5463960000000  0.5006710000000  0.4314720000000 1.0
C      1  0.5778360000000  0.5058020000000  0.5470560000000 1.0
C      1  0.4657500000000  0.4935810000000  0.5775180000000 1.0
C      1  0.4124220000000  0.4943290000000  0.5080260000000 1.0
C      1  0.4689590000000  0.5131520000000  0.4269750000000 1.0
C      1  0.5673480000000  0.5115540000000  0.4450720000000 1.0
C      1  0.5117710000000  0.4702030000000  0.5506210000000 1.0
C      1  0.4722560000000  0.4495720000000  0.5232510000000 1.0
C      1  0.4719770000000  0.4604190000000  0.4735710000000 1.0
C      1  0.5177980000000  0.4645600000000  0.4604380000000 1.0
C      1  0.5417620000000  0.4609800000000  0.5066320000000 1.0
C      1  0.4966550000000  0.5076030000000  0.4749770000000 1.0
C      1  0.5209360000000  0.5124190000000  0.4917970000000 1.0
C      1  0.5209140000000  0.5047390000000  0.5206600000000 1.0
C      1  0.4878950000000  0.5006440000000  0.5240190000000 1.0
C      1  0.4797390000000  0.5135500000000  0.4981240000000 1.0
C      1  0.4598780000000  0.5084710000000  0.5336060000000 1.0
C      1  0.4525260000000  0.5163150000000  0.5067800000000 1.0
C      1  0.5023050000000  0.5283360000000  0.4541430000000 1.0
C      1  0.5398480000000  0.5283450000000  0.4783240000000 1.0
C      1  0.5336790000000  0.5249740000000  0.5367490000000 1.0
C      1  0.4930680000000  0.4774060000000  0.4645170000000 1.0
C      1  0.5264320000000  0.4494220000000  0.4842480000000 1.0
C      1  0.5277160000000  0.4757000000000  0.5278170000000 1.0
C      1  0.4899670000000  0.4710000000000  0.5333290000000 1.0
C      1  0.4806290000000  0.4430510000000  0.4955950000000 1.0
C      1  0.5058140000000  0.4325010000000  0.4920820000000 1.0
C      1  0.5216220000000  0.5464060000000  0.4656600000000 1.0
END
