TITL C-34003-6569-8 -4.81947110483393 125000 -808.256845205468 0 0 115 (C1) n - 1
REM
REM in /rds/project/t2_vol4/rds-t2-cs072/BORA/CARBON/from-Arr/AIRSS/Generating-Clusters/GAP-ML-2020/Higher-Symm/SD-CG/HFTN-CG
REM
REM
REM
REM
REM
REM ./C.cell (b20cbc046b6831c77cfcea5457e17084)
REM AIRSS Version 0.9.1 bugfix July 2018 build 013d7b7c2542+ Fri, 06 Jul 2018 19:26:36 +0100
REM compiler GCC version 9.3.0
REM options -cpp -mtune=generic -march=x86-64 -g -O0
REM seed 935708562 1559722810 314991935 1985220636 1611645145 -503874972 892928906 77853148 -687363407 627652735 -669428406 -1603994881 145131900 1465434451 969392260 1969260365 524712801 9806743 552310379 -1053258708 -564413207 -190823166 174389529 -1868434476 -1493231867 1367363675 624526796 2072640922 1473015010 -161956250 -1495621434 467098954 1522350460
REM
CELL 1.54180   50.00000   50.00000   50.00000   90.00000   90.00000   90.00000
LATT -1
SFAC C  
C      1  0.4786960000000  0.5553210000000  0.4873040000000 1.0
C      1  0.5217030000000  0.4438210000000  0.5135090000000 1.0
C      1  0.5314950000000  0.4091630000000  0.4875690000000 1.0
C      1  0.4674360000000  0.5912610000000  0.5116880000000 1.0
C      1  0.5295230000000  0.5797220000000  0.4695210000000 1.0
C      1  0.4687240000000  0.4199620000000  0.5288070000000 1.0
C      1  0.4375600000000  0.4642500000000  0.5599550000000 1.0
C      1  0.5626760000000  0.5348260000000  0.4382290000000 1.0
C      1  0.5728870000000  0.5070020000000  0.4381510000000 1.0
C      1  0.4286620000000  0.4920440000000  0.5599350000000 1.0
C      1  0.4415390000000  0.5157500000000  0.5703360000000 1.0
C      1  0.5587800000000  0.4833080000000  0.4292800000000 1.0
C      1  0.5352260000000  0.5799970000000  0.5364760000000 1.0
C      1  0.4634420000000  0.4209950000000  0.4635730000000 1.0
C      1  0.4694010000000  0.5371140000000  0.5361160000000 1.0
C      1  0.5295950000000  0.4662790000000  0.4677940000000 1.0
C      1  0.4856330000000  0.4605420000000  0.4849550000000 1.0
C      1  0.5129040000000  0.5408630000000  0.5179520000000 1.0
C      1  0.5271090000000  0.5637380000000  0.5597680000000 1.0
C      1  0.4726660000000  0.4374070000000  0.4404800000000 1.0
C      1  0.4415140000000  0.4284590000000  0.5241010000000 1.0
C      1  0.5550050000000  0.5688250000000  0.4748180000000 1.0
C      1  0.4477560000000  0.5208010000000  0.4375770000000 1.0
C      1  0.5527700000000  0.4777450000000  0.5634650000000 1.0
C      1  0.4837820000000  0.5843590000000  0.4890690000000 1.0
C      1  0.5152560000000  0.4152250000000  0.5103620000000 1.0
C      1  0.5157500000000  0.4585180000000  0.5385560000000 1.0
C      1  0.4857870000000  0.5384560000000  0.4637560000000 1.0
C      1  0.5126830000000  0.4657320000000  0.4926360000000 1.0
C      1  0.4857030000000  0.5376200000000  0.5108080000000 1.0
C      1  0.4746630000000  0.4897950000000  0.5234990000000 1.0
C      1  0.5289480000000  0.5136570000000  0.4744940000000 1.0
C      1  0.5470720000000  0.4658740000000  0.5380210000000 1.0
C      1  0.4549940000000  0.5310250000000  0.4637580000000 1.0
C      1  0.4991970000000  0.5592620000000  0.5643080000000 1.0
C      1  0.5007900000000  0.4423940000000  0.4365660000000 1.0
C      1  0.4544250000000  0.4850070000000  0.4821430000000 1.0
C      1  0.5363910000000  0.5081840000000  0.5170230000000 1.0
C      1  0.5894500000000  0.5106020000000  0.4862810000000 1.0
C      1  0.4106220000000  0.4879370000000  0.5122770000000 1.0
C      1  0.4863800000000  0.5309550000000  0.5612490000000 1.0
C      1  0.5132360000000  0.4701500000000  0.4408080000000 1.0
C      1  0.4312140000000  0.5586180000000  0.5005380000000 1.0
C      1  0.5693020000000  0.4406700000000  0.4987840000000 1.0
C      1  0.5096150000000  0.4555380000000  0.5829550000000 1.0
C      1  0.4896360000000  0.5432130000000  0.4166670000000 1.0
C      1  0.5116110000000  0.4078830000000  0.4669060000000 1.0
C      1  0.4875100000000  0.5928280000000  0.5322870000000 1.0
C      1  0.5541730000000  0.4863320000000  0.5110250000000 1.0
C      1  0.4491910000000  0.5120520000000  0.4884270000000 1.0
C      1  0.5118600000000  0.4981240000000  0.5829590000000 1.0
C      1  0.4879390000000  0.5010400000000  0.4185020000000 1.0
C      1  0.4399190000000  0.4290040000000  0.4757420000000 1.0
C      1  0.5566630000000  0.5684510000000  0.5241450000000 1.0
C      1  0.5296750000000  0.4760400000000  0.5827460000000 1.0
C      1  0.4696550000000  0.5225910000000  0.4173860000000 1.0
C      1  0.4450440000000  0.5752340000000  0.5197030000000 1.0
C      1  0.5543110000000  0.4251340000000  0.4798100000000 1.0
C      1  0.5153800000000  0.5053100000000  0.4093920000000 1.0
C      1  0.4841950000000  0.4934620000000  0.5907630000000 1.0
C      1  0.4791600000000  0.5763560000000  0.5534970000000 1.0
C      1  0.5207880000000  0.4254540000000  0.4467370000000 1.0
C      1  0.5213420000000  0.5658680000000  0.4450200000000 1.0
C      1  0.4777310000000  0.4331390000000  0.5533650000000 1.0
C      1  0.4280610000000  0.4498920000000  0.5377250000000 1.0
C      1  0.5710920000000  0.5495040000000  0.4610140000000 1.0
C      1  0.4154870000000  0.5295390000000  0.5350410000000 1.0
C      1  0.5858610000000  0.4693250000000  0.4634850000000 1.0
C      1  0.5368620000000  0.5467250000000  0.4293720000000 1.0
C      1  0.4628510000000  0.4523030000000  0.5687950000000 1.0
C      1  0.4335400000000  0.4736200000000  0.4328730000000 1.0
C      1  0.5659740000000  0.5255430000000  0.5668620000000 1.0
C      1  0.4672850000000  0.4709910000000  0.5040990000000 1.0
C      1  0.5334190000000  0.5317530000000  0.4981850000000 1.0
C      1  0.5667800000000  0.4597000000000  0.4445980000000 1.0
C      1  0.4342290000000  0.5393850000000  0.5543000000000 1.0
C      1  0.4685310000000  0.5152250000000  0.5804110000000 1.0
C      1  0.5314880000000  0.4842550000000  0.4205840000000 1.0
C      1  0.5877840000000  0.4919200000000  0.5358800000000 1.0
C      1  0.4121440000000  0.5071950000000  0.4637240000000 1.0
C      1  0.5444100000000  0.4886320000000  0.4784930000000 1.0
C      1  0.4664540000000  0.5155180000000  0.5136160000000 1.0
C      1  0.4276490000000  0.4995260000000  0.4423250000000 1.0
C      1  0.5728020000000  0.4996540000000  0.5579040000000 1.0
C      1  0.5058610000000  0.4404050000000  0.5593710000000 1.0
C      1  0.4936300000000  0.5569170000000  0.4410730000000 1.0
C      1  0.5443740000000  0.5399360000000  0.5593800000000 1.0
C      1  0.4561730000000  0.4606130000000  0.4387270000000 1.0
C      1  0.5809330000000  0.5370890000000  0.4858280000000 1.0
C      1  0.4154360000000  0.4600110000000  0.5131510000000 1.0
C      1  0.4867880000000  0.4101570000000  0.5079130000000 1.0
C      1  0.5121190000000  0.5898700000000  0.4908820000000 1.0
C      1  0.5277940000000  0.5236920000000  0.5408670000000 1.0
C      1  0.4712150000000  0.4757760000000  0.4604140000000 1.0
C      1  0.4278750000000  0.4365220000000  0.4984160000000 1.0
C      1  0.5587020000000  0.5531090000000  0.5007780000000 1.0
C      1  0.5027570000000  0.5133310000000  0.4652650000000 1.0
C      1  0.4998110000000  0.4862310000000  0.5362480000000 1.0
C      1  0.5172450000000  0.5335260000000  0.4120520000000 1.0
C      1  0.4823860000000  0.4653950000000  0.5866220000000 1.0
C      1  0.4926350000000  0.4909380000000  0.4472260000000 1.0
C      1  0.5071990000000  0.5099190000000  0.5556170000000 1.0
C      1  0.4487410000000  0.5548810000000  0.4794390000000 1.0
C      1  0.5521170000000  0.4433050000000  0.5207070000000 1.0
C      1  0.5847800000000  0.4885570000000  0.5075610000000 1.0
C      1  0.4162350000000  0.5108600000000  0.4916260000000 1.0
C      1  0.4848930000000  0.4086560000000  0.4789140000000 1.0
C      1  0.5142120000000  0.5920650000000  0.5201200000000 1.0
C      1  0.5858040000000  0.4623710000000  0.4906920000000 1.0
C      1  0.4146420000000  0.5367850000000  0.5079690000000 1.0
C      1  0.5890060000000  0.4978520000000  0.4603300000000 1.0
C      1  0.4131100000000  0.5009660000000  0.5376240000000 1.0
C      1  0.5463580000000  0.4407320000000  0.4566980000000 1.0
C      1  0.4527680000000  0.5611940000000  0.5441720000000 1.0
C      1  0.5126090000000  0.4908700000000  0.5112850000000 1.0
END
