TITL C-34004-7039-6 0.0442396819485048 125000 -267.301357133972 0 0 40 (Cs) n - 1
REM
REM in /rds/project/t2_vol4/rds-t2-cs072/BORA/CARBON/from-Arr/AIRSS/Generating-Clusters/GAP-ML-2020/Higher-Symm/SD-CG/HFTN-CG
REM
REM
REM
REM
REM
REM ./C.cell (b20cbc046b6831c77cfcea5457e17084)
REM AIRSS Version 0.9.1 bugfix July 2018 build 013d7b7c2542+ Fri, 06 Jul 2018 19:26:36 +0100
REM compiler GCC version 9.3.0
REM options -cpp -mtune=generic -march=x86-64 -g -O0
REM seed -672558063 -1955476553 461024490 -2122208318 -457480663 -126785527 299337497 -2112645702 -333429394 -932055641 -925565198 734203498 1332966311 1727886370 1789250005 100332255 -1681377188 -1216183741 712676023 1713110409 -746770669 528831597 1745443645 -2024037518 -1343342458 1059823003 -750896532 2134752639 755324425 230393610 -588731587 1211959718 -1937411833
REM
CELL 1.54180   50.00000   50.00000   50.00000   90.00000   90.00000   90.00000
LATT -1
SFAC C  
C      1  0.5123990000000  0.5097000000000  0.4770180000000 1.0
C      1  0.5056450000000  0.4806390000000  0.4820300000000 1.0
C      1  0.5069000000000  0.4769450000000  0.5122670000000 1.0
C      1  0.5143300000000  0.5040160000000  0.5235480000000 1.0
C      1  0.5055690000000  0.5224950000000  0.5025170000000 1.0
C      1  0.4785500000000  0.4689700000000  0.4706510000000 1.0
C      1  0.4807100000000  0.4626140000000  0.5226820000000 1.0
C      1  0.4658510000000  0.5096800000000  0.5504120000000 1.0
C      1  0.4637890000000  0.5494830000000  0.5075480000000 1.0
C      1  0.4619480000000  0.5211700000000  0.4563530000000 1.0
C      1  0.5525050000000  0.4772590000000  0.5192320000000 1.0
C      1  0.5534900000000  0.5283990000000  0.5150620000000 1.0
C      1  0.5523620000000  0.5317190000000  0.4878890000000 1.0
C      1  0.5505300000000  0.4830730000000  0.4716460000000 1.0
C      1  0.5641010000000  0.4744690000000  0.4942210000000 1.0
C      1  0.5173170000000  0.4551730000000  0.5506590000000 1.0
C      1  0.5046830000000  0.5112920000000  0.5505620000000 1.0
C      1  0.5066620000000  0.5517630000000  0.5060470000000 1.0
C      1  0.5006520000000  0.5231580000000  0.4534250000000 1.0
C      1  0.5126750000000  0.4688360000000  0.4388130000000 1.0
C      1  0.4580410000000  0.4788100000000  0.5136070000000 1.0
C      1  0.4545040000000  0.5039630000000  0.5255210000000 1.0
C      1  0.4523780000000  0.5239210000000  0.5048990000000 1.0
C      1  0.4526140000000  0.5095260000000  0.4799810000000 1.0
C      1  0.4568610000000  0.4822840000000  0.4851720000000 1.0
C      1  0.4823190000000  0.4411670000000  0.4808600000000 1.0
C      1  0.4901350000000  0.4647790000000  0.5509570000000 1.0
C      1  0.4840260000000  0.5319380000000  0.5477180000000 1.0
C      1  0.4826760000000  0.5561410000000  0.4860810000000 1.0
C      1  0.4816970000000  0.5050650000000  0.4410950000000 1.0
C      1  0.5348420000000  0.5483220000000  0.5044570000000 1.0
C      1  0.5410980000000  0.5096510000000  0.4740910000000 1.0
C      1  0.5258500000000  0.4690310000000  0.4619670000000 1.0
C      1  0.5285590000000  0.4610580000000  0.5272340000000 1.0
C      1  0.5431710000000  0.5035510000000  0.5240240000000 1.0
C      1  0.4844310000000  0.5509750000000  0.5283700000000 1.0
C      1  0.4805020000000  0.5423090000000  0.4628240000000 1.0
C      1  0.4856570000000  0.4779600000000  0.4430520000000 1.0
C      1  0.4833550000000  0.4381180000000  0.5058180000000 1.0
C      1  0.4866190000000  0.4905770000000  0.5596870000000 1.0
END
