TITL C-34003-6569-7 -0.026972327408566 125000 -70.6785949288607 0 0 12 (C2) n - 1
REM
REM in /rds/project/t2_vol4/rds-t2-cs072/BORA/CARBON/from-Arr/AIRSS/Generating-Clusters/GAP-ML-2020/Higher-Symm/SD-CG/HFTN-CG
REM
REM
REM
REM
REM
REM ./C.cell (b20cbc046b6831c77cfcea5457e17084)
REM AIRSS Version 0.9.1 bugfix July 2018 build 013d7b7c2542+ Fri, 06 Jul 2018 19:26:36 +0100
REM compiler GCC version 9.3.0
REM options -cpp -mtune=generic -march=x86-64 -g -O0
REM seed 831497499 -1677817974 -228906401 -1602508893 -375114588 258319092 1486393549 -752230091 765320702 -1556435931 494781298 1135482009 1971894713 -338396867 598409420 -1359412425 -342841530 704908754 -1843652863 2069072455 -1253668385 -1576700883 -1562232005 -983001455 -734723936 1451300309 -800516168 1504201690 -1153943615 -614900534 -203938249 633246265 -1315454888
REM
CELL 1.54180   50.00000   50.00000   50.00000   90.00000   90.00000   90.00000
LATT -1
SFAC C  
C      1  0.4862050000000  0.4612590000000  0.4837270000000 1.0
C      1  0.5154120000000  0.5384190000000  0.4844300000000 1.0
C      1  0.4882850000000  0.4551140000000  0.5112090000000 1.0
C      1  0.5105660000000  0.5451150000000  0.5114310000000 1.0
C      1  0.4859330000000  0.5323460000000  0.4829640000000 1.0
C      1  0.5156870000000  0.4673320000000  0.4851320000000 1.0
C      1  0.4813660000000  0.5383720000000  0.5098720000000 1.0
C      1  0.5174980000000  0.4618540000000  0.5124800000000 1.0
C      1  0.5109080000000  0.4906280000000  0.5054860000000 1.0
C      1  0.4886020000000  0.5094700000000  0.5041620000000 1.0
C      1  0.5192720000000  0.5173580000000  0.5053690000000 1.0
C      1  0.4802660000000  0.4827340000000  0.5037380000000 1.0
END
