TITL C-34007-7361-3 -0.0959895680835809 125000 -586.940530943775 0 0 85 (C1) n - 1
REM
REM in /rds/project/t2_vol4/rds-t2-cs072/BORA/CARBON/from-Arr/AIRSS/Generating-Clusters/GAP-ML-2020/Higher-Symm/SD-CG/HFTN-CG
REM
REM
REM
REM
REM
REM ./C.cell (b20cbc046b6831c77cfcea5457e17084)
REM AIRSS Version 0.9.1 bugfix July 2018 build 013d7b7c2542+ Fri, 06 Jul 2018 19:26:36 +0100
REM compiler GCC version 9.3.0
REM options -cpp -mtune=generic -march=x86-64 -g -O0
REM seed 2086264714 -1325741740 1132370183 98987508 -1443169915 1463342888 249939756 -185969669 -1861096876 1424691575 1648007087 1158172450 -1894641082 1302460205 69209984 981010776 72858412 803364427 731053011 -454672041 975462047 1856620259 -253195235 2116479777 -124258496 2056018893 529846012 518770102 895851110 1980447402 37084007 -1558760808 1277551447
REM
CELL 1.54180   50.00000   50.00000   50.00000   90.00000   90.00000   90.00000
LATT -1
SFAC C  
C      1  0.5207820000000  0.4759670000000  0.5307390000000 1.0
C      1  0.4785660000000  0.4713530000000  0.5102850000000 1.0
C      1  0.4384690000000  0.4822150000000  0.4838230000000 1.0
C      1  0.4873110000000  0.4749800000000  0.4843770000000 1.0
C      1  0.5314810000000  0.4955010000000  0.4895080000000 1.0
C      1  0.5134640000000  0.4762980000000  0.4781600000000 1.0
C      1  0.4687380000000  0.4954010000000  0.4739150000000 1.0
C      1  0.4440240000000  0.4677330000000  0.5098670000000 1.0
C      1  0.4957680000000  0.4872460000000  0.5256700000000 1.0
C      1  0.5407100000000  0.4854130000000  0.5142520000000 1.0
C      1  0.5065400000000  0.4274400000000  0.4494310000000 1.0
C      1  0.5449660000000  0.4307930000000  0.4870790000000 1.0
C      1  0.5270900000000  0.4284940000000  0.5390560000000 1.0
C      1  0.4738950000000  0.4309910000000  0.5351350000000 1.0
C      1  0.4639180000000  0.4205880000000  0.4808260000000 1.0
C      1  0.5005340000000  0.4311720000000  0.5470830000000 1.0
C      1  0.5436790000000  0.4292720000000  0.5145990000000 1.0
C      1  0.5311670000000  0.4296680000000  0.4610390000000 1.0
C      1  0.4788090000000  0.4256030000000  0.4579970000000 1.0
C      1  0.4620110000000  0.4226170000000  0.5109250000000 1.0
C      1  0.5516780000000  0.4984360000000  0.4453570000000 1.0
C      1  0.5640660000000  0.4989540000000  0.5303280000000 1.0
C      1  0.4927850000000  0.4988460000000  0.5774180000000 1.0
C      1  0.4269890000000  0.5084950000000  0.5198690000000 1.0
C      1  0.4659960000000  0.4965820000000  0.4427110000000 1.0
C      1  0.5506910000000  0.4976930000000  0.5564810000000 1.0
C      1  0.5624130000000  0.4982600000000  0.4730750000000 1.0
C      1  0.4930660000000  0.4974050000000  0.4287750000000 1.0
C      1  0.4235210000000  0.5066710000000  0.4905590000000 1.0
C      1  0.4655970000000  0.5024420000000  0.5674410000000 1.0
C      1  0.4384130000000  0.4397010000000  0.5058070000000 1.0
C      1  0.4713920000000  0.4465260000000  0.4371130000000 1.0
C      1  0.5481670000000  0.4511780000000  0.4497740000000 1.0
C      1  0.5623080000000  0.4483920000000  0.5285620000000 1.0
C      1  0.4921410000000  0.4519350000000  0.5666030000000 1.0
C      1  0.4388510000000  0.4359830000000  0.4770230000000 1.0
C      1  0.4656400000000  0.4539060000000  0.5547910000000 1.0
C      1  0.5456480000000  0.4481910000000  0.5523380000000 1.0
C      1  0.5633440000000  0.4512360000000  0.4742760000000 1.0
C      1  0.4991810000000  0.4486970000000  0.4295160000000 1.0
C      1  0.4733280000000  0.5697330000000  0.4625620000000 1.0
C      1  0.5277180000000  0.5682630000000  0.4633970000000 1.0
C      1  0.5451830000000  0.5671330000000  0.5141500000000 1.0
C      1  0.5020330000000  0.5682190000000  0.5466470000000 1.0
C      1  0.4589430000000  0.5746700000000  0.5147790000000 1.0
C      1  0.4761160000000  0.5723170000000  0.5385570000000 1.0
C      1  0.5294150000000  0.5660530000000  0.5368190000000 1.0
C      1  0.5443320000000  0.5678500000000  0.4852360000000 1.0
C      1  0.4996440000000  0.5683580000000  0.4540690000000 1.0
C      1  0.4574790000000  0.5717560000000  0.4869010000000 1.0
C      1  0.5389840000000  0.4741090000000  0.4365320000000 1.0
C      1  0.5684760000000  0.4727940000000  0.5154430000000 1.0
C      1  0.5070960000000  0.4738350000000  0.5751220000000 1.0
C      1  0.4354130000000  0.4834680000000  0.5321410000000 1.0
C      1  0.4543230000000  0.4677430000000  0.4413720000000 1.0
C      1  0.5335100000000  0.4734790000000  0.5593720000000 1.0
C      1  0.5735450000000  0.4736450000000  0.4859820000000 1.0
C      1  0.5107930000000  0.4738580000000  0.4275130000000 1.0
C      1  0.4375640000000  0.4609640000000  0.4637640000000 1.0
C      1  0.4521920000000  0.4794620000000  0.5550230000000 1.0
C      1  0.5365160000000  0.5472620000000  0.5579020000000 1.0
C      1  0.4578040000000  0.5556770000000  0.5546620000000 1.0
C      1  0.4374130000000  0.5531570000000  0.4747470000000 1.0
C      1  0.5061940000000  0.5485460000000  0.4335170000000 1.0
C      1  0.5675750000000  0.5491060000000  0.4838870000000 1.0
C      1  0.5349880000000  0.5487060000000  0.4429100000000 1.0
C      1  0.4546380000000  0.5505730000000  0.4493320000000 1.0
C      1  0.4409620000000  0.5571490000000  0.5301660000000 1.0
C      1  0.5076840000000  0.5486810000000  0.5682810000000 1.0
C      1  0.5682420000000  0.5490940000000  0.5147790000000 1.0
C      1  0.5370710000000  0.5208970000000  0.4378510000000 1.0
C      1  0.5738300000000  0.5213790000000  0.5152380000000 1.0
C      1  0.5098100000000  0.5212150000000  0.5762020000000 1.0
C      1  0.4457750000000  0.5285270000000  0.5279340000000 1.0
C      1  0.4475420000000  0.5225970000000  0.4465130000000 1.0
C      1  0.5374320000000  0.5199300000000  0.5662640000000 1.0
C      1  0.5734160000000  0.5213610000000  0.4856870000000 1.0
C      1  0.5089820000000  0.5205690000000  0.4286210000000 1.0
C      1  0.4290190000000  0.5263870000000  0.4707950000000 1.0
C      1  0.4573380000000  0.5273160000000  0.5564310000000 1.0
C      1  0.4738680000000  0.5277560000000  0.5122770000000 1.0
C      1  0.4760650000000  0.5232660000000  0.4842160000000 1.0
C      1  0.5031130000000  0.5290800000000  0.4764380000000 1.0
C      1  0.5173080000000  0.5193690000000  0.4979990000000 1.0
C      1  0.4975160000000  0.5150390000000  0.5203910000000 1.0
END
