TITL C-35345-9010-6 0.0792739415835022 125000 -436.91187589717 0 0 65 (D5) n - 1
REM
REM in /rds/project/t2_vol4/rds-t2-cs072/BORA/CARBON/from-Arr/AIRSS/Generating-Clusters/GAP-ML-2020/Higher-Symm/SD-CG/HFTN-CG
REM
REM
REM
REM
REM
REM ./C.cell (b20cbc046b6831c77cfcea5457e17084)
REM AIRSS Version 0.9.1 bugfix July 2018 build 013d7b7c2542+ Fri, 06 Jul 2018 19:26:36 +0100
REM compiler GCC version 9.3.0
REM options -cpp -mtune=generic -march=x86-64 -g -O0
REM seed -1507027913 -139761359 -1921488378 1876786853 1920441350 -2084404347 557327603 479617284 740031798 585895112 633670542 -140830301 1644976676 -622251476 1972410504 -2120012711 1348293190 -1252710602 -1168826415 -1858173609 454767823 58880010 -354673113 -891807663 1300673359 -1306903112 -1512739261 2114850563 400954804 602429646 -85346968 -150350379 1280268111
REM
CELL 1.54180   50.00000   50.00000   50.00000   90.00000   90.00000   90.00000
LATT -1
SFAC C  
C      1  0.4758500000000  0.4227510000000  0.4942090000000 1.0
C      1  0.4980490000000  0.4227450000000  0.4752600000000 1.0
C      1  0.5229310000000  0.4227440000000  0.4905180000000 1.0
C      1  0.5161090000000  0.4227500000000  0.5188960000000 1.0
C      1  0.4870110000000  0.4227540000000  0.5211780000000 1.0
C      1  0.5241490000000  0.5756150000000  0.4941820000000 1.0
C      1  0.5019470000000  0.5756150000000  0.4752350000000 1.0
C      1  0.4770680000000  0.5756200000000  0.4904960000000 1.0
C      1  0.4838930000000  0.5756240000000  0.5188740000000 1.0
C      1  0.5129920000000  0.5756210000000  0.5211520000000 1.0
C      1  0.4546790000000  0.5601760000000  0.4824300000000 1.0
C      1  0.5027010000000  0.5601650000000  0.4514530000000 1.0
C      1  0.5470020000000  0.5601650000000  0.4875530000000 1.0
C      1  0.5263580000000  0.5601760000000  0.5408410000000 1.0
C      1  0.4693000000000  0.5601830000000  0.5376750000000 1.0
C      1  0.5453190000000  0.4381860000000  0.4824440000000 1.0
C      1  0.4972920000000  0.4381880000000  0.4514730000000 1.0
C      1  0.4529960000000  0.4381990000000  0.4875790000000 1.0
C      1  0.4736470000000  0.4382050000000  0.5408640000000 1.0
C      1  0.5307050000000  0.4381970000000  0.5376900000000 1.0
C      1  0.5230110000000  0.4664600000000  0.5453210000000 1.0
C      1  0.4640100000000  0.4664660000000  0.5358970000000 1.0
C      1  0.4547400000000  0.4664580000000  0.4768720000000 1.0
C      1  0.5080120000000  0.4664460000000  0.4498160000000 1.0
C      1  0.5502060000000  0.4664480000000  0.4921200000000 1.0
C      1  0.4769950000000  0.5319230000000  0.5453140000000 1.0
C      1  0.5359950000000  0.5319140000000  0.5358820000000 1.0
C      1  0.5452570000000  0.5319030000000  0.4768550000000 1.0
C      1  0.4919810000000  0.5319050000000  0.4498070000000 1.0
C      1  0.4497930000000  0.5319180000000  0.4921160000000 1.0
C      1  0.4752420000000  0.5146250000000  0.4934710000000 1.0
C      1  0.4985570000000  0.5146190000000  0.4744320000000 1.0
C      1  0.5238690000000  0.5146180000000  0.4907240000000 1.0
C      1  0.5161980000000  0.5146240000000  0.5198310000000 1.0
C      1  0.4861440000000  0.5146280000000  0.5215290000000 1.0
C      1  0.5247570000000  0.4837410000000  0.4934730000000 1.0
C      1  0.5014390000000  0.4837410000000  0.4744370000000 1.0
C      1  0.4761290000000  0.4837470000000  0.4907320000000 1.0
C      1  0.4838050000000  0.4837510000000  0.5198380000000 1.0
C      1  0.5138590000000  0.4837470000000  0.5215320000000 1.0
C      1  0.5410030000000  0.5255430000000  0.4475970000000 1.0
C      1  0.5625080000000  0.5255520000000  0.5227960000000 1.0
C      1  0.4976340000000  0.5255670000000  0.5664860000000 1.0
C      1  0.4360350000000  0.5255680000000  0.5182890000000 1.0
C      1  0.4628380000000  0.5255520000000  0.4448110000000 1.0
C      1  0.4589900000000  0.4728090000000  0.4476100000000 1.0
C      1  0.4374950000000  0.4728230000000  0.5228130000000 1.0
C      1  0.5023750000000  0.4728220000000  0.5664950000000 1.0
C      1  0.5639680000000  0.4728060000000  0.5182890000000 1.0
C      1  0.5371540000000  0.4727980000000  0.4448140000000 1.0
C      1  0.5178430000000  0.5418170000000  0.4386270000000 1.0
C      1  0.5638800000000  0.5418200000000  0.4979950000000 1.0
C      1  0.5216450000000  0.5418360000000  0.5601240000000 1.0
C      1  0.4495050000000  0.5418420000000  0.5391550000000 1.0
C      1  0.4471550000000  0.5418300000000  0.4640650000000 1.0
C      1  0.4821490000000  0.4565320000000  0.4386430000000 1.0
C      1  0.4361190000000  0.4565470000000  0.4980170000000 1.0
C      1  0.4783630000000  0.4565520000000  0.5601410000000 1.0
C      1  0.5505010000000  0.4565390000000  0.5391620000000 1.0
C      1  0.5528400000000  0.4565260000000  0.4640720000000 1.0
C      1  0.5661170000000  0.4991790000000  0.5214780000000 1.0
C      1  0.4338850000000  0.4991960000000  0.5214870000000 1.0
C      1  0.5000050000000  0.4991950000000  0.5695190000000 1.0
C      1  0.4591340000000  0.4991800000000  0.4437610000000 1.0
C      1  0.5408580000000  0.4991700000000  0.4437560000000 1.0
END
