TITL C-35890-4239-2 -6.80279895547948 125000 -1343.79812872436 0 0 189 (C1) n - 1
REM
REM in /rds/project/t2_vol4/rds-t2-cs072/BORA/CARBON/from-Arr/AIRSS/Generating-Clusters/GAP-ML-2020/Higher-Symm/SD-CG/HFTN-CG/C160-200
REM
REM
REM
REM
REM
REM ./C.cell (6b4489405718ea1b717e0baf1da4c2d9)
REM AIRSS Version 0.9.1 bugfix July 2018 build 013d7b7c2542+ Fri, 06 Jul 2018 19:26:36 +0100
REM compiler GCC version 9.3.0
REM options -cpp -mtune=generic -march=x86-64 -g -O0
REM seed -1588860245 -1275447328 -2109819178 -1517240298 -1016425043 1600312408 -409741889 1996378104 1144781460 -1625636200 1085303573 1177892211 -241023710 453306403 -1856454631 -429985104 -335433619 -938017322 -1614929311 -883976442 112466920 -871715987 -561119072 744805080 -770708146 -1372621162 599847720 1465052669 -1519428841 364268884 1621503150 -1636182800 -141936239
REM
CELL 1.54180   50.00000   50.00000   50.00000   90.00000   90.00000   90.00000
LATT -1
SFAC C  
C      1  0.5125400000000  0.4510180000000  0.4651710000000 1.0
C      1  0.5158030000000  0.4526630000000  0.5336810000000 1.0
C      1  0.4650140000000  0.4556180000000  0.4972800000000 1.0
C      1  0.5103410000000  0.5480930000000  0.4706090000000 1.0
C      1  0.5204510000000  0.5450960000000  0.5327190000000 1.0
C      1  0.4629670000000  0.5466460000000  0.4939540000000 1.0
C      1  0.5310670000000  0.4013230000000  0.4389490000000 1.0
C      1  0.5265950000000  0.4043780000000  0.5541460000000 1.0
C      1  0.4402560000000  0.4042170000000  0.5042300000000 1.0
C      1  0.5266880000000  0.5937760000000  0.4488750000000 1.0
C      1  0.5311070000000  0.5934820000000  0.5577010000000 1.0
C      1  0.4336640000000  0.5937270000000  0.4958950000000 1.0
C      1  0.5583970000000  0.4676970000000  0.6001900000000 1.0
C      1  0.3848060000000  0.4680970000000  0.5005190000000 1.0
C      1  0.5592090000000  0.4705070000000  0.4010470000000 1.0
C      1  0.5626250000000  0.5284810000000  0.5995560000000 1.0
C      1  0.3834360000000  0.5287300000000  0.5028470000000 1.0
C      1  0.5550710000000  0.5317500000000  0.3990790000000 1.0
C      1  0.4315370000000  0.5150410000000  0.4903160000000 1.0
C      1  0.5420540000000  0.5157970000000  0.4459170000000 1.0
C      1  0.5298520000000  0.5152740000000  0.5642450000000 1.0
C      1  0.4352040000000  0.4863450000000  0.4920820000000 1.0
C      1  0.5406600000000  0.4859640000000  0.4482040000000 1.0
C      1  0.5265640000000  0.4886030000000  0.5532940000000 1.0
C      1  0.4826400000000  0.4774510000000  0.5077120000000 1.0
C      1  0.5215170000000  0.4703540000000  0.4851060000000 1.0
C      1  0.5117310000000  0.4726400000000  0.5121210000000 1.0
C      1  0.4817010000000  0.5257670000000  0.5068560000000 1.0
C      1  0.5205740000000  0.5257210000000  0.4851890000000 1.0
C      1  0.5109680000000  0.5255500000000  0.5135060000000 1.0
C      1  0.4685500000000  0.4412670000000  0.4177760000000 1.0
C      1  0.5857150000000  0.4358200000000  0.5133500000000 1.0
C      1  0.4456660000000  0.4443600000000  0.5699570000000 1.0
C      1  0.4674930000000  0.5583840000000  0.4150060000000 1.0
C      1  0.5892760000000  0.5619660000000  0.5180320000000 1.0
C      1  0.4423800000000  0.5586290000000  0.5676030000000 1.0
C      1  0.5792630000000  0.4835850000000  0.5865160000000 1.0
C      1  0.3856030000000  0.4848990000000  0.5249730000000 1.0
C      1  0.5372480000000  0.4867920000000  0.3891770000000 1.0
C      1  0.5826730000000  0.5123060000000  0.5866260000000 1.0
C      1  0.3844210000000  0.5133130000000  0.5268650000000 1.0
C      1  0.5346800000000  0.5153770000000  0.3874590000000 1.0
C      1  0.3810350000000  0.4947610000000  0.4557040000000 1.0
C      1  0.5962280000000  0.4996650000000  0.4234440000000 1.0
C      1  0.5217020000000  0.4972010000000  0.6240820000000 1.0
C      1  0.3905340000000  0.5196540000000  0.4572280000000 1.0
C      1  0.5907200000000  0.5252460000000  0.4307100000000 1.0
C      1  0.5172670000000  0.5217710000000  0.6143910000000 1.0
C      1  0.5888440000000  0.5255030000000  0.5627170000000 1.0
C      1  0.4028340000000  0.5267100000000  0.5431010000000 1.0
C      1  0.5103160000000  0.5276690000000  0.3940600000000 1.0
C      1  0.5849660000000  0.4707860000000  0.5622460000000 1.0
C      1  0.4036970000000  0.4734820000000  0.5435630000000 1.0
C      1  0.5121520000000  0.4737230000000  0.3932050000000 1.0
C      1  0.4053930000000  0.4521440000000  0.4601800000000 1.0
C      1  0.5858830000000  0.4516290000000  0.4376970000000 1.0
C      1  0.5130230000000  0.4547370000000  0.6037610000000 1.0
C      1  0.4042190000000  0.5433850000000  0.4529370000000 1.0
C      1  0.5874840000000  0.5501110000000  0.4439140000000 1.0
C      1  0.5046330000000  0.5454890000000  0.6067360000000 1.0
C      1  0.5390880000000  0.4021120000000  0.4848320000000 1.0
C      1  0.4791010000000  0.3971050000000  0.5553320000000 1.0
C      1  0.4670210000000  0.3968250000000  0.4663590000000 1.0
C      1  0.5458240000000  0.5985470000000  0.4909270000000 1.0
C      1  0.4852510000000  0.5938450000000  0.5453880000000 1.0
C      1  0.4598090000000  0.6032800000000  0.4556870000000 1.0
C      1  0.5547520000000  0.4438290000000  0.5859170000000 1.0
C      1  0.3998630000000  0.4454110000000  0.5060580000000 1.0
C      1  0.5476970000000  0.4465300000000  0.4091550000000 1.0
C      1  0.5540090000000  0.5522740000000  0.5874860000000 1.0
C      1  0.3974370000000  0.5526490000000  0.5026410000000 1.0
C      1  0.5467060000000  0.5551210000000  0.4113700000000 1.0
C      1  0.5658900000000  0.4482590000000  0.5581930000000 1.0
C      1  0.4184740000000  0.4520780000000  0.5297140000000 1.0
C      1  0.5173100000000  0.4516970000000  0.4119230000000 1.0
C      1  0.5684020000000  0.5481140000000  0.5596250000000 1.0
C      1  0.4159020000000  0.5485510000000  0.5274910000000 1.0
C      1  0.5161250000000  0.5499420000000  0.4140450000000 1.0
C      1  0.4720650000000  0.4384570000000  0.5807170000000 1.0
C      1  0.4475800000000  0.4338680000000  0.4376710000000 1.0
C      1  0.5826000000000  0.4284950000000  0.4840960000000 1.0
C      1  0.4674980000000  0.5657510000000  0.5809800000000 1.0
C      1  0.4440690000000  0.5643390000000  0.4315330000000 1.0
C      1  0.5861980000000  0.5718840000000  0.4889040000000 1.0
C      1  0.5994040000000  0.4614040000000  0.5145620000000 1.0
C      1  0.4393910000000  0.4719530000000  0.5770440000000 1.0
C      1  0.4646690000000  0.4693850000000  0.4078220000000 1.0
C      1  0.5988760000000  0.5341910000000  0.5176420000000 1.0
C      1  0.4376960000000  0.5310370000000  0.5756560000000 1.0
C      1  0.4637760000000  0.5304570000000  0.4058100000000 1.0
C      1  0.4789430000000  0.4875540000000  0.5539470000000 1.0
C      1  0.4650820000000  0.4858740000000  0.4526130000000 1.0
C      1  0.5689610000000  0.4839390000000  0.4916730000000 1.0
C      1  0.4794710000000  0.5188240000000  0.5542380000000 1.0
C      1  0.4649100000000  0.5167050000000  0.4513940000000 1.0
C      1  0.5663070000000  0.5141050000000  0.4927170000000 1.0
C      1  0.5932410000000  0.5508160000000  0.4719280000000 1.0
C      1  0.4781920000000  0.5437800000000  0.5958900000000 1.0
C      1  0.4315070000000  0.5405470000000  0.4416560000000 1.0
C      1  0.5930320000000  0.4491860000000  0.4663970000000 1.0
C      1  0.4890220000000  0.4618630000000  0.5856470000000 1.0
C      1  0.4332400000000  0.4576580000000  0.4472810000000 1.0
C      1  0.4015590000000  0.5176140000000  0.4839470000000 1.0
C      1  0.5634940000000  0.5200400000000  0.4234350000000 1.0
C      1  0.5371960000000  0.5174860000000  0.5939440000000 1.0
C      1  0.3862770000000  0.4716130000000  0.4696600000000 1.0
C      1  0.5843770000000  0.4747600000000  0.4194210000000 1.0
C      1  0.5316830000000  0.4734580000000  0.6143390000000 1.0
C      1  0.4069140000000  0.4326880000000  0.4810740000000 1.0
C      1  0.5660420000000  0.4336940000000  0.4275110000000 1.0
C      1  0.5289580000000  0.4334230000000  0.5934310000000 1.0
C      1  0.4028230000000  0.5624770000000  0.4755080000000 1.0
C      1  0.5649750000000  0.5659750000000  0.4315410000000 1.0
C      1  0.5266410000000  0.5627910000000  0.5950410000000 1.0
C      1  0.5570710000000  0.4127730000000  0.4437420000000 1.0
C      1  0.5157470000000  0.4137170000000  0.5789870000000 1.0
C      1  0.4268060000000  0.4131430000000  0.4799170000000 1.0
C      1  0.5550610000000  0.5860000000000  0.4484090000000 1.0
C      1  0.5157870000000  0.5837970000000  0.5799240000000 1.0
C      1  0.4203950000000  0.5838650000000  0.4722760000000 1.0
C      1  0.5466740000000  0.5313680000000  0.5427180000000 1.0
C      1  0.4413690000000  0.5332500000000  0.5133110000000 1.0
C      1  0.5155100000000  0.5354910000000  0.4428650000000 1.0
C      1  0.5447850000000  0.4651100000000  0.5414550000000 1.0
C      1  0.4428790000000  0.4691100000000  0.5151910000000 1.0
C      1  0.5165230000000  0.4677570000000  0.4410240000000 1.0
C      1  0.5060660000000  0.4251340000000  0.5197190000000 1.0
C      1  0.4830160000000  0.4292440000000  0.4981610000000 1.0
C      1  0.4944540000000  0.4314630000000  0.4713760000000 1.0
C      1  0.5187960000000  0.5730670000000  0.5178610000000 1.0
C      1  0.4751550000000  0.5765400000000  0.4969630000000 1.0
C      1  0.5049160000000  0.5735670000000  0.4894540000000 1.0
C      1  0.4379890000000  0.4076500000000  0.5331830000000 1.0
C      1  0.5047260000000  0.4084540000000  0.4292080000000 1.0
C      1  0.5476750000000  0.4094880000000  0.5349720000000 1.0
C      1  0.4390780000000  0.5885470000000  0.5242930000000 1.0
C      1  0.5025780000000  0.5927050000000  0.4321550000000 1.0
C      1  0.5554580000000  0.5899790000000  0.5426010000000 1.0
C      1  0.5021750000000  0.4024060000000  0.5392650000000 1.0
C      1  0.4666050000000  0.4025790000000  0.4947100000000 1.0
C      1  0.5206490000000  0.3933660000000  0.4646630000000 1.0
C      1  0.5116120000000  0.5954930000000  0.5365740000000 1.0
C      1  0.4591450000000  0.5980600000000  0.4838160000000 1.0
C      1  0.5210830000000  0.5956250000000  0.4767200000000 1.0
C      1  0.5946950000000  0.4699750000000  0.4869080000000 1.0
C      1  0.4656620000000  0.4860410000000  0.5824340000000 1.0
C      1  0.4469480000000  0.4826110000000  0.4276760000000 1.0
C      1  0.5922370000000  0.5281270000000  0.4905280000000 1.0
C      1  0.4645750000000  0.5193210000000  0.5824410000000 1.0
C      1  0.4466750000000  0.5173280000000  0.4266470000000 1.0
C      1  0.4817660000000  0.6081240000000  0.4413490000000 1.0
C      1  0.5432390000000  0.5892400000000  0.5167190000000 1.0
C      1  0.4673650000000  0.5879300000000  0.5246370000000 1.0
C      1  0.4936300000000  0.4041260000000  0.4571750000000 1.0
C      1  0.5319330000000  0.4107170000000  0.5106050000000 1.0
C      1  0.4543830000000  0.3905530000000  0.5475880000000 1.0
C      1  0.4625750000000  0.5180770000000  0.5284590000000 1.0
C      1  0.4942760000000  0.5163200000000  0.4454710000000 1.0
C      1  0.5515760000000  0.5097120000000  0.5217280000000 1.0
C      1  0.4629410000000  0.4867460000000  0.5287370000000 1.0
C      1  0.4961740000000  0.4881710000000  0.4491970000000 1.0
C      1  0.5635890000000  0.4825300000000  0.5235120000000 1.0
C      1  0.4874530000000  0.5842190000000  0.5722710000000 1.0
C      1  0.4378030000000  0.5860710000000  0.4487780000000 1.0
C      1  0.5669120000000  0.5893180000000  0.4750730000000 1.0
C      1  0.4868260000000  0.4146780000000  0.5771460000000 1.0
C      1  0.4447080000000  0.4116640000000  0.4564720000000 1.0
C      1  0.5626760000000  0.4119450000000  0.4719660000000 1.0
C      1  0.4492950000000  0.5323510000000  0.4706590000000 1.0
C      1  0.5473250000000  0.5243990000000  0.4739920000000 1.0
C      1  0.5058450000000  0.5322410000000  0.5549890000000 1.0
C      1  0.4501890000000  0.4694730000000  0.4722990000000 1.0
C      1  0.5474760000000  0.4755690000000  0.4743650000000 1.0
C      1  0.5028050000000  0.4700980000000  0.5574140000000 1.0
C      1  0.4162190000000  0.5152190000000  0.5655400000000 1.0
C      1  0.4845990000000  0.5146260000000  0.3935590000000 1.0
C      1  0.5991590000000  0.5143400000000  0.5386640000000 1.0
C      1  0.4171540000000  0.4862680000000  0.5655910000000 1.0
C      1  0.4853420000000  0.4851710000000  0.3940210000000 1.0
C      1  0.5917930000000  0.4830090000000  0.5358510000000 1.0
C      1  0.4285330000000  0.5697140000000  0.5437070000000 1.0
C      1  0.4944490000000  0.5698380000000  0.4160480000000 1.0
C      1  0.5766580000000  0.5708840000000  0.5427190000000 1.0
C      1  0.4318400000000  0.4324610000000  0.5470760000000 1.0
C      1  0.4958260000000  0.4305960000000  0.4146160000000 1.0
C      1  0.5705800000000  0.4272700000000  0.5368390000000 1.0
C      1  0.4818650000000  0.5011440000000  0.4914410000000 1.0
C      1  0.5055860000000  0.4988640000000  0.4752900000000 1.0
C      1  0.5227930000000  0.4989310000000  0.5234670000000 1.0
END
