TITL C-35907-4182-1 0.217482826381562 125000 -1204.82693118043 0 0 173 (C3) n - 1
REM
REM in /rds/project/t2_vol4/rds-t2-cs072/BORA/CARBON/from-Arr/AIRSS/Generating-Clusters/GAP-ML-2020/Higher-Symm/SD-CG/HFTN-CG/C160-200
REM
REM
REM
REM
REM
REM ./C.cell (6b4489405718ea1b717e0baf1da4c2d9)
REM AIRSS Version 0.9.1 bugfix July 2018 build 013d7b7c2542+ Fri, 06 Jul 2018 19:26:36 +0100
REM compiler GCC version 9.3.0
REM options -cpp -mtune=generic -march=x86-64 -g -O0
REM seed 117506996 -1433138599 295365030 -2145905550 1654252396 -943095608 2113804619 -1874783028 -732188464 -1098646832 578568511 -1206546787 -691898845 -42495929 392256677 1491494225 -2123784413 401468357 988193353 -989535180 -141249108 -1119467665 -579833300 1590085085 -334795382 -347303062 -906256458 573149602 -192013626 -1628404761 342814372 2144210622 1190221550
REM
CELL 1.54180   50.00000   50.00000   50.00000   90.00000   90.00000   90.00000
LATT -1
SFAC C  
C      1  0.5410360000000  0.5168170000000  0.5869210000000 1.0
C      1  0.4045160000000  0.5167890000000  0.4922630000000 1.0
C      1  0.5547520000000  0.5167890000000  0.4213620000000 1.0
C      1  0.5961970000000  0.5130560000000  0.4716180000000 1.0
C      1  0.4767910000000  0.5130690000000  0.5976860000000 1.0
C      1  0.4273160000000  0.5130350000000  0.4312440000000 1.0
C      1  0.4623000000000  0.5738990000000  0.4302140000000 1.0
C      1  0.5795790000000  0.5739220000000  0.5024180000000 1.0
C      1  0.4584100000000  0.5739240000000  0.5678830000000 1.0
C      1  0.5502020000000  0.5091340000000  0.4508310000000 1.0
C      1  0.5177920000000  0.5091520000000  0.5682470000000 1.0
C      1  0.4323120000000  0.5091300000000  0.4814720000000 1.0
C      1  0.4484770000000  0.4728250000000  0.4487650000000 1.0
C      1  0.5704540000000  0.4728410000000  0.4811910000000 1.0
C      1  0.4813840000000  0.4728500000000  0.5706130000000 1.0
C      1  0.4314190000000  0.5410420000000  0.4324880000000 1.0
C      1  0.5930600000000  0.5410630000000  0.4745440000000 1.0
C      1  0.4758180000000  0.5410750000000  0.5935010000000 1.0
C      1  0.5475580000000  0.5428540000000  0.5393440000000 1.0
C      1  0.4424500000000  0.5428420000000  0.5216950000000 1.0
C      1  0.5102880000000  0.5428330000000  0.4394930000000 1.0
C      1  0.4287700000000  0.5665420000000  0.5308980000000 1.0
C      1  0.5091520000000  0.5665290000000  0.4230390000000 1.0
C      1  0.5623690000000  0.5665560000000  0.5465820000000 1.0
C      1  0.5291510000000  0.4925730000000  0.5009300000000 1.0
C      1  0.4849350000000  0.4925730000000  0.5249700000000 1.0
C      1  0.4862230000000  0.4925640000000  0.4746580000000 1.0
C      1  0.4818140000000  0.5221870000000  0.5326100000000 1.0
C      1  0.4811590000000  0.5221750000000  0.4681290000000 1.0
C      1  0.5373290000000  0.5221850000000  0.4998030000000 1.0
C      1  0.5142750000000  0.5928650000000  0.5232350000000 1.0
C      1  0.4730280000000  0.5928580000000  0.5009160000000 1.0
C      1  0.5129800000000  0.5928570000000  0.4763540000000 1.0
C      1  0.4008320000000  0.4687530000000  0.4850660000000 1.0
C      1  0.5628400000000  0.4687550000000  0.4217800000000 1.0
C      1  0.5366430000000  0.4687840000000  0.5937260000000 1.0
C      1  0.4535220000000  0.4966110000000  0.5992180000000 1.0
C      1  0.4376280000000  0.4965750000000  0.4103290000000 1.0
C      1  0.6091580000000  0.4966040000000  0.4910090000000 1.0
C      1  0.5260640000000  0.5557080000000  0.5913810000000 1.0
C      1  0.4081280000000  0.5556780000000  0.4770590000000 1.0
C      1  0.5661020000000  0.5556830000000  0.4320840000000 1.0
C      1  0.4978330000000  0.4958960000000  0.5855270000000 1.0
C      1  0.4273300000000  0.4958660000000  0.4555490000000 1.0
C      1  0.5751460000000  0.4958790000000  0.4594810000000 1.0
C      1  0.5553460000000  0.4099850000000  0.5090500000000 1.0
C      1  0.4648290000000  0.4099840000000  0.5436120000000 1.0
C      1  0.4801550000000  0.4099680000000  0.4479410000000 1.0
C      1  0.4922170000000  0.5948650000000  0.5444230000000 1.0
C      1  0.4657070000000  0.5948500000000  0.4712180000000 1.0
C      1  0.5423600000000  0.5948590000000  0.4848620000000 1.0
C      1  0.5092060000000  0.4167400000000  0.4456750000000 1.0
C      1  0.5427810000000  0.4167580000000  0.5353400000000 1.0
C      1  0.4483420000000  0.4167480000000  0.5195850000000 1.0
C      1  0.4480070000000  0.5792550000000  0.4545030000000 1.0
C      1  0.5656890000000  0.5792690000000  0.4778940000000 1.0
C      1  0.4865910000000  0.5792790000000  0.5681140000000 1.0
C      1  0.4705010000000  0.4842330000000  0.5000590000000 1.0
C      1  0.5150160000000  0.4842320000000  0.4746150000000 1.0
C      1  0.5147940000000  0.4842410000000  0.5258890000000 1.0
C      1  0.5238980000000  0.5399700000000  0.5236420000000 1.0
C      1  0.4678790000000  0.5399620000000  0.5090560000000 1.0
C      1  0.5085210000000  0.5399580000000  0.4678350000000 1.0
C      1  0.4554090000000  0.4449040000000  0.4595840000000 1.0
C      1  0.5576260000000  0.4449160000000  0.4817910000000 1.0
C      1  0.4872860000000  0.4449240000000  0.5592100000000 1.0
C      1  0.5583980000000  0.4842550000000  0.5049860000000 1.0
C      1  0.4668010000000  0.4842560000000  0.5482740000000 1.0
C      1  0.4751110000000  0.4842380000000  0.4473040000000 1.0
C      1  0.5447470000000  0.4466960000000  0.5402670000000 1.0
C      1  0.4430830000000  0.4466840000000  0.5188180000000 1.0
C      1  0.5124910000000  0.4466760000000  0.4414990000000 1.0
C      1  0.4630870000000  0.4300730000000  0.4359430000000 1.0
C      1  0.5742650000000  0.4300940000000  0.5002630000000 1.0
C      1  0.4629730000000  0.4300960000000  0.5643860000000 1.0
C      1  0.5757700000000  0.5597420000000  0.4576290000000 1.0
C      1  0.4991060000000  0.5597590000000  0.5869810000000 1.0
C      1  0.4254160000000  0.5597290000000  0.4559120000000 1.0
C      1  0.5956910000000  0.5503680000000  0.5019810000000 1.0
C      1  0.4507390000000  0.5503700000000  0.5820590000000 1.0
C      1  0.4538650000000  0.5503400000000  0.4164880000000 1.0
C      1  0.5417860000000  0.4554200000000  0.4390640000000 1.0
C      1  0.5322060000000  0.4554420000000  0.5668540000000 1.0
C      1  0.4263260000000  0.4554210000000  0.4946610000000 1.0
C      1  0.5255150000000  0.4447300000000  0.4933120000000 1.0
C      1  0.4933630000000  0.4447340000000  0.5256400000000 1.0
C      1  0.4814420000000  0.4447250000000  0.4816320000000 1.0
C      1  0.5966850000000  0.4476410000000  0.5071050000000 1.0
C      1  0.4458330000000  0.4476420000000  0.5803790000000 1.0
C      1  0.4578020000000  0.4476130000000  0.4131000000000 1.0
C      1  0.5316430000000  0.4861920000000  0.4493140000000 1.0
C      1  0.5283910000000  0.4862100000000  0.5529370000000 1.0
C      1  0.4402770000000  0.4861930000000  0.4983100000000 1.0
C      1  0.5509340000000  0.5436340000000  0.5867050000000 1.0
C      1  0.3997460000000  0.5436060000000  0.5009380000000 1.0
C      1  0.5496170000000  0.5436030000000  0.4128880000000 1.0
C      1  0.4998150000000  0.5290460000000  0.3970630000000 1.0
C      1  0.5895440000000  0.5290810000000  0.5514910000000 1.0
C      1  0.4109410000000  0.5290660000000  0.5519850000000 1.0
C      1  0.4353090000000  0.5182980000000  0.5358500000000 1.0
C      1  0.5016080000000  0.5182840000000  0.4262360000000 1.0
C      1  0.5633860000000  0.5183090000000  0.5384590000000 1.0
C      1  0.5105730000000  0.4745650000000  0.6042900000000 1.0
C      1  0.4047170000000  0.4745300000000  0.4572060000000 1.0
C      1  0.5850240000000  0.4745410000000  0.4390730000000 1.0
C      1  0.5181470000000  0.4107160000000  0.5497170000000 1.0
C      1  0.4482090000000  0.4107000000000  0.4910640000000 1.0
C      1  0.5339730000000  0.4107010000000  0.4598220000000 1.0
C      1  0.4894860000000  0.5843560000000  0.4316380000000 1.0
C      1  0.5647500000000  0.5843790000000  0.5252480000000 1.0
C      1  0.4460500000000  0.5843720000000  0.5436230000000 1.0
C      1  0.4881430000000  0.3833990000000  0.4890480000000 1.0
C      1  0.5157600000000  0.3834030000000  0.4954190000000 1.0
C      1  0.4964340000000  0.3834050000000  0.5161510000000 1.0
C      1  0.5207040000000  0.4560030000000  0.5214020000000 1.0
C      1  0.4714390000000  0.4559960000000  0.5074260000000 1.0
C      1  0.5081750000000  0.4559930000000  0.4717500000000 1.0
C      1  0.4795740000000  0.4634210000000  0.4028640000000 1.0
C      1  0.5946590000000  0.4634540000000  0.5310740000000 1.0
C      1  0.4260830000000  0.4634470000000  0.5666360000000 1.0
C      1  0.4094190000000  0.4616070000000  0.4335490000000 1.0
C      1  0.6031640000000  0.4616270000000  0.4549770000000 1.0
C      1  0.4877340000000  0.4616460000000  0.6120500000000 1.0
C      1  0.5059320000000  0.5638760000000  0.4839530000000 1.0
C      1  0.5112270000000  0.5638820000000  0.5133370000000 1.0
C      1  0.4831320000000  0.5638780000000  0.5032300000000 1.0
C      1  0.6129410000000  0.5065620000000  0.5173940000000 1.0
C      1  0.4287780000000  0.5065600000000  0.5893000000000 1.0
C      1  0.4585870000000  0.5065270000000  0.3938570000000 1.0
C      1  0.5349670000000  0.5281430000000  0.4717650000000 1.0
C      1  0.5072750000000  0.5281540000000  0.5445840000000 1.0
C      1  0.4580580000000  0.5281390000000  0.4841910000000 1.0
C      1  0.5124970000000  0.4333850000000  0.5662030000000 1.0
C      1  0.4367510000000  0.4333630000000  0.4779230000000 1.0
C      1  0.5510760000000  0.4333690000000  0.4564650000000 1.0
C      1  0.5744700000000  0.4905390000000  0.5743450000000 1.0
C      1  0.3986970000000  0.4905160000000  0.5275110000000 1.0
C      1  0.5271430000000  0.4905040000000  0.3987040000000 1.0
C      1  0.4914450000000  0.5974940000000  0.4566330000000 1.0
C      1  0.5421210000000  0.5975090000000  0.5144440000000 1.0
C      1  0.4667170000000  0.5975050000000  0.5294250000000 1.0
C      1  0.6072050000000  0.4880930000000  0.5391730000000 1.0
C      1  0.4127900000000  0.4880830000000  0.5734470000000 1.0
C      1  0.4803150000000  0.4880550000000  0.3879410000000 1.0
C      1  0.6035560000000  0.5333180000000  0.5242840000000 1.0
C      1  0.4274970000000  0.5333130000000  0.5777220000000 1.0
C      1  0.4692470000000  0.5332840000000  0.3985310000000 1.0
C      1  0.4361660000000  0.4675150000000  0.4209610000000 1.0
C      1  0.6006900000000  0.4675400000000  0.4844330000000 1.0
C      1  0.4634590000000  0.4675480000000  0.5951790000000 1.0
C      1  0.5214760000000  0.5510940000000  0.4024380000000 1.0
C      1  0.5740530000000  0.5511280000000  0.5675580000000 1.0
C      1  0.4047660000000  0.5511070000000  0.5305310000000 1.0
C      1  0.5978830000000  0.5025320000000  0.5623190000000 1.0
C      1  0.3974020000000  0.5025140000000  0.5537970000000 1.0
C      1  0.5050220000000  0.5024920000000  0.3844370000000 1.0
C      1  0.5540390000000  0.4911670000000  0.4060400000000 1.0
C      1  0.5546690000000  0.4912010000000  0.5939700000000 1.0
C      1  0.3916020000000  0.4911710000000  0.5005500000000 1.0
C      1  0.4769060000000  0.5130360000000  0.4403310000000 1.0
C      1  0.5635320000000  0.5130560000000  0.5100210000000 1.0
C      1  0.4598660000000  0.5130540000000  0.5501960000000 1.0
C      1  0.5385680000000  0.3979900000000  0.4867230000000 1.0
C      1  0.4925570000000  0.3979960000000  0.5402480000000 1.0
C      1  0.4692080000000  0.3979820000000  0.4736390000000 1.0
C      1  0.4949730000000  0.4683950000000  0.4284190000000 1.0
C      1  0.5648270000000  0.4684200000000  0.5316320000000 1.0
C      1  0.4405150000000  0.4684110000000  0.5405210000000 1.0
C      1  0.4286970000000  0.4907930000000  0.5249420000000 1.0
C      1  0.5143680000000  0.4907820000000  0.4259690000000 1.0
C      1  0.5572450000000  0.4908080000000  0.5496490000000 1.0
C      1  0.5001080000000  0.4271470000000  0.5001980000000 1.0
C      1  0.5000940000000  0.6032340000000  0.5001660000000 1.0
END
