TITL C-3516-9161-3 24.6470351461988 125000 -494.56715209484 0 0 71 (C1) n - 1
REM
REM in /rds/project/t2_vol4/rds-t2-cs072/BORA/CARBON/from-Arr/AIRSS/Generating-Clusters/GAP-ML-2020/Higher-Symm/SD-CG/HFTN-CG
REM
REM
REM
REM
REM
REM ./C.cell (b20cbc046b6831c77cfcea5457e17084)
REM AIRSS Version 0.9.1 bugfix July 2018 build 013d7b7c2542+ Fri, 06 Jul 2018 19:26:36 +0100
REM compiler GCC version 9.3.0
REM options -cpp -mtune=generic -march=x86-64 -g -O0
REM seed -16615106 307762920 -2079965137 2048692715 423343883 573701551 -1441881466 650976756 329902828 335729023 -507932894 -169691070 -725729554 -1445793213 1966414078 572431169 179055786 1737895291 -1462778199 -926434489 1894961106 -788736258 -162153945 -1581893999 -600403798 1004391663 -1047554284 2033713940 -1259746805 -1508355677 -1829860528 -2084390065 -1366056627
REM
CELL 1.54180   50.00000   50.00000   50.00000   90.00000   90.00000   90.00000
LATT -1
SFAC C  
C      1  0.5510160000000  0.5021280000000  0.5539590000000 1.0
C      1  0.5530040000000  0.4606870000000  0.5314800000000 1.0
C      1  0.4882920000000  0.4243210000000  0.4744960000000 1.0
C      1  0.4858570000000  0.5147930000000  0.5099840000000 1.0
C      1  0.5719710000000  0.5103470000000  0.4722880000000 1.0
C      1  0.4537920000000  0.4625600000000  0.5391250000000 1.0
C      1  0.4797540000000  0.5229610000000  0.5707900000000 1.0
C      1  0.4999770000000  0.4535930000000  0.4322870000000 1.0
C      1  0.5206350000000  0.4779120000000  0.5680070000000 1.0
C      1  0.5428740000000  0.4728230000000  0.4731020000000 1.0
C      1  0.5276290000000  0.5157760000000  0.4932630000000 1.0
C      1  0.4876170000000  0.4300070000000  0.5237430000000 1.0
C      1  0.5735810000000  0.5333900000000  0.4891050000000 1.0
C      1  0.4357820000000  0.4861300000000  0.5333250000000 1.0
C      1  0.5618450000000  0.4828860000000  0.5129230000000 1.0
C      1  0.4464400000000  0.5062120000000  0.4376660000000 1.0
C      1  0.5501570000000  0.5560430000000  0.5148990000000 1.0
C      1  0.4651150000000  0.4974650000000  0.5685380000000 1.0
C      1  0.4283710000000  0.4918900000000  0.4831690000000 1.0
C      1  0.5087980000000  0.5648370000000  0.4741190000000 1.0
C      1  0.4872020000000  0.5555740000000  0.4576970000000 1.0
C      1  0.5681620000000  0.4837330000000  0.4829440000000 1.0
C      1  0.5331640000000  0.4410220000000  0.5257930000000 1.0
C      1  0.5164940000000  0.5278700000000  0.4293760000000 1.0
C      1  0.5077670000000  0.4401750000000  0.5414330000000 1.0
C      1  0.4648830000000  0.5403100000000  0.4724740000000 1.0
C      1  0.4922140000000  0.4899270000000  0.5174320000000 1.0
C      1  0.5136270000000  0.4979140000000  0.4301640000000 1.0
C      1  0.4808450000000  0.5127950000000  0.4802340000000 1.0
C      1  0.5679550000000  0.5324060000000  0.5175220000000 1.0
C      1  0.4759310000000  0.5643590000000  0.5133680000000 1.0
C      1  0.5220000000000  0.5570000000000  0.5223830000000 1.0
C      1  0.5110630000000  0.5291430000000  0.5122640000000 1.0
C      1  0.5275640000000  0.4319910000000  0.4990190000000 1.0
C      1  0.5010080000000  0.4218480000000  0.4996610000000 1.0
C      1  0.4717040000000  0.4839250000000  0.4683130000000 1.0
C      1  0.4920350000000  0.4798350000000  0.4250080000000 1.0
C      1  0.5463020000000  0.4736590000000  0.5555590000000 1.0
C      1  0.4640010000000  0.5431910000000  0.5561000000000 1.0
C      1  0.5401570000000  0.5374560000000  0.4445600000000 1.0
C      1  0.4553220000000  0.5501720000000  0.4997680000000 1.0
C      1  0.4382320000000  0.5318100000000  0.5153620000000 1.0
C      1  0.5023950000000  0.5668060000000  0.5017040000000 1.0
C      1  0.4286570000000  0.5077480000000  0.4595490000000 1.0
C      1  0.4984820000000  0.4716570000000  0.4721560000000 1.0
C      1  0.5359120000000  0.5572190000000  0.4665350000000 1.0
C      1  0.4805720000000  0.5597850000000  0.5413320000000 1.0
C      1  0.4421770000000  0.5311380000000  0.5436040000000 1.0
C      1  0.4615050000000  0.4422810000000  0.5207220000000 1.0
C      1  0.5655430000000  0.5075580000000  0.5300440000000 1.0
C      1  0.5325650000000  0.4875830000000  0.4999380000000 1.0
C      1  0.4521560000000  0.4446520000000  0.4924990000000 1.0
C      1  0.4996590000000  0.4601020000000  0.5605570000000 1.0
C      1  0.4954110000000  0.5447630000000  0.4333830000000 1.0
C      1  0.4435660000000  0.5300930000000  0.4543920000000 1.0
C      1  0.5056580000000  0.4442900000000  0.4587890000000 1.0
C      1  0.5097060000000  0.5131700000000  0.4715650000000 1.0
C      1  0.4612490000000  0.4240510000000  0.4760740000000 1.0
C      1  0.5064580000000  0.4742900000000  0.5003900000000 1.0
C      1  0.5075190000000  0.5299450000000  0.5668960000000 1.0
C      1  0.5257740000000  0.5076410000000  0.5681150000000 1.0
C      1  0.5328110000000  0.4451500000000  0.4742930000000 1.0
C      1  0.5553930000000  0.5567520000000  0.4864760000000 1.0
C      1  0.4686770000000  0.4895700000000  0.4397920000000 1.0
C      1  0.4475840000000  0.4706600000000  0.4801000000000 1.0
C      1  0.4416040000000  0.5044500000000  0.5537890000000 1.0
C      1  0.4726000000000  0.4703810000000  0.5600100000000 1.0
C      1  0.5192350000000  0.4891210000000  0.4577430000000 1.0
C      1  0.4297670000000  0.5034990000000  0.5093090000000 1.0
C      1  0.5598240000000  0.5193450000000  0.4493820000000 1.0
C      1  0.5074040000000  0.5534250000000  0.5481590000000 1.0
END
