TITL C-35881-4263-3 -0.00269401971251438 125000 -1191.04957061048 0 0 170 (Cs) n - 1
REM
REM in /rds/project/t2_vol4/rds-t2-cs072/BORA/CARBON/from-Arr/AIRSS/Generating-Clusters/GAP-ML-2020/Higher-Symm/SD-CG/HFTN-CG/C160-200
REM
REM
REM
REM
REM
REM ./C.cell (6b4489405718ea1b717e0baf1da4c2d9)
REM AIRSS Version 0.9.1 bugfix July 2018 build 013d7b7c2542+ Fri, 06 Jul 2018 19:26:36 +0100
REM compiler GCC version 9.3.0
REM options -cpp -mtune=generic -march=x86-64 -g -O0
REM seed -2021837358 1668717253 -1555783588 -286994868 -1781324611 37208173 -1080889629 676930875 -1482559111 -1544469443 -693326469 394168005 -575320860 671700116 -613981017 -1196347910 -1350122407 -313266962 -2126161920 -1438372963 -1760996067 -1884087013 -61744285 -2040026753 1265363926 1503684455 612702181 1560468403 1523425034 2006595126 -1757805705 -65817588 -846586002
REM
CELL 1.54180   50.00000   50.00000   50.00000   90.00000   90.00000   90.00000
LATT -1
SFAC C  
C      1  0.5305510000000  0.5995420000000  0.5161980000000 1.0
C      1  0.4691480000000  0.5994640000000  0.5161050000000 1.0
C      1  0.5724740000000  0.5137320000000  0.5631170000000 1.0
C      1  0.4272990000000  0.5135470000000  0.5628950000000 1.0
C      1  0.5310850000000  0.4008900000000  0.4819220000000 1.0
C      1  0.4692220000000  0.4008120000000  0.4818280000000 1.0
C      1  0.5158720000000  0.5489150000000  0.4296310000000 1.0
C      1  0.4842180000000  0.5488750000000  0.4295830000000 1.0
C      1  0.4832730000000  0.5158080000000  0.5768140000000 1.0
C      1  0.5164520000000  0.5158510000000  0.5768640000000 1.0
C      1  0.4419840000000  0.4478390000000  0.5574460000000 1.0
C      1  0.5579730000000  0.4479860000000  0.5576230000000 1.0
C      1  0.4317110000000  0.4549460000000  0.4241990000000 1.0
C      1  0.5686340000000  0.4551200000000  0.4244080000000 1.0
C      1  0.4751450000000  0.4432810000000  0.4698320000000 1.0
C      1  0.5250910000000  0.4433440000000  0.4699080000000 1.0
C      1  0.5152920000000  0.4201490000000  0.5765160000000 1.0
C      1  0.4846770000000  0.4201100000000  0.5764690000000 1.0
C      1  0.4467180000000  0.4738740000000  0.5097490000000 1.0
C      1  0.5533180000000  0.4740090000000  0.5099120000000 1.0
C      1  0.5252820000000  0.4793380000000  0.5024850000000 1.0
C      1  0.4747630000000  0.4792740000000  0.5024080000000 1.0
C      1  0.4757240000000  0.5636560000000  0.6095480000000 1.0
C      1  0.5237800000000  0.5637170000000  0.6096220000000 1.0
C      1  0.4255220000000  0.5689170000000  0.5132560000000 1.0
C      1  0.5742620000000  0.5691060000000  0.5134830000000 1.0
C      1  0.5716030000000  0.4977470000000  0.5174260000000 1.0
C      1  0.4283500000000  0.4975660000000  0.5172080000000 1.0
C      1  0.4857110000000  0.5937440000000  0.4471360000000 1.0
C      1  0.5142120000000  0.5937800000000  0.4471800000000 1.0
C      1  0.4857090000000  0.6077890000000  0.4946300000000 1.0
C      1  0.5140330000000  0.6078250000000  0.4946730000000 1.0
C      1  0.4437580000000  0.5221610000000  0.5137800000000 1.0
C      1  0.5561440000000  0.5223040000000  0.5139520000000 1.0
C      1  0.4477200000000  0.5898610000000  0.4743760000000 1.0
C      1  0.5521300000000  0.5899930000000  0.4745360000000 1.0
C      1  0.4854700000000  0.4563540000000  0.4438410000000 1.0
C      1  0.5148120000000  0.4563910000000  0.4438860000000 1.0
C      1  0.5851220000000  0.4402820000000  0.5169730000000 1.0
C      1  0.4149790000000  0.4400660000000  0.5167140000000 1.0
C      1  0.5154650000000  0.4497710000000  0.5475310000000 1.0
C      1  0.4845180000000  0.4497320000000  0.5474840000000 1.0
C      1  0.4038030000000  0.4768610000000  0.5430550000000 1.0
C      1  0.5961240000000  0.4771050000000  0.5433490000000 1.0
C      1  0.4253860000000  0.5270200000000  0.4320290000000 1.0
C      1  0.5747520000000  0.5272100000000  0.4322570000000 1.0
C      1  0.5302710000000  0.4899610000000  0.5714280000000 1.0
C      1  0.4695370000000  0.4898840000000  0.5713350000000 1.0
C      1  0.4250620000000  0.4182230000000  0.5051010000000 1.0
C      1  0.5751290000000  0.4184140000000  0.5053300000000 1.0
C      1  0.5143490000000  0.4009650000000  0.5543380000000 1.0
C      1  0.4857360000000  0.4009290000000  0.5542940000000 1.0
C      1  0.5139960000000  0.4854890000000  0.6113110000000 1.0
C      1  0.4857010000000  0.4854530000000  0.6112680000000 1.0
C      1  0.4849660000000  0.5821450000000  0.5912660000000 1.0
C      1  0.5145470000000  0.5821830000000  0.5913110000000 1.0
C      1  0.4450740000000  0.4415630000000  0.4692800000000 1.0
C      1  0.5551680000000  0.4417020000000  0.4694480000000 1.0
C      1  0.5950030000000  0.5555050000000  0.4965530000000 1.0
C      1  0.4048670000000  0.5552640000000  0.4962630000000 1.0
C      1  0.4289740000000  0.5450040000000  0.5307120000000 1.0
C      1  0.5708180000000  0.5451840000000  0.5309280000000 1.0
C      1  0.5311490000000  0.5738030000000  0.4359090000000 1.0
C      1  0.4688600000000  0.5737240000000  0.4358140000000 1.0
C      1  0.5625720000000  0.5172840000000  0.4072840000000 1.0
C      1  0.4376680000000  0.5171250000000  0.4070930000000 1.0
C      1  0.4399840000000  0.4907370000000  0.5724960000000 1.0
C      1  0.5598180000000  0.4908890000000  0.5726790000000 1.0
C      1  0.4849420000000  0.4371540000000  0.4188080000000 1.0
C      1  0.5154650000000  0.4371930000000  0.4188550000000 1.0
C      1  0.5161960000000  0.4841950000000  0.4333950000000 1.0
C      1  0.4840480000000  0.4841540000000  0.4333460000000 1.0
C      1  0.4753820000000  0.5835970000000  0.5642690000000 1.0
C      1  0.5242100000000  0.5836590000000  0.5643440000000 1.0
C      1  0.4090010000000  0.5055310000000  0.5418010000000 1.0
C      1  0.5908570000000  0.5057620000000  0.5420780000000 1.0
C      1  0.4160000000000  0.4799640000000  0.4278870000000 1.0
C      1  0.5842710000000  0.4801780000000  0.4281430000000 1.0
C      1  0.3845870000000  0.5444540000000  0.5136170000000 1.0
C      1  0.6152570000000  0.5447470000000  0.5139690000000 1.0
C      1  0.4708930000000  0.4827310000000  0.4042730000000 1.0
C      1  0.5294420000000  0.4828060000000  0.4043620000000 1.0
C      1  0.4450120000000  0.4980020000000  0.4657930000000 1.0
C      1  0.5550970000000  0.4981420000000  0.4659610000000 1.0
C      1  0.5136480000000  0.4915670000000  0.4786110000000 1.0
C      1  0.4864390000000  0.4915330000000  0.4785700000000 1.0
C      1  0.5956380000000  0.5076110000000  0.4737680000000 1.0
C      1  0.4044240000000  0.5073680000000  0.4734760000000 1.0
C      1  0.5138760000000  0.5417650000000  0.5046920000000 1.0
C      1  0.4860030000000  0.5417290000000  0.5046490000000 1.0
C      1  0.4851380000000  0.4504980000000  0.4992030000000 1.0
C      1  0.5149900000000  0.4505350000000  0.4992490000000 1.0
C      1  0.5644860000000  0.4719640000000  0.4819450000000 1.0
C      1  0.4356400000000  0.4718010000000  0.4817480000000 1.0
C      1  0.5749090000000  0.5497310000000  0.4497210000000 1.0
C      1  0.4251190000000  0.5495410000000  0.4494920000000 1.0
C      1  0.4858670000000  0.5580160000000  0.5580460000000 1.0
C      1  0.5138090000000  0.5580520000000  0.5580880000000 1.0
C      1  0.5566790000000  0.5725310000000  0.4511660000000 1.0
C      1  0.4432860000000  0.5723870000000  0.4509930000000 1.0
C      1  0.5331220000000  0.4202490000000  0.4336960000000 1.0
C      1  0.4672840000000  0.4201650000000  0.4335950000000 1.0
C      1  0.5985340000000  0.5320050000000  0.5308010000000 1.0
C      1  0.4012910000000  0.5317550000000  0.5305000000000 1.0
C      1  0.5750590000000  0.4917220000000  0.4036400000000 1.0
C      1  0.4252560000000  0.4915320000000  0.4034110000000 1.0
C      1  0.5151120000000  0.4963420000000  0.5241230000000 1.0
C      1  0.4848240000000  0.4963030000000  0.5240770000000 1.0
C      1  0.4100940000000  0.4861500000000  0.4940380000000 1.0
C      1  0.5899580000000  0.4863780000000  0.4943120000000 1.0
C      1  0.4718400000000  0.5391330000000  0.4800960000000 1.0
C      1  0.5281220000000  0.5392050000000  0.4801820000000 1.0
C      1  0.5153960000000  0.5968800000000  0.5406860000000 1.0
C      1  0.4842340000000  0.5968400000000  0.5406390000000 1.0
C      1  0.4242100000000  0.4685080000000  0.5627670000000 1.0
C      1  0.5756770000000  0.4687010000000  0.5629990000000 1.0
C      1  0.5266550000000  0.4690870000000  0.5912730000000 1.0
C      1  0.4731450000000  0.4690190000000  0.5911920000000 1.0
C      1  0.5547030000000  0.5245380000000  0.4841530000000 1.0
C      1  0.4452840000000  0.5243990000000  0.4839860000000 1.0
C      1  0.4442230000000  0.4703600000000  0.4024980000000 1.0
C      1  0.5561490000000  0.4705020000000  0.4026690000000 1.0
C      1  0.4864630000000  0.4581320000000  0.3965540000000 1.0
C      1  0.5139580000000  0.4581670000000  0.3965960000000 1.0
C      1  0.4434120000000  0.4151490000000  0.4851400000000 1.0
C      1  0.5568480000000  0.4152930000000  0.4853130000000 1.0
C      1  0.4704540000000  0.5344500000000  0.5557310000000 1.0
C      1  0.5292890000000  0.5345250000000  0.5558200000000 1.0
C      1  0.5153320000000  0.5298950000000  0.4554610000000 1.0
C      1  0.4847280000000  0.5298560000000  0.4554140000000 1.0
C      1  0.4655010000000  0.5132800000000  0.3984370000000 1.0
C      1  0.5347750000000  0.5133670000000  0.3985430000000 1.0
C      1  0.5145480000000  0.3935330000000  0.5041390000000 1.0
C      1  0.4857100000000  0.3934960000000  0.5040950000000 1.0
C      1  0.5838900000000  0.5371600000000  0.4762240000000 1.0
C      1  0.4160890000000  0.5369470000000  0.4759680000000 1.0
C      1  0.4718270000000  0.4360480000000  0.5237570000000 1.0
C      1  0.5282630000000  0.4361190000000  0.5238430000000 1.0
C      1  0.4003130000000  0.4642990000000  0.5166400000000 1.0
C      1  0.5997260000000  0.4645520000000  0.5169440000000 1.0
C      1  0.5228190000000  0.5145500000000  0.6063460000000 1.0
C      1  0.4768200000000  0.5144920000000  0.6062760000000 1.0
C      1  0.5158830000000  0.4798250000000  0.5483380000000 1.0
C      1  0.4840210000000  0.4797850000000  0.5482900000000 1.0
C      1  0.4405640000000  0.5374630000000  0.5568490000000 1.0
C      1  0.5591670000000  0.5376140000000  0.5570300000000 1.0
C      1  0.4192830000000  0.5017030000000  0.4480320000000 1.0
C      1  0.5808710000000  0.5019080000000  0.4482790000000 1.0
C      1  0.5169780000000  0.4147100000000  0.4598760000000 1.0
C      1  0.4833610000000  0.4146670000000  0.4598250000000 1.0
C      1  0.5272550000000  0.6031030000000  0.4702960000000 1.0
C      1  0.4725740000000  0.6030330000000  0.4702130000000 1.0
C      1  0.4441570000000  0.5881940000000  0.5040370000000 1.0
C      1  0.5556070000000  0.5883360000000  0.5042070000000 1.0
C      1  0.5562880000000  0.4476550000000  0.5273640000000 1.0
C      1  0.4437610000000  0.4475120000000  0.5271920000000 1.0
C      1  0.4724570000000  0.5234400000000  0.5251790000000 1.0
C      1  0.5274070000000  0.5235100000000  0.5252630000000 1.0
C      1  0.5267270000000  0.5010580000000  0.4550310000000 1.0
C      1  0.4734080000000  0.5009900000000  0.4549500000000 1.0
C      1  0.4684290000000  0.4443320000000  0.5735110000000 1.0
C      1  0.5314880000000  0.4444120000000  0.5736070000000 1.0
C      1  0.4847790000000  0.5393710000000  0.6176680000000 1.0
C      1  0.5147620000000  0.5394090000000  0.6177130000000 1.0
C      1  0.5244540000000  0.4067610000000  0.5283530000000 1.0
C      1  0.4756970000000  0.4066990000000  0.5282790000000 1.0
C      1  0.4425850000000  0.4353130000000  0.4401430000000 1.0
C      1  0.5577620000000  0.4354590000000  0.4403190000000 1.0
C      1  0.5143760000000  0.5323480000000  0.4040140000000 1.0
C      1  0.4858350000000  0.5323120000000  0.4039700000000 1.0
END
