TITL C-35897-4139-1 27.4753616600303 125000 -1319.9837834083 0 0 187 (C1) n - 1
REM
REM in /rds/project/t2_vol4/rds-t2-cs072/BORA/CARBON/from-Arr/AIRSS/Generating-Clusters/GAP-ML-2020/Higher-Symm/SD-CG/HFTN-CG/C160-200
REM
REM
REM
REM
REM
REM ./C.cell (6b4489405718ea1b717e0baf1da4c2d9)
REM AIRSS Version 0.9.1 bugfix July 2018 build 013d7b7c2542+ Fri, 06 Jul 2018 19:26:36 +0100
REM compiler GCC version 9.3.0
REM options -cpp -mtune=generic -march=x86-64 -g -O0
REM seed 491345143 -259151805 1276046622 -2060759228 766585334 -2032265044 248504683 4062918 -1369962242 -1744283466 -1923268680 768531874 -1788239217 -1591783796 509503592 -441566559 32272828 1618675988 -1965257282 501577747 896539473 1499589543 -2113048637 -252872733 -1569105795 2019728944 52994055 -723094675 754323140 -1924880515 571982600 -1311820272 -2121587915
REM
CELL 1.54180   50.00000   50.00000   50.00000   90.00000   90.00000   90.00000
LATT -1
SFAC C  
C      1  0.4741430000000  0.5947160000000  0.5504880000000 1.0
C      1  0.5362720000000  0.5047110000000  0.5546450000000 1.0
C      1  0.4375920000000  0.4424860000000  0.5774980000000 1.0
C      1  0.4689160000000  0.4932860000000  0.3897850000000 1.0
C      1  0.5252370000000  0.4998090000000  0.5024780000000 1.0
C      1  0.5354970000000  0.4148540000000  0.5232600000000 1.0
C      1  0.5049210000000  0.5486930000000  0.4702580000000 1.0
C      1  0.5089760000000  0.4766440000000  0.5113910000000 1.0
C      1  0.4394560000000  0.5256600000000  0.4745830000000 1.0
C      1  0.4458350000000  0.4769460000000  0.3959770000000 1.0
C      1  0.6000980000000  0.4646790000000  0.5177700000000 1.0
C      1  0.5827910000000  0.4378480000000  0.4390680000000 1.0
C      1  0.5145850000000  0.3860710000000  0.4920460000000 1.0
C      1  0.4387400000000  0.4300760000000  0.4476930000000 1.0
C      1  0.4800590000000  0.4873280000000  0.5091830000000 1.0
C      1  0.5616360000000  0.4913670000000  0.5968570000000 1.0
C      1  0.5199580000000  0.5177110000000  0.3971870000000 1.0
C      1  0.4732280000000  0.4708790000000  0.4586160000000 1.0
C      1  0.5287380000000  0.5500950000000  0.4858950000000 1.0
C      1  0.4849360000000  0.5170280000000  0.5024940000000 1.0
C      1  0.4594840000000  0.5856800000000  0.5262520000000 1.0
C      1  0.4606470000000  0.5291370000000  0.5406590000000 1.0
C      1  0.5896000000000  0.4780250000000  0.5607980000000 1.0
C      1  0.5227410000000  0.4715810000000  0.4645300000000 1.0
C      1  0.4423560000000  0.5580350000000  0.4227150000000 1.0
C      1  0.5371550000000  0.4510120000000  0.4130670000000 1.0
C      1  0.3871390000000  0.5550460000000  0.4745750000000 1.0
C      1  0.4588780000000  0.6064570000000  0.5054930000000 1.0
C      1  0.4457140000000  0.4433460000000  0.5293090000000 1.0
C      1  0.5216500000000  0.4586660000000  0.4918960000000 1.0
C      1  0.4902010000000  0.4056530000000  0.4526530000000 1.0
C      1  0.5903830000000  0.5037190000000  0.5443120000000 1.0
C      1  0.5433490000000  0.5693860000000  0.4422570000000 1.0
C      1  0.4794530000000  0.5098230000000  0.5510030000000 1.0
C      1  0.4630620000000  0.5432290000000  0.6015170000000 1.0
C      1  0.5187410000000  0.4894530000000  0.3890210000000 1.0
C      1  0.5236910000000  0.4794920000000  0.5596570000000 1.0
C      1  0.3988230000000  0.5754360000000  0.4847450000000 1.0
C      1  0.4583910000000  0.5736430000000  0.4431800000000 1.0
C      1  0.5074120000000  0.5493210000000  0.5539520000000 1.0
C      1  0.4581820000000  0.5713630000000  0.4034760000000 1.0
C      1  0.5049870000000  0.5705030000000  0.5766480000000 1.0
C      1  0.4437140000000  0.5958200000000  0.4858370000000 1.0
C      1  0.4949620000000  0.5138480000000  0.6152500000000 1.0
C      1  0.5886280000000  0.4568030000000  0.5423810000000 1.0
C      1  0.4720220000000  0.4970400000000  0.6083300000000 1.0
C      1  0.4296430000000  0.5749930000000  0.5250760000000 1.0
C      1  0.4329380000000  0.5162520000000  0.5805330000000 1.0
C      1  0.4722940000000  0.5171190000000  0.4064800000000 1.0
C      1  0.3854520000000  0.4821050000000  0.4802230000000 1.0
C      1  0.5001190000000  0.6054630000000  0.5447150000000 1.0
C      1  0.5658670000000  0.4183500000000  0.4505030000000 1.0
C      1  0.5675830000000  0.5070840000000  0.4845080000000 1.0
C      1  0.3879120000000  0.4893560000000  0.5079880000000 1.0
C      1  0.5360310000000  0.4893840000000  0.6068030000000 1.0
C      1  0.5087370000000  0.5200010000000  0.5493730000000 1.0
C      1  0.4922510000000  0.4424700000000  0.5375230000000 1.0
C      1  0.5111970000000  0.5208350000000  0.5171770000000 1.0
C      1  0.5625620000000  0.5099710000000  0.4563590000000 1.0
C      1  0.4497430000000  0.5477510000000  0.4877220000000 1.0
C      1  0.5341970000000  0.5389690000000  0.6041780000000 1.0
C      1  0.5006010000000  0.4296830000000  0.4624530000000 1.0
C      1  0.4925990000000  0.4775320000000  0.3879650000000 1.0
C      1  0.5527650000000  0.5984070000000  0.4980730000000 1.0
C      1  0.5652730000000  0.4421210000000  0.5495490000000 1.0
C      1  0.5113400000000  0.5559920000000  0.6015880000000 1.0
C      1  0.4028700000000  0.4355760000000  0.4786340000000 1.0
C      1  0.5692440000000  0.5591560000000  0.4483260000000 1.0
C      1  0.4679040000000  0.4113660000000  0.5597110000000 1.0
C      1  0.6079440000000  0.4685120000000  0.4700420000000 1.0
C      1  0.4398250000000  0.5400970000000  0.5599120000000 1.0
C      1  0.4970490000000  0.4181030000000  0.5566670000000 1.0
C      1  0.5009110000000  0.3868410000000  0.5177730000000 1.0
C      1  0.4758040000000  0.5027050000000  0.4537750000000 1.0
C      1  0.6051390000000  0.5314590000000  0.4521210000000 1.0
C      1  0.4196340000000  0.5093860000000  0.4186950000000 1.0
C      1  0.5997030000000  0.5460320000000  0.5257920000000 1.0
C      1  0.4520720000000  0.5191590000000  0.4501780000000 1.0
C      1  0.4476860000000  0.4597860000000  0.4438420000000 1.0
C      1  0.5456440000000  0.5922040000000  0.5488870000000 1.0
C      1  0.5946480000000  0.4555540000000  0.4908770000000 1.0
C      1  0.4397750000000  0.4685360000000  0.5860490000000 1.0
C      1  0.5946720000000  0.5333440000000  0.5510840000000 1.0
C      1  0.3843400000000  0.5281370000000  0.4804270000000 1.0
C      1  0.5433070000000  0.4430340000000  0.5292480000000 1.0
C      1  0.5698560000000  0.4836700000000  0.4417930000000 1.0
C      1  0.4701650000000  0.4859660000000  0.5373030000000 1.0
C      1  0.4592250000000  0.4266590000000  0.5817570000000 1.0
C      1  0.4667660000000  0.5390580000000  0.5114580000000 1.0
C      1  0.4561830000000  0.5584840000000  0.5794650000000 1.0
C      1  0.5162100000000  0.4613710000000  0.5368630000000 1.0
C      1  0.4617010000000  0.4443310000000  0.5016260000000 1.0
C      1  0.5233640000000  0.5130960000000  0.6135620000000 1.0
C      1  0.3888760000000  0.5183240000000  0.5081850000000 1.0
C      1  0.5745040000000  0.5506230000000  0.5664910000000 1.0
C      1  0.4522100000000  0.5171770000000  0.6010150000000 1.0
C      1  0.4560830000000  0.4539140000000  0.4127350000000 1.0
C      1  0.5012370000000  0.5549960000000  0.4193790000000 1.0
C      1  0.4882920000000  0.5039140000000  0.4282990000000 1.0
C      1  0.5664240000000  0.5724870000000  0.5489380000000 1.0
C      1  0.3996740000000  0.4609240000000  0.4685790000000 1.0
C      1  0.5583260000000  0.5395390000000  0.5878140000000 1.0
C      1  0.3912000000000  0.5144060000000  0.5529420000000 1.0
C      1  0.5199800000000  0.5487250000000  0.4420310000000 1.0
C      1  0.5122570000000  0.6076980000000  0.5186190000000 1.0
C      1  0.4197840000000  0.5850750000000  0.4995660000000 1.0
C      1  0.5662070000000  0.5207000000000  0.4129190000000 1.0
C      1  0.4889860000000  0.5738200000000  0.4842200000000 1.0
C      1  0.4661810000000  0.4702780000000  0.5990510000000 1.0
C      1  0.4194260000000  0.5521360000000  0.5401530000000 1.0
C      1  0.5541370000000  0.4416700000000  0.4342790000000 1.0
C      1  0.4818510000000  0.5645860000000  0.5131510000000 1.0
C      1  0.5059420000000  0.5994390000000  0.4911340000000 1.0
C      1  0.5776480000000  0.5327060000000  0.4390780000000 1.0
C      1  0.5335390000000  0.4090630000000  0.4941540000000 1.0
C      1  0.4891520000000  0.5413710000000  0.6111520000000 1.0
C      1  0.5629120000000  0.4913550000000  0.4139100000000 1.0
C      1  0.4905810000000  0.3899370000000  0.4767110000000 1.0
C      1  0.4239340000000  0.4901760000000  0.5744270000000 1.0
C      1  0.5098510000000  0.4321510000000  0.4898970000000 1.0
C      1  0.5828410000000  0.5653890000000  0.4733590000000 1.0
C      1  0.4488970000000  0.3984380000000  0.5134160000000 1.0
C      1  0.3979300000000  0.5327340000000  0.5332430000000 1.0
C      1  0.5730580000000  0.4701970000000  0.5828230000000 1.0
C      1  0.4782070000000  0.4113340000000  0.4262970000000 1.0
C      1  0.4050450000000  0.4897210000000  0.5525160000000 1.0
C      1  0.5725590000000  0.5782900000000  0.4967140000000 1.0
C      1  0.5403410000000  0.6038380000000  0.5230730000000 1.0
C      1  0.5657680000000  0.4474250000000  0.4831070000000 1.0
C      1  0.4999320000000  0.4560610000000  0.4499940000000 1.0
C      1  0.5145990000000  0.4016180000000  0.5377180000000 1.0
C      1  0.4372520000000  0.4811600000000  0.4835290000000 1.0
C      1  0.5550510000000  0.5129800000000  0.5797510000000 1.0
C      1  0.6113390000000  0.5354530000000  0.5021640000000 1.0
C      1  0.5094900000000  0.4468470000000  0.4212550000000 1.0
C      1  0.4840050000000  0.4527860000000  0.4012050000000 1.0
C      1  0.4600000000000  0.5743270000000  0.4722590000000 1.0
C      1  0.4288140000000  0.4088290000000  0.4967110000000 1.0
C      1  0.4639260000000  0.4698430000000  0.4883160000000 1.0
C      1  0.5304050000000  0.4440170000000  0.5877400000000 1.0
C      1  0.4347310000000  0.5060000000000  0.4930760000000 1.0
C      1  0.3881710000000  0.5050670000000  0.4631720000000 1.0
C      1  0.5048350000000  0.4326460000000  0.5827540000000 1.0
C      1  0.5451250000000  0.5311720000000  0.4001510000000 1.0
C      1  0.4797140000000  0.5736370000000  0.4229100000000 1.0
C      1  0.4018100000000  0.4733390000000  0.5287930000000 1.0
C      1  0.5315810000000  0.6019640000000  0.4775310000000 1.0
C      1  0.4240250000000  0.4181230000000  0.4689030000000 1.0
C      1  0.5535710000000  0.4934630000000  0.5060280000000 1.0
C      1  0.5577350000000  0.4467930000000  0.5767650000000 1.0
C      1  0.5363660000000  0.5934440000000  0.4527620000000 1.0
C      1  0.5310990000000  0.5163120000000  0.4482920000000 1.0
C      1  0.5225530000000  0.4714800000000  0.5885170000000 1.0
C      1  0.6072830000000  0.4921360000000  0.5220520000000 1.0
C      1  0.5755090000000  0.5624330000000  0.5219190000000 1.0
C      1  0.4501460000000  0.4137090000000  0.5377550000000 1.0
C      1  0.6207660000000  0.4935910000000  0.4754850000000 1.0
C      1  0.4450090000000  0.5271940000000  0.4228050000000 1.0
C      1  0.5186210000000  0.5018130000000  0.4718900000000 1.0
C      1  0.4233860000000  0.4754880000000  0.4554580000000 1.0
C      1  0.4796350000000  0.4434510000000  0.5932670000000 1.0
C      1  0.4225310000000  0.4907250000000  0.3986520000000 1.0
C      1  0.4160170000000  0.4484650000000  0.5250520000000 1.0
C      1  0.5494910000000  0.4595320000000  0.5039690000000 1.0
C      1  0.5070410000000  0.5606690000000  0.5281550000000 1.0
C      1  0.4772010000000  0.3986220000000  0.5037830000000 1.0
C      1  0.5160770000000  0.5038970000000  0.4257160000000 1.0
C      1  0.5425250000000  0.4761810000000  0.4007540000000 1.0
C      1  0.5269300000000  0.5456050000000  0.5132220000000 1.0
C      1  0.5517000000000  0.4631310000000  0.4560210000000 1.0
C      1  0.4932680000000  0.5180680000000  0.4740690000000 1.0
C      1  0.4091620000000  0.4288120000000  0.5058800000000 1.0
C      1  0.5578510000000  0.5093690000000  0.5319820000000 1.0
C      1  0.4673950000000  0.4585000000000  0.5439340000000 1.0
C      1  0.4956830000000  0.5343830000000  0.4001370000000 1.0
C      1  0.4946590000000  0.4262700000000  0.4096590000000 1.0
C      1  0.4527720000000  0.4237320000000  0.4239870000000 1.0
C      1  0.6039580000000  0.5468840000000  0.4766230000000 1.0
C      1  0.4864330000000  0.4298070000000  0.5083260000000 1.0
C      1  0.5195620000000  0.5934890000000  0.5619020000000 1.0
C      1  0.4074040000000  0.4986390000000  0.4427770000000 1.0
C      1  0.4756010000000  0.5776330000000  0.5726670000000 1.0
C      1  0.5576320000000  0.4185120000000  0.4778530000000 1.0
C      1  0.6204170000000  0.5094900000000  0.4534840000000 1.0
C      1  0.5536210000000  0.5389230000000  0.5249800000000 1.0
C      1  0.5936360000000  0.4638890000000  0.4457240000000 1.0
C      1  0.6173790000000  0.5071750000000  0.5010440000000 1.0
END
