TITL C-35912-4139-1 1.83583006504769 125000 -1174.32951442335 0 0 168 (C1) n - 1
REM
REM in /rds/project/t2_vol4/rds-t2-cs072/BORA/CARBON/from-Arr/AIRSS/Generating-Clusters/GAP-ML-2020/Higher-Symm/SD-CG/HFTN-CG/C160-200
REM
REM
REM
REM
REM
REM ./C.cell (6b4489405718ea1b717e0baf1da4c2d9)
REM AIRSS Version 0.9.1 bugfix July 2018 build 013d7b7c2542+ Fri, 06 Jul 2018 19:26:36 +0100
REM compiler GCC version 9.3.0
REM options -cpp -mtune=generic -march=x86-64 -g -O0
REM seed 168121769 1860717329 1214976600 -1406059655 1236304556 1686710412 -636638630 1511600799 2073203749 2122438861 853819637 1353294997 1950955151 1875266177 1975217421 268845694 -994145087 -1347131367 -1127403287 792211827 828880966 21671008 1892311214 1220574052 558648685 664898322 2141668451 707586355 1517536024 369261554 913900405 1724938535 -556064192
REM
CELL 1.54180   50.00000   50.00000   50.00000   90.00000   90.00000   90.00000
LATT -1
SFAC C  
C      1  0.4906600000000  0.4739040000000  0.5947680000000 1.0
C      1  0.4949900000000  0.5240470000000  0.3975980000000 1.0
C      1  0.4945660000000  0.4730140000000  0.4022020000000 1.0
C      1  0.4908990000000  0.5263790000000  0.5949300000000 1.0
C      1  0.5639610000000  0.5611290000000  0.4753370000000 1.0
C      1  0.5678800000000  0.4315850000000  0.5262170000000 1.0
C      1  0.5665230000000  0.5641010000000  0.5243460000000 1.0
C      1  0.5678890000000  0.4333730000000  0.4770630000000 1.0
C      1  0.4364020000000  0.4201490000000  0.5275780000000 1.0
C      1  0.4397550000000  0.5898130000000  0.4712540000000 1.0
C      1  0.4367740000000  0.4178120000000  0.4701820000000 1.0
C      1  0.4397150000000  0.5901430000000  0.5302420000000 1.0
C      1  0.5524370000000  0.4154400000000  0.5440270000000 1.0
C      1  0.5529740000000  0.5798120000000  0.4568240000000 1.0
C      1  0.5544540000000  0.4163720000000  0.4584330000000 1.0
C      1  0.5541450000000  0.5821380000000  0.5427150000000 1.0
C      1  0.5024110000000  0.4621670000000  0.4293780000000 1.0
C      1  0.4971030000000  0.5454390000000  0.5734320000000 1.0
C      1  0.4953750000000  0.4558630000000  0.5718010000000 1.0
C      1  0.4918910000000  0.5462650000000  0.4241420000000 1.0
C      1  0.5369120000000  0.4750660000000  0.5945870000000 1.0
C      1  0.5412190000000  0.5236240000000  0.4019510000000 1.0
C      1  0.5416370000000  0.4729820000000  0.4021870000000 1.0
C      1  0.5378350000000  0.5242680000000  0.5941280000000 1.0
C      1  0.4629440000000  0.4693220000000  0.6017310000000 1.0
C      1  0.4714750000000  0.5360930000000  0.4068780000000 1.0
C      1  0.4664130000000  0.4687980000000  0.3973990000000 1.0
C      1  0.4633040000000  0.5312170000000  0.6014980000000 1.0
C      1  0.4823280000000  0.5998850000000  0.4636750000000 1.0
C      1  0.4788900000000  0.4024710000000  0.5355800000000 1.0
C      1  0.4825310000000  0.6001280000000  0.5368990000000 1.0
C      1  0.4817060000000  0.4062310000000  0.4665430000000 1.0
C      1  0.5351650000000  0.4000670000000  0.4737650000000 1.0
C      1  0.5363020000000  0.5992870000000  0.5268550000000 1.0
C      1  0.5339110000000  0.3993280000000  0.5278450000000 1.0
C      1  0.5360800000000  0.5982230000000  0.4724690000000 1.0
C      1  0.5081760000000  0.4000520000000  0.5409050000000 1.0
C      1  0.5111460000000  0.6001280000000  0.4585790000000 1.0
C      1  0.5096390000000  0.4014380000000  0.4604170000000 1.0
C      1  0.5115130000000  0.6006400000000  0.5414590000000 1.0
C      1  0.5173630000000  0.5853750000000  0.5660430000000 1.0
C      1  0.5173970000000  0.4181620000000  0.4368920000000 1.0
C      1  0.5166020000000  0.5852340000000  0.4338110000000 1.0
C      1  0.5146240000000  0.4155210000000  0.5651930000000 1.0
C      1  0.5780830000000  0.5306040000000  0.5841180000000 1.0
C      1  0.5812440000000  0.4700810000000  0.4161100000000 1.0
C      1  0.5780630000000  0.5309990000000  0.4180080000000 1.0
C      1  0.5776080000000  0.4688370000000  0.5858000000000 1.0
C      1  0.5171640000000  0.4807280000000  0.6403700000000 1.0
C      1  0.5233220000000  0.5019060000000  0.3682870000000 1.0
C      1  0.5228680000000  0.4784320000000  0.3570580000000 1.0
C      1  0.5186250000000  0.5054800000000  0.6313360000000 1.0
C      1  0.4144120000000  0.5262360000000  0.5497910000000 1.0
C      1  0.4162440000000  0.4723860000000  0.4481950000000 1.0
C      1  0.4163630000000  0.5262260000000  0.4503730000000 1.0
C      1  0.4156940000000  0.4717390000000  0.5490060000000 1.0
C      1  0.4629200000000  0.5472560000000  0.4780900000000 1.0
C      1  0.4718350000000  0.4598870000000  0.5200970000000 1.0
C      1  0.4635900000000  0.5475760000000  0.5230760000000 1.0
C      1  0.4723260000000  0.4547970000000  0.4743950000000 1.0
C      1  0.5648380000000  0.5141540000000  0.6031700000000 1.0
C      1  0.5691460000000  0.4852620000000  0.3956620000000 1.0
C      1  0.5690540000000  0.5143630000000  0.3964870000000 1.0
C      1  0.5639030000000  0.4857110000000  0.6041860000000 1.0
C      1  0.5508850000000  0.5442000000000  0.5746760000000 1.0
C      1  0.5543540000000  0.4543090000000  0.4248550000000 1.0
C      1  0.5493850000000  0.5429610000000  0.4241880000000 1.0
C      1  0.5508430000000  0.4548900000000  0.5753480000000 1.0
C      1  0.5559610000000  0.4584590000000  0.5261280000000 1.0
C      1  0.5468290000000  0.5363080000000  0.4739260000000 1.0
C      1  0.5550370000000  0.4613430000000  0.4759740000000 1.0
C      1  0.5514350000000  0.5393980000000  0.5257050000000 1.0
C      1  0.4223180000000  0.5752710000000  0.5150780000000 1.0
C      1  0.4209510000000  0.4357990000000  0.4849310000000 1.0
C      1  0.4223230000000  0.5753080000000  0.4866990000000 1.0
C      1  0.4174580000000  0.4351230000000  0.5136000000000 1.0
C      1  0.4921760000000  0.5747650000000  0.4247870000000 1.0
C      1  0.4907260000000  0.4278310000000  0.5733790000000 1.0
C      1  0.4932190000000  0.5736370000000  0.5748470000000 1.0
C      1  0.4960590000000  0.4351800000000  0.4328510000000 1.0
C      1  0.4740950000000  0.4303470000000  0.4504030000000 1.0
C      1  0.4712430000000  0.5845490000000  0.5598320000000 1.0
C      1  0.4687850000000  0.4173090000000  0.5583020000000 1.0
C      1  0.4707840000000  0.5848840000000  0.4407230000000 1.0
C      1  0.5027260000000  0.5347460000000  0.5466260000000 1.0
C      1  0.5115810000000  0.4772410000000  0.4545120000000 1.0
C      1  0.4983380000000  0.5335000000000  0.4526960000000 1.0
C      1  0.5048190000000  0.4653850000000  0.5458940000000 1.0
C      1  0.5575210000000  0.4738440000000  0.5506400000000 1.0
C      1  0.5514090000000  0.5211890000000  0.4501580000000 1.0
C      1  0.5576710000000  0.4739910000000  0.4490310000000 1.0
C      1  0.5565750000000  0.5234550000000  0.5488990000000 1.0
C      1  0.4631500000000  0.6021720000000  0.4852770000000 1.0
C      1  0.4584370000000  0.4044390000000  0.5144590000000 1.0
C      1  0.4631860000000  0.6022860000000  0.5155070000000 1.0
C      1  0.4594850000000  0.4039600000000  0.4851460000000 1.0
C      1  0.4439210000000  0.4584140000000  0.4842930000000 1.0
C      1  0.4329240000000  0.5477040000000  0.5156240000000 1.0
C      1  0.4461350000000  0.4695370000000  0.5100390000000 1.0
C      1  0.4327900000000  0.5478360000000  0.4857630000000 1.0
C      1  0.5799250000000  0.5144920000000  0.4413580000000 1.0
C      1  0.5820380000000  0.4853820000000  0.5629260000000 1.0
C      1  0.5820770000000  0.5137690000000  0.5615910000000 1.0
C      1  0.5832760000000  0.4861300000000  0.4397790000000 1.0
C      1  0.4314770000000  0.5461080000000  0.5650560000000 1.0
C      1  0.4343320000000  0.4561180000000  0.4335530000000 1.0
C      1  0.4338710000000  0.5460600000000  0.4359200000000 1.0
C      1  0.4327680000000  0.4555790000000  0.5645580000000 1.0
C      1  0.5193090000000  0.4673110000000  0.3835180000000 1.0
C      1  0.5157670000000  0.5259440000000  0.6137490000000 1.0
C      1  0.5151040000000  0.4705090000000  0.6134010000000 1.0
C      1  0.5197600000000  0.5256700000000  0.3809710000000 1.0
C      1  0.4171760000000  0.4637330000000  0.5208910000000 1.0
C      1  0.4148070000000  0.5271190000000  0.4780500000000 1.0
C      1  0.4157650000000  0.4641930000000  0.4753610000000 1.0
C      1  0.4140450000000  0.5271810000000  0.5221540000000 1.0
C      1  0.5204960000000  0.5416490000000  0.5243230000000 1.0
C      1  0.5255130000000  0.4582160000000  0.4741550000000 1.0
C      1  0.5175640000000  0.5394510000000  0.4747770000000 1.0
C      1  0.5241310000000  0.4522820000000  0.5268200000000 1.0
C      1  0.4408420000000  0.5282150000000  0.5870170000000 1.0
C      1  0.4451520000000  0.4740820000000  0.4125490000000 1.0
C      1  0.4458810000000  0.5291200000000  0.4151720000000 1.0
C      1  0.4415220000000  0.4732200000000  0.5865530000000 1.0
C      1  0.4878470000000  0.4822170000000  0.4734250000000 1.0
C      1  0.4757480000000  0.5277910000000  0.5390120000000 1.0
C      1  0.4883360000000  0.4823600000000  0.5280420000000 1.0
C      1  0.4734410000000  0.5251780000000  0.4642610000000 1.0
C      1  0.5414530000000  0.4272930000000  0.5672230000000 1.0
C      1  0.5418340000000  0.5707530000000  0.4323060000000 1.0
C      1  0.5449520000000  0.4274230000000  0.4339960000000 1.0
C      1  0.5431990000000  0.5720110000000  0.5669660000000 1.0
C      1  0.4453900000000  0.4317700000000  0.4452470000000 1.0
C      1  0.4449120000000  0.5736910000000  0.5562130000000 1.0
C      1  0.4437060000000  0.4305480000000  0.5535890000000 1.0
C      1  0.4451490000000  0.5732950000000  0.4450420000000 1.0
C      1  0.5362240000000  0.4950650000000  0.4446580000000 1.0
C      1  0.5397880000000  0.4983130000000  0.5473100000000 1.0
C      1  0.4295380000000  0.5003010000000  0.5836810000000 1.0
C      1  0.4343630000000  0.5015520000000  0.4167420000000 1.0
C      1  0.4980240000000  0.5000340000000  0.5820530000000 1.0
C      1  0.5017840000000  0.4997470000000  0.4105430000000 1.0
C      1  0.5305890000000  0.4981350000000  0.4156110000000 1.0
C      1  0.5267320000000  0.4993860000000  0.5771750000000 1.0
C      1  0.5456090000000  0.5973760000000  0.4994820000000 1.0
C      1  0.5446050000000  0.3997820000000  0.5010530000000 1.0
C      1  0.5664700000000  0.4190960000000  0.5012640000000 1.0
C      1  0.5652560000000  0.5760050000000  0.4992230000000 1.0
C      1  0.4134820000000  0.4990950000000  0.5609380000000 1.0
C      1  0.4163030000000  0.4999670000000  0.4379360000000 1.0
C      1  0.4792130000000  0.5517380000000  0.5004160000000 1.0
C      1  0.4854710000000  0.4461010000000  0.4993040000000 1.0
C      1  0.5130740000000  0.4546200000000  0.4999630000000 1.0
C      1  0.5075110000000  0.5474140000000  0.4997260000000 1.0
C      1  0.4670360000000  0.5011900000000  0.4767570000000 1.0
C      1  0.4682950000000  0.5033200000000  0.5294090000000 1.0
C      1  0.3550930000000  0.4885080000000  0.5115290000000 1.0
C      1  0.4041700000000  0.4794070000000  0.4981530000000 1.0
C      1  0.5067430000000  0.4857500000000  0.5032970000000 1.0
C      1  0.6527190000000  0.5113100000000  0.4710190000000 1.0
C      1  0.3755700000000  0.4824190000000  0.4987630000000 1.0
C      1  0.4179820000000  0.5070070000000  0.5001260000000 1.0
C      1  0.6279500000000  0.5057640000000  0.4754270000000 1.0
C      1  0.4501150000000  0.4987410000000  0.5041150000000 1.0
C      1  0.6053730000000  0.4981950000000  0.4867040000000 1.0
C      1  0.5835450000000  0.4933030000000  0.4978930000000 1.0
C      1  0.5590920000000  0.4787400000000  0.5021380000000 1.0
C      1  0.5334960000000  0.4957580000000  0.5129450000000 1.0
END
