TITL C-35350-8724-2 0.0576241828417823 125000 -453.359254923466 0 0 67 (C1) n - 1
REM
REM in /rds/project/t2_vol4/rds-t2-cs072/BORA/CARBON/from-Arr/AIRSS/Generating-Clusters/GAP-ML-2020/Higher-Symm/SD-CG/HFTN-CG
REM
REM
REM
REM
REM
REM ./C.cell (b20cbc046b6831c77cfcea5457e17084)
REM AIRSS Version 0.9.1 bugfix July 2018 build 013d7b7c2542+ Fri, 06 Jul 2018 19:26:36 +0100
REM compiler GCC version 9.3.0
REM options -cpp -mtune=generic -march=x86-64 -g -O0
REM seed -710582862 -407611453 -1984097110 -1302341124 1649881167 -1211963788 2007150940 392590992 152217257 1874308518 -1525640276 258684522 -1071991090 -2093944972 -891650196 -1714009888 -664460063 -886518645 1873881648 936112130 -1651335976 -1203942760 757478342 -1645829478 413946361 1828922749 1185931512 1299096403 2070309548 1357311267 -1298017626 1399770435 -587881802
REM
CELL 1.54180   50.00000   50.00000   50.00000   90.00000   90.00000   90.00000
LATT -1
SFAC C  
C      1  0.4864730000000  0.4254420000000  0.4756820000000 1.0
C      1  0.4748700000000  0.4943740000000  0.4229180000000 1.0
C      1  0.4212610000000  0.4764190000000  0.4990620000000 1.0
C      1  0.5174630000000  0.5845990000000  0.4619050000000 1.0
C      1  0.5056210000000  0.4183390000000  0.5413940000000 1.0
C      1  0.4900800000000  0.5762510000000  0.5248970000000 1.0
C      1  0.5250200000000  0.5063360000000  0.4172630000000 1.0
C      1  0.5309270000000  0.4836250000000  0.5741310000000 1.0
C      1  0.4628400000000  0.5030900000000  0.5883810000000 1.0
C      1  0.5755760000000  0.5285750000000  0.4778370000000 1.0
C      1  0.5772330000000  0.4578960000000  0.4909570000000 1.0
C      1  0.4223160000000  0.5290180000000  0.5049620000000 1.0
C      1  0.4255030000000  0.4904230000000  0.4740310000000 1.0
C      1  0.4920070000000  0.4707030000000  0.4251290000000 1.0
C      1  0.4677290000000  0.4239640000000  0.4988080000000 1.0
C      1  0.5797570000000  0.5016460000000  0.4710730000000 1.0
C      1  0.4180160000000  0.5221580000000  0.5314830000000 1.0
C      1  0.5805240000000  0.4942330000000  0.5201910000000 1.0
C      1  0.5178810000000  0.5331960000000  0.4145520000000 1.0
C      1  0.5000300000000  0.5289170000000  0.5769180000000 1.0
C      1  0.5036480000000  0.4804360000000  0.5800570000000 1.0
C      1  0.5252040000000  0.5791070000000  0.4888150000000 1.0
C      1  0.4746160000000  0.5798790000000  0.4991060000000 1.0
C      1  0.5160390000000  0.4177980000000  0.5147770000000 1.0
C      1  0.4682290000000  0.5060460000000  0.4483060000000 1.0
C      1  0.4439990000000  0.4681510000000  0.5137250000000 1.0
C      1  0.4993010000000  0.4500870000000  0.4711890000000 1.0
C      1  0.5386000000000  0.4981310000000  0.4417520000000 1.0
C      1  0.5341540000000  0.4925090000000  0.5489070000000 1.0
C      1  0.4499270000000  0.5042230000000  0.5668350000000 1.0
C      1  0.5530990000000  0.5321920000000  0.4917710000000 1.0
C      1  0.5580070000000  0.4432120000000  0.4976550000000 1.0
C      1  0.4491870000000  0.5352650000000  0.4975520000000 1.0
C      1  0.5036330000000  0.5622280000000  0.4549710000000 1.0
C      1  0.4963730000000  0.4432290000000  0.5450700000000 1.0
C      1  0.4975230000000  0.5497760000000  0.5292460000000 1.0
C      1  0.5019730000000  0.4678210000000  0.4511670000000 1.0
C      1  0.4631210000000  0.4486700000000  0.5112310000000 1.0
C      1  0.4528820000000  0.4981100000000  0.4704530000000 1.0
C      1  0.5042690000000  0.5413530000000  0.4363380000000 1.0
C      1  0.4996890000000  0.5304470000000  0.5496980000000 1.0
C      1  0.4890080000000  0.4655650000000  0.5609710000000 1.0
C      1  0.5330580000000  0.5519970000000  0.4953110000000 1.0
C      1  0.4651570000000  0.5555960000000  0.4870850000000 1.0
C      1  0.5317430000000  0.4391910000000  0.5042020000000 1.0
C      1  0.5633640000000  0.4938680000000  0.4505860000000 1.0
C      1  0.4391950000000  0.5076180000000  0.5420880000000 1.0
C      1  0.5547190000000  0.4952460000000  0.5282460000000 1.0
C      1  0.5066290000000  0.5036720000000  0.5366800000000 1.0
C      1  0.5420410000000  0.5055710000000  0.5036250000000 1.0
C      1  0.5076460000000  0.5382730000000  0.5027100000000 1.0
C      1  0.4839520000000  0.4837700000000  0.5364250000000 1.0
C      1  0.4929990000000  0.5199810000000  0.4562170000000 1.0
C      1  0.5140230000000  0.4948620000000  0.4608240000000 1.0
C      1  0.4576550000000  0.4930380000000  0.5227200000000 1.0
C      1  0.4616770000000  0.5090350000000  0.4966810000000 1.0
C      1  0.5190560000000  0.4893030000000  0.4897070000000 1.0
C      1  0.4898230000000  0.4593330000000  0.5192150000000 1.0
C      1  0.4904510000000  0.5436010000000  0.4767800000000 1.0
C      1  0.5116770000000  0.4606540000000  0.4970620000000 1.0
C      1  0.4932790000000  0.4146650000000  0.4997390000000 1.0
C      1  0.5005840000000  0.4942610000000  0.4141250000000 1.0
C      1  0.4153300000000  0.5031890000000  0.4965480000000 1.0
C      1  0.5011230000000  0.5845530000000  0.5007800000000 1.0
C      1  0.4902520000000  0.5043100000000  0.5843570000000 1.0
C      1  0.5835550000000  0.4845350000000  0.4938980000000 1.0
C      1  0.5131270000000  0.5100370000000  0.5090660000000 1.0
END
