TITL C-3536-9250-3 -0.0658314776951233 125000 -220.543006213228 0 0 33 (C3) n - 1
REM
REM in /rds/project/t2_vol4/rds-t2-cs072/BORA/CARBON/from-Arr/AIRSS/Generating-Clusters/GAP-ML-2020/Higher-Symm/SD-CG/HFTN-CG
REM
REM
REM
REM
REM
REM ./C.cell (b20cbc046b6831c77cfcea5457e17084)
REM AIRSS Version 0.9.1 bugfix July 2018 build 013d7b7c2542+ Fri, 06 Jul 2018 19:26:36 +0100
REM compiler GCC version 9.3.0
REM options -cpp -mtune=generic -march=x86-64 -g -O0
REM seed 249841895 2102094774 -1456889160 656597850 715749365 648525823 406303276 1292332517 2009866115 -802152053 -1572261991 1363749337 1082236654 538939863 121223047 748600667 336386670 841084410 1985240394 -582498453 -623420263 1408456877 -381171759 1821015567 465129286 1864739379 -1374261383 -719865697 -653800098 1583929447 -45251248 -1608641618 1275343010
REM
CELL 1.54180   50.00000   50.00000   50.00000   90.00000   90.00000   90.00000
LATT -1
SFAC C  
C      1  0.5337580000000  0.4791390000000  0.5367650000000 1.0
C      1  0.4512230000000  0.4793250000000  0.5109470000000 1.0
C      1  0.5148500000000  0.4790680000000  0.4523790000000 1.0
C      1  0.4650710000000  0.4659590000000  0.5326760000000 1.0
C      1  0.4890710000000  0.4657790000000  0.4535670000000 1.0
C      1  0.5455810000000  0.4657140000000  0.5139070000000 1.0
C      1  0.5360530000000  0.4732040000000  0.4694740000000 1.0
C      1  0.5083350000000  0.4733910000000  0.5466060000000 1.0
C      1  0.4553960000000  0.4734430000000  0.4840360000000 1.0
C      1  0.5590630000000  0.4920650000000  0.5062710000000 1.0
C      1  0.4650160000000  0.4923810000000  0.5480500000000 1.0
C      1  0.4758580000000  0.4922030000000  0.4457130000000 1.0
C      1  0.5051570000000  0.5315140000000  0.4613240000000 1.0
C      1  0.5310040000000  0.5315350000000  0.5236620000000 1.0
C      1  0.4640950000000  0.5317030000000  0.5148760000000 1.0
C      1  0.5448720000000  0.5056160000000  0.5271650000000 1.0
C      1  0.4540550000000  0.5058600000000  0.5252520000000 1.0
C      1  0.5011190000000  0.5056190000000  0.4475580000000 1.0
C      1  0.4848140000000  0.5462610000000  0.4719270000000 1.0
C      1  0.5320350000000  0.5461750000000  0.5006760000000 1.0
C      1  0.4835270000000  0.5463450000000  0.5271960000000 1.0
C      1  0.5518390000000  0.5197250000000  0.4684670000000 1.0
C      1  0.5014450000000  0.5199960000000  0.5605710000000 1.0
C      1  0.4468780000000  0.5200130000000  0.4708750000000 1.0
C      1  0.4899770000000  0.4548260000000  0.5331270000000 1.0
C      1  0.4761960000000  0.4547790000000  0.4749610000000 1.0
C      1  0.5334590000000  0.4546490000000  0.4921100000000 1.0
C      1  0.4542730000000  0.4952630000000  0.4637430000000 1.0
C      1  0.5542490000000  0.4950140000000  0.4785500000000 1.0
C      1  0.4914390000000  0.4952990000000  0.5577280000000 1.0
C      1  0.5306860000000  0.5359270000000  0.4749700000000 1.0
C      1  0.5064350000000  0.5360850000000  0.5389270000000 1.0
C      1  0.4631720000000  0.5361250000000  0.4859460000000 1.0
END
