TITL C-3513-9191-7 -79.4200644120836 125000 -775.863113954638 0 0 112 (S8) n - 1
REM
REM in /rds/project/t2_vol4/rds-t2-cs072/BORA/CARBON/from-Arr/AIRSS/Generating-Clusters/GAP-ML-2020/Higher-Symm/SD-CG/HFTN-CG
REM
REM
REM
REM
REM
REM ./C.cell (b20cbc046b6831c77cfcea5457e17084)
REM AIRSS Version 0.9.1 bugfix July 2018 build 013d7b7c2542+ Fri, 06 Jul 2018 19:26:36 +0100
REM compiler GCC version 9.3.0
REM options -cpp -mtune=generic -march=x86-64 -g -O0
REM seed 606434351 -2088332210 1943792038 -159268510 -487659781 -684585625 -765696035 568053983 1149325576 -2085194209 -1594408371 1991594447 -210323306 -1493005157 -488940366 254689575 -29426683 250252211 -1827328433 -551069071 652346067 2095940412 -677678075 -1721390121 -1000949129 173943631 -650536788 -1797282660 478498608 978474031 -409945423 1952478387 1997361707
REM
CELL 1.54180   50.00000   50.00000   50.00000   90.00000   90.00000   90.00000
LATT -1
SFAC C  
C      1  0.5418570000000  0.5684460000000  0.5446770000000 1.0
C      1  0.4979990000000  0.4316040000000  0.5612440000000 1.0
C      1  0.4552860000000  0.5684350000000  0.5418360000000 1.0
C      1  0.4387930000000  0.4315700000000  0.4980200000000 1.0
C      1  0.4581270000000  0.5683980000000  0.4552650000000 1.0
C      1  0.5020170000000  0.4315520000000  0.4388140000000 1.0
C      1  0.5446990000000  0.5684090000000  0.4581060000000 1.0
C      1  0.5612230000000  0.4315860000000  0.5020380000000 1.0
C      1  0.5608040000000  0.4640290000000  0.5773720000000 1.0
C      1  0.4882890000000  0.5360510000000  0.5976770000000 1.0
C      1  0.4226470000000  0.4640070000000  0.5608160000000 1.0
C      1  0.4023040000000  0.5359940000000  0.4882780000000 1.0
C      1  0.4392040000000  0.4639490000000  0.4226580000000 1.0
C      1  0.5117030000000  0.5359700000000  0.4022930000000 1.0
C      1  0.5773610000000  0.4639720000000  0.4392150000000 1.0
C      1  0.5976880000000  0.5360270000000  0.5116920000000 1.0
C      1  0.4899280000000  0.4655270000000  0.5188900000000 1.0
C      1  0.4795250000000  0.5344800000000  0.5062080000000 1.0
C      1  0.4811280000000  0.4655140000000  0.4899390000000 1.0
C      1  0.4937740000000  0.5344700000000  0.4795140000000 1.0
C      1  0.5100790000000  0.4655130000000  0.4811390000000 1.0
C      1  0.5204680000000  0.5344790000000  0.4937630000000 1.0
C      1  0.5188790000000  0.4655270000000  0.5100900000000 1.0
C      1  0.5062190000000  0.5344890000000  0.5204570000000 1.0
C      1  0.4745680000000  0.4517250000000  0.5620270000000 1.0
C      1  0.4381620000000  0.5483020000000  0.5258380000000 1.0
C      1  0.4379990000000  0.4516840000000  0.4745830000000 1.0
C      1  0.4741360000000  0.5482690000000  0.4381470000000 1.0
C      1  0.5254430000000  0.4516780000000  0.4380140000000 1.0
C      1  0.5618270000000  0.5482940000000  0.4741210000000 1.0
C      1  0.5620120000000  0.4517200000000  0.5254590000000 1.0
C      1  0.5258530000000  0.5483280000000  0.5618120000000 1.0
C      1  0.5591620000000  0.5563250000000  0.5268440000000 1.0
C      1  0.5228470000000  0.4437220000000  0.5608610000000 1.0
C      1  0.4731250000000  0.5563290000000  0.5591450000000 1.0
C      1  0.4391690000000  0.4436960000000  0.5228640000000 1.0
C      1  0.4408250000000  0.5562890000000  0.4731080000000 1.0
C      1  0.4771660000000  0.4436650000000  0.4391870000000 1.0
C      1  0.5268620000000  0.5562850000000  0.4408070000000 1.0
C      1  0.5608440000000  0.4436900000000  0.4771840000000 1.0
C      1  0.4181740000000  0.4837160000000  0.5132880000000 1.0
C      1  0.4327460000000  0.5162520000000  0.4515230000000 1.0
C      1  0.4867200000000  0.4836840000000  0.4181790000000 1.0
C      1  0.5484680000000  0.5162570000000  0.4327410000000 1.0
C      1  0.5818300000000  0.4837240000000  0.4867260000000 1.0
C      1  0.5672510000000  0.5163080000000  0.5484630000000 1.0
C      1  0.5132830000000  0.4837560000000  0.5818350000000 1.0
C      1  0.4515280000000  0.5163030000000  0.5672450000000 1.0
C      1  0.4745730000000  0.5090620000000  0.4190020000000 1.0
C      1  0.5392940000000  0.4908730000000  0.4247540000000 1.0
C      1  0.5809930000000  0.5090970000000  0.4745710000000 1.0
C      1  0.5752510000000  0.4909260000000  0.5392970000000 1.0
C      1  0.5254250000000  0.5091360000000  0.5809900000000 1.0
C      1  0.4607080000000  0.4909290000000  0.5752540000000 1.0
C      1  0.4190050000000  0.5091010000000  0.5254220000000 1.0
C      1  0.4247510000000  0.4908760000000  0.4607110000000 1.0
C      1  0.4993530000000  0.5553800000000  0.4530010000000 1.0
C      1  0.5327700000000  0.4445890000000  0.4663540000000 1.0
C      1  0.5469690000000  0.5554050000000  0.4993360000000 1.0
C      1  0.5336760000000  0.4446180000000  0.5327870000000 1.0
C      1  0.5006340000000  0.5554200000000  0.5469520000000 1.0
C      1  0.4672430000000  0.4446110000000  0.5336930000000 1.0
C      1  0.4530180000000  0.5553950000000  0.5006170000000 1.0
C      1  0.4663370000000  0.4445820000000  0.4672600000000 1.0
C      1  0.4913960000000  0.4916820000000  0.5343360000000 1.0
C      1  0.4696380000000  0.5083360000000  0.5181880000000 1.0
C      1  0.4656690000000  0.4916610000000  0.4913990000000 1.0
C      1  0.4818070000000  0.5083160000000  0.4696350000000 1.0
C      1  0.5086060000000  0.4916550000000  0.4656710000000 1.0
C      1  0.5303600000000  0.5083270000000  0.4818040000000 1.0
C      1  0.5343330000000  0.4916760000000  0.5086080000000 1.0
C      1  0.5181910000000  0.5083460000000  0.5303580000000 1.0
C      1  0.4447070000000  0.5187960000000  0.5370380000000 1.0
C      1  0.4347110000000  0.4812000000000  0.4871070000000 1.0
C      1  0.4629520000000  0.5187590000000  0.4447020000000 1.0
C      1  0.5129030000000  0.4811870000000  0.4347160000000 1.0
C      1  0.5552880000000  0.5187780000000  0.4629460000000 1.0
C      1  0.5652940000000  0.4812260000000  0.5129090000000 1.0
C      1  0.5370440000000  0.5188150000000  0.5552820000000 1.0
C      1  0.4871010000000  0.4812390000000  0.5653000000000 1.0
C      1  0.4622390000000  0.4129640000000  0.4989930000000 1.0
C      1  0.4740200000000  0.5870170000000  0.4725170000000 1.0
C      1  0.5010540000000  0.4129530000000  0.4622660000000 1.0
C      1  0.5274360000000  0.5870230000000  0.4739930000000 1.0
C      1  0.5377800000000  0.4129730000000  0.5010810000000 1.0
C      1  0.5259600000000  0.5870460000000  0.5274090000000 1.0
C      1  0.4989660000000  0.4129850000000  0.5378080000000 1.0
C      1  0.4725440000000  0.5870390000000  0.5259330000000 1.0
C      1  0.4212900000000  0.5370550000000  0.4671740000000 1.0
C      1  0.4675510000000  0.4628840000000  0.4211620000000 1.0
C      1  0.5328060000000  0.5370480000000  0.4212790000000 1.0
C      1  0.5788580000000  0.4629170000000  0.4675630000000 1.0
C      1  0.5787010000000  0.5371010000000  0.5327940000000 1.0
C      1  0.5324570000000  0.4629590000000  0.5788690000000 1.0
C      1  0.4671860000000  0.5371080000000  0.5786900000000 1.0
C      1  0.4211510000000  0.4629270000000  0.5324690000000 1.0
C      1  0.5006660000000  0.5832510000000  0.4644450000000 1.0
C      1  0.5256030000000  0.4167260000000  0.4753970000000 1.0
C      1  0.5355100000000  0.5832700000000  0.5006400000000 1.0
C      1  0.5246490000000  0.4167480000000  0.5256290000000 1.0
C      1  0.4993150000000  0.5832810000000  0.5354850000000 1.0
C      1  0.4744160000000  0.4167420000000  0.5246740000000 1.0
C      1  0.4644710000000  0.5832620000000  0.4992890000000 1.0
C      1  0.4753700000000  0.4167200000000  0.4744420000000 1.0
C      1  0.4476120000000  0.4658360000000  0.5715710000000 1.0
C      1  0.4123510000000  0.5341840000000  0.5135370000000 1.0
C      1  0.4284470000000  0.4657810000000  0.4476220000000 1.0
C      1  0.4864450000000  0.5341490000000  0.4123400000000 1.0
C      1  0.5523960000000  0.4657870000000  0.4284580000000 1.0
C      1  0.5876410000000  0.5341930000000  0.4864340000000 1.0
C      1  0.5715610000000  0.4658420000000  0.5524070000000 1.0
C      1  0.5135470000000  0.5342270000000  0.5876310000000 1.0
END
