TITL C-35887-4294-3 0.0911952586900821 125000 -1255.4379822827 0 0 179 (C1) n - 1
REM
REM in /rds/project/t2_vol4/rds-t2-cs072/BORA/CARBON/from-Arr/AIRSS/Generating-Clusters/GAP-ML-2020/Higher-Symm/SD-CG/HFTN-CG/C160-200
REM
REM
REM
REM
REM
REM ./C.cell (6b4489405718ea1b717e0baf1da4c2d9)
REM AIRSS Version 0.9.1 bugfix July 2018 build 013d7b7c2542+ Fri, 06 Jul 2018 19:26:36 +0100
REM compiler GCC version 9.3.0
REM options -cpp -mtune=generic -march=x86-64 -g -O0
REM seed 96670936 -1631387642 -1271479347 1417970253 -2081667437 -831648896 -1517438618 851645134 -1975709620 -89009100 -371595256 -814427001 -839586222 1848800171 -605967885 215355924 -586985927 -978682164 1051592152 -539986918 1258733336 -2094381470 -2084088319 -447705997 1571707374 -556431379 -1102659607 -546325485 -874644299 -774923899 -2142451840 1159854683 -1606544259
REM
CELL 1.54180   50.00000   50.00000   50.00000   90.00000   90.00000   90.00000
LATT -1
SFAC C  
C      1  0.4461010000000  0.5049600000000  0.6076300000000 1.0
C      1  0.4551680000000  0.5331500000000  0.6067760000000 1.0
C      1  0.4762730000000  0.5513590000000  0.6067370000000 1.0
C      1  0.5055770000000  0.5560080000000  0.6076290000000 1.0
C      1  0.5288860000000  0.5399840000000  0.6007260000000 1.0
C      1  0.5470960000000  0.5177350000000  0.6106050000000 1.0
C      1  0.5392420000000  0.4911230000000  0.6077940000000 1.0
C      1  0.5317220000000  0.4633710000000  0.6136620000000 1.0
C      1  0.5040860000000  0.4560680000000  0.6071990000000 1.0
C      1  0.4756170000000  0.4561540000000  0.6099340000000 1.0
C      1  0.4576360000000  0.4791340000000  0.6008030000000 1.0
C      1  0.4610400000000  0.5253220000000  0.4494010000000 1.0
C      1  0.4888710000000  0.5317260000000  0.4487810000000 1.0
C      1  0.5131860000000  0.5482020000000  0.4442010000000 1.0
C      1  0.5365080000000  0.5378390000000  0.4248290000000 1.0
C      1  0.5519080000000  0.5129260000000  0.4300090000000 1.0
C      1  0.5498490000000  0.4862810000000  0.4175430000000 1.0
C      1  0.5248370000000  0.4715150000000  0.4302250000000 1.0
C      1  0.5049050000000  0.4497580000000  0.4186940000000 1.0
C      1  0.4784790000000  0.4535300000000  0.4337740000000 1.0
C      1  0.4564510000000  0.4731650000000  0.4265720000000 1.0
C      1  0.4499850000000  0.4983200000000  0.4452280000000 1.0
C      1  0.4279710000000  0.5502010000000  0.4241740000000 1.0
C      1  0.4640680000000  0.5785780000000  0.4247460000000 1.0
C      1  0.5099720000000  0.5750030000000  0.4290400000000 1.0
C      1  0.5550690000000  0.5599080000000  0.4330780000000 1.0
C      1  0.5773280000000  0.5191450000000  0.4441180000000 1.0
C      1  0.5771860000000  0.4747610000000  0.4267480000000 1.0
C      1  0.5581760000000  0.4302910000000  0.4287400000000 1.0
C      1  0.5106040000000  0.4208460000000  0.4270870000000 1.0
C      1  0.4657520000000  0.4274600000000  0.4399540000000 1.0
C      1  0.4317320000000  0.4583730000000  0.4339060000000 1.0
C      1  0.4235360000000  0.5045190000000  0.4293680000000 1.0
C      1  0.5904770000000  0.4981160000000  0.5503980000000 1.0
C      1  0.5773660000000  0.4480420000000  0.5544160000000 1.0
C      1  0.5368250000000  0.4142440000000  0.5551910000000 1.0
C      1  0.4839720000000  0.4101780000000  0.5485430000000 1.0
C      1  0.4346560000000  0.4351160000000  0.5484890000000 1.0
C      1  0.4069370000000  0.4774090000000  0.5529710000000 1.0
C      1  0.4111840000000  0.5289690000000  0.5494140000000 1.0
C      1  0.4405080000000  0.5718950000000  0.5492100000000 1.0
C      1  0.4881440000000  0.5929150000000  0.5487640000000 1.0
C      1  0.5396170000000  0.5876000000000  0.5526220000000 1.0
C      1  0.5755260000000  0.5516090000000  0.5483760000000 1.0
C      1  0.5434840000000  0.5113780000000  0.5619540000000 1.0
C      1  0.5436960000000  0.4865510000000  0.5788200000000 1.0
C      1  0.5312750000000  0.4619920000000  0.5658680000000 1.0
C      1  0.5055640000000  0.4528940000000  0.5778580000000 1.0
C      1  0.4809200000000  0.4590560000000  0.5612500000000 1.0
C      1  0.4635010000000  0.4804430000000  0.5721240000000 1.0
C      1  0.4486760000000  0.4996630000000  0.5565510000000 1.0
C      1  0.4568980000000  0.5286950000000  0.5556600000000 1.0
C      1  0.4799770000000  0.5481890000000  0.5554280000000 1.0
C      1  0.5099060000000  0.5509190000000  0.5565950000000 1.0
C      1  0.5255040000000  0.5326790000000  0.5723580000000 1.0
C      1  0.5342600000000  0.5218330000000  0.4777010000000 1.0
C      1  0.5555060000000  0.5088540000000  0.4615790000000 1.0
C      1  0.5534600000000  0.4807860000000  0.4701760000000 1.0
C      1  0.5274500000000  0.4716620000000  0.4613420000000 1.0
C      1  0.5104290000000  0.4512690000000  0.4722010000000 1.0
C      1  0.4844870000000  0.4554550000000  0.4631140000000 1.0
C      1  0.4680290000000  0.4700400000000  0.4803250000000 1.0
C      1  0.4532570000000  0.4936100000000  0.4762100000000 1.0
C      1  0.4625600000000  0.5228160000000  0.4791920000000 1.0
C      1  0.4869900000000  0.5388770000000  0.4792560000000 1.0
C      1  0.5170520000000  0.5453860000000  0.4755720000000 1.0
C      1  0.5485860000000  0.4421710000000  0.4967990000000 1.0
C      1  0.5180680000000  0.4407260000000  0.4984330000000 1.0
C      1  0.4431240000000  0.4269780000000  0.4990990000000 1.0
C      1  0.4595710000000  0.4530440000000  0.5001040000000 1.0
C      1  0.4351970000000  0.5000060000000  0.5021710000000 1.0
C      1  0.4459710000000  0.5281060000000  0.5032240000000 1.0
C      1  0.4837670000000  0.5574080000000  0.5024110000000 1.0
C      1  0.5132450000000  0.5636380000000  0.5019280000000 1.0
C      1  0.5521150000000  0.5270120000000  0.4994540000000 1.0
C      1  0.5807150000000  0.5409410000000  0.4990240000000 1.0
C      1  0.5571190000000  0.4714190000000  0.4984580000000 1.0
C      1  0.5695240000000  0.5295440000000  0.5907370000000 1.0
C      1  0.5698000000000  0.4732370000000  0.5881220000000 1.0
C      1  0.5549630000000  0.4485330000000  0.5975640000000 1.0
C      1  0.5071720000000  0.4244240000000  0.5847700000000 1.0
C      1  0.4590810000000  0.4368120000000  0.5903690000000 1.0
C      1  0.4388650000000  0.4575030000000  0.5868540000000 1.0
C      1  0.4221740000000  0.5121030000000  0.5912910000000 1.0
C      1  0.4306650000000  0.5392080000000  0.5898590000000 1.0
C      1  0.4744130000000  0.5762570000000  0.5894420000000 1.0
C      1  0.5025910000000  0.5802660000000  0.5909240000000 1.0
C      1  0.5534880000000  0.5533190000000  0.5870530000000 1.0
C      1  0.5975640000000  0.4603600000000  0.4801400000000 1.0
C      1  0.5614690000000  0.4263730000000  0.4772990000000 1.0
C      1  0.5204940000000  0.3985060000000  0.4799640000000 1.0
C      1  0.4744420000000  0.3914550000000  0.4812060000000 1.0
C      1  0.4082420000000  0.4550570000000  0.4823580000000 1.0
C      1  0.3987360000000  0.5058910000000  0.4786940000000 1.0
C      1  0.4182010000000  0.5562140000000  0.4788140000000 1.0
C      1  0.4599680000000  0.5895000000000  0.4785590000000 1.0
C      1  0.5131400000000  0.5998580000000  0.4783740000000 1.0
C      1  0.5612000000000  0.5816590000000  0.4823820000000 1.0
C      1  0.6109240000000  0.5047580000000  0.4812480000000 1.0
C      1  0.5404470000000  0.5947310000000  0.5251830000000 1.0
C      1  0.5778250000000  0.5603300000000  0.5213940000000 1.0
C      1  0.5959760000000  0.4946010000000  0.5225420000000 1.0
C      1  0.5815930000000  0.4429940000000  0.5276320000000 1.0
C      1  0.5407320000000  0.4099790000000  0.5279220000000 1.0
C      1  0.4869350000000  0.4046580000000  0.5210570000000 1.0
C      1  0.4249780000000  0.4340670000000  0.5217400000000 1.0
C      1  0.3995150000000  0.4780000000000  0.5254820000000 1.0
C      1  0.4057280000000  0.5307250000000  0.5227050000000 1.0
C      1  0.4393610000000  0.5731970000000  0.5215780000000 1.0
C      1  0.4875370000000  0.5978300000000  0.5219220000000 1.0
C      1  0.5775230000000  0.4471590000000  0.4362780000000 1.0
C      1  0.5375350000000  0.4150500000000  0.4365450000000 1.0
C      1  0.4885680000000  0.4087450000000  0.4408240000000 1.0
C      1  0.4379810000000  0.4342820000000  0.4475920000000 1.0
C      1  0.4120310000000  0.4784300000000  0.4395370000000 1.0
C      1  0.4133340000000  0.5303640000000  0.4382010000000 1.0
C      1  0.4393810000000  0.5725970000000  0.4376840000000 1.0
C      1  0.4864230000000  0.5892950000000  0.4385080000000 1.0
C      1  0.5379630000000  0.5822560000000  0.4391830000000 1.0
C      1  0.5761760000000  0.5490040000000  0.4481110000000 1.0
C      1  0.5928370000000  0.4931610000000  0.4412690000000 1.0
C      1  0.5379540000000  0.4928630000000  0.3893830000000 1.0
C      1  0.5224550000000  0.4725090000000  0.3813070000000 1.0
C      1  0.4996080000000  0.4614780000000  0.3900310000000 1.0
C      1  0.4753590000000  0.4741310000000  0.3843390000000 1.0
C      1  0.4576730000000  0.4873210000000  0.3997290000000 1.0
C      1  0.4421720000000  0.5109920000000  0.4048940000000 1.0
C      1  0.4473770000000  0.5393600000000  0.4049520000000 1.0
C      1  0.4708050000000  0.5585580000000  0.4044590000000 1.0
C      1  0.4999680000000  0.5585200000000  0.4038160000000 1.0
C      1  0.5208830000000  0.5391800000000  0.3986760000000 1.0
C      1  0.5304260000000  0.5190120000000  0.3836870000000 1.0
C      1  0.4528270000000  0.4935280000000  0.5265320000000 1.0
C      1  0.4633790000000  0.5218680000000  0.5264960000000 1.0
C      1  0.4857270000000  0.5401390000000  0.5264280000000 1.0
C      1  0.5154920000000  0.5454920000000  0.5267970000000 1.0
C      1  0.5351120000000  0.5273160000000  0.5210400000000 1.0
C      1  0.5355910000000  0.5047650000000  0.5353450000000 1.0
C      1  0.5397380000000  0.4818500000000  0.5204100000000 1.0
C      1  0.5310990000000  0.4629680000000  0.5376130000000 1.0
C      1  0.5107550000000  0.4580380000000  0.5205990000000 1.0
C      1  0.4882800000000  0.4653930000000  0.5346320000000 1.0
C      1  0.4656880000000  0.4697980000000  0.5207660000000 1.0
C      1  0.5583740000000  0.5682970000000  0.5635040000000 1.0
C      1  0.5761820000000  0.5231410000000  0.5617140000000 1.0
C      1  0.5850920000000  0.4732320000000  0.5646280000000 1.0
C      1  0.5523680000000  0.4377910000000  0.5695620000000 1.0
C      1  0.5094170000000  0.4101520000000  0.5624950000000 1.0
C      1  0.4628980000000  0.4291080000000  0.5608270000000 1.0
C      1  0.4222500000000  0.4552900000000  0.5638820000000 1.0
C      1  0.4171420000000  0.5032390000000  0.5636620000000 1.0
C      1  0.4312480000000  0.5464450000000  0.5616150000000 1.0
C      1  0.4672470000000  0.5765410000000  0.5612390000000 1.0
C      1  0.5122960000000  0.5826950000000  0.5633000000000 1.0
C      1  0.4263420000000  0.4335460000000  0.4739480000000 1.0
C      1  0.4011920000000  0.4789690000000  0.4658340000000 1.0
C      1  0.4059340000000  0.5322090000000  0.4655310000000 1.0
C      1  0.4369810000000  0.5754400000000  0.4658320000000 1.0
C      1  0.4860490000000  0.5969590000000  0.4656120000000 1.0
C      1  0.5391300000000  0.5929580000000  0.4654320000000 1.0
C      1  0.5782670000000  0.5594840000000  0.4744610000000 1.0
C      1  0.6062070000000  0.4836780000000  0.4651970000000 1.0
C      1  0.5829530000000  0.4412970000000  0.4645920000000 1.0
C      1  0.5422260000000  0.4086250000000  0.4646720000000 1.0
C      1  0.4958000000000  0.3940360000000  0.4651080000000 1.0
C      1  0.5143450000000  0.5949640000000  0.5078220000000 1.0
C      1  0.5620830000000  0.5825900000000  0.5109260000000 1.0
C      1  0.5998530000000  0.5160980000000  0.5028370000000 1.0
C      1  0.5870830000000  0.4672250000000  0.5088000000000 1.0
C      1  0.5620380000000  0.4253070000000  0.5153820000000 1.0
C      1  0.5157360000000  0.4094090000000  0.5082360000000 1.0
C      1  0.4642970000000  0.4042390000000  0.5023250000000 1.0
C      1  0.4067610000000  0.4543320000000  0.5110360000000 1.0
C      1  0.4038090000000  0.5039060000000  0.5082380000000 1.0
C      1  0.4241500000000  0.5510430000000  0.5072190000000 1.0
C      1  0.4642170000000  0.5830680000000  0.5067340000000 1.0
C      1  0.5063260000000  0.4931320000000  0.4264980000000 1.0
C      1  0.4991530000000  0.5053560000000  0.4489500000000 1.0
C      1  0.5150310000000  0.4984640000000  0.4712840000000 1.0
END
