TITL C-3516-9161-6 -0.00527413646327754 125000 -33.2672294319266 0 0 6 (D6h) n - 1
REM
REM in /rds/project/t2_vol4/rds-t2-cs072/BORA/CARBON/from-Arr/AIRSS/Generating-Clusters/GAP-ML-2020/Higher-Symm/SD-CG/HFTN-CG
REM
REM
REM
REM
REM
REM ./C.cell (b20cbc046b6831c77cfcea5457e17084)
REM AIRSS Version 0.9.1 bugfix July 2018 build 013d7b7c2542+ Fri, 06 Jul 2018 19:26:36 +0100
REM compiler GCC version 9.3.0
REM options -cpp -mtune=generic -march=x86-64 -g -O0
REM seed -837082253 -1254801201 635038881 -829659788 -1405451844 -1984581813 2013715030 1680183578 -1922916096 -1460385199 1094778015 965091677 -1508294003 1846547617 891428214 1367815150 -1886777674 -779544279 -607121137 -142957377 -327574610 -1805787746 -655543969 1397940363 -116511132 -2082977431 -1315464685 173367264 929940845 -1850520401 502911690 -185839003 424131391
REM
CELL 1.54180   50.00000   50.00000   50.00000   90.00000   90.00000   90.00000
LATT -1
SFAC C  
C      1  0.5136900000000  0.5000000000000  0.5237120000000 1.0
C      1  0.4863100000000  0.5000000000000  0.5237120000000 1.0
C      1  0.4726200000000  0.5000000000000  0.5000000000000 1.0
C      1  0.5273800000000  0.5000000000000  0.5000000000000 1.0
C      1  0.5136900000000  0.5000000000000  0.4762880000000 1.0
C      1  0.4863100000000  0.5000000000000  0.4762880000000 1.0
END
