TITL C-35832-1730-2 65.0605883923269 125000 -1248.44046771021 0 0 181 (C1) n - 1
REM
REM in /rds/project/t2_vol4/rds-t2-cs072/BORA/CARBON/from-Arr/AIRSS/Generating-Clusters/GAP-ML-2020/Higher-Symm/SD-CG/HFTN-CG/C160-200
REM
REM
REM
REM
REM
REM ./C.cell (6b4489405718ea1b717e0baf1da4c2d9)
REM AIRSS Version 0.9.1 bugfix July 2018 build 013d7b7c2542+ Fri, 06 Jul 2018 19:26:36 +0100
REM compiler GCC version 9.3.0
REM options -cpp -mtune=generic -march=x86-64 -g -O0
REM seed 198290008 2021196532 649850342 1895874527 1166339373 -975363365 -1680055568 162938572 581727990 990168899 -788993098 1279318135 -435497089 -1547292157 1895160056 1127335167 38062286 -1285636953 1535270346 -1924254909 622769768 895353662 1142789867 -1229333894 470955806 -428717973 -1356464910 -630947154 -438544051 -195388806 25631416 -864294006 -465998748
REM
CELL 1.54180   50.00000   50.00000   50.00000   90.00000   90.00000   90.00000
LATT -1
SFAC C  
C      1  0.4784270000000  0.4424250000000  0.5062650000000 1.0
C      1  0.4808110000000  0.4625050000000  0.5515710000000 1.0
C      1  0.4802050000000  0.5116490000000  0.5582060000000 1.0
C      1  0.4786740000000  0.5550150000000  0.5175190000000 1.0
C      1  0.4755150000000  0.5548780000000  0.4662300000000 1.0
C      1  0.4798830000000  0.5115620000000  0.4404080000000 1.0
C      1  0.4802600000000  0.4648270000000  0.4596810000000 1.0
C      1  0.4996130000000  0.5015520000000  0.6090540000000 1.0
C      1  0.5013260000000  0.5820840000000  0.5616000000000 1.0
C      1  0.4957510000000  0.6069340000000  0.4672800000000 1.0
C      1  0.4975890000000  0.5417910000000  0.3971110000000 1.0
C      1  0.5016220000000  0.4490940000000  0.4095130000000 1.0
C      1  0.4959190000000  0.3957590000000  0.4826370000000 1.0
C      1  0.4946720000000  0.4164100000000  0.5732090000000 1.0
C      1  0.4921850000000  0.4263460000000  0.4833990000000 1.0
C      1  0.4932690000000  0.4350310000000  0.5499680000000 1.0
C      1  0.4958260000000  0.4948700000000  0.5800030000000 1.0
C      1  0.4951740000000  0.5559130000000  0.5460140000000 1.0
C      1  0.4888130000000  0.5801220000000  0.4801330000000 1.0
C      1  0.4920840000000  0.5369900000000  0.4270450000000 1.0
C      1  0.4969400000000  0.4688130000000  0.4331550000000 1.0
C      1  0.4341540000000  0.5100710000000  0.5772780000000 1.0
C      1  0.4339110000000  0.5627170000000  0.5467860000000 1.0
C      1  0.4304580000000  0.5815700000000  0.4814380000000 1.0
C      1  0.4331180000000  0.5189170000000  0.4165900000000 1.0
C      1  0.4345140000000  0.4585420000000  0.4324650000000 1.0
C      1  0.4304610000000  0.4221950000000  0.4938040000000 1.0
C      1  0.4343160000000  0.4496200000000  0.5516530000000 1.0
C      1  0.5652430000000  0.4147690000000  0.4914930000000 1.0
C      1  0.5682540000000  0.4339520000000  0.5595790000000 1.0
C      1  0.5711550000000  0.5023120000000  0.5816290000000 1.0
C      1  0.5700620000000  0.5644760000000  0.5403030000000 1.0
C      1  0.5637550000000  0.5883210000000  0.4697140000000 1.0
C      1  0.5827350000000  0.5349500000000  0.4249870000000 1.0
C      1  0.5711610000000  0.4594670000000  0.4358620000000 1.0
C      1  0.5004210000000  0.3833990000000  0.5093680000000 1.0
C      1  0.5005280000000  0.4324150000000  0.5983510000000 1.0
C      1  0.5070740000000  0.5306970000000  0.6108190000000 1.0
C      1  0.5052450000000  0.6047500000000  0.5425590000000 1.0
C      1  0.5046790000000  0.6030920000000  0.4400790000000 1.0
C      1  0.5098100000000  0.5165070000000  0.3871450000000 1.0
C      1  0.5057340000000  0.4214890000000  0.4178020000000 1.0
C      1  0.5704900000000  0.4340280000000  0.5130270000000 1.0
C      1  0.5735910000000  0.4624950000000  0.5548810000000 1.0
C      1  0.5749890000000  0.5144680000000  0.5551960000000 1.0
C      1  0.5724440000000  0.5633630000000  0.5105190000000 1.0
C      1  0.5684610000000  0.5621390000000  0.4572550000000 1.0
C      1  0.5735450000000  0.5103890000000  0.4378990000000 1.0
C      1  0.5751920000000  0.4532860000000  0.4657410000000 1.0
C      1  0.5709680000000  0.5439410000000  0.5573350000000 1.0
C      1  0.5659080000000  0.5880040000000  0.4963040000000 1.0
C      1  0.5647860000000  0.5567190000000  0.4269960000000 1.0
C      1  0.5716460000000  0.4843390000000  0.4242520000000 1.0
C      1  0.5670530000000  0.4249150000000  0.4669030000000 1.0
C      1  0.5658260000000  0.4190570000000  0.5378160000000 1.0
C      1  0.5693350000000  0.4759000000000  0.5809000000000 1.0
C      1  0.5236320000000  0.4456880000000  0.5109600000000 1.0
C      1  0.5258050000000  0.4688840000000  0.5491190000000 1.0
C      1  0.5269230000000  0.5149050000000  0.5461610000000 1.0
C      1  0.5247580000000  0.5512770000000  0.5099240000000 1.0
C      1  0.5219010000000  0.5503860000000  0.4639370000000 1.0
C      1  0.5261030000000  0.5076210000000  0.4476300000000 1.0
C      1  0.5265580000000  0.4645450000000  0.4695040000000 1.0
C      1  0.4644680000000  0.3944970000000  0.4798450000000 1.0
C      1  0.4627220000000  0.4164040000000  0.5716950000000 1.0
C      1  0.4678460000000  0.5021890000000  0.6097970000000 1.0
C      1  0.4704200000000  0.5842170000000  0.5676560000000 1.0
C      1  0.4672410000000  0.6142450000000  0.4633480000000 1.0
C      1  0.4678910000000  0.5382010000000  0.3914320000000 1.0
C      1  0.4699750000000  0.4479340000000  0.4045280000000 1.0
C      1  0.4550790000000  0.4991030000000  0.5408720000000 1.0
C      1  0.4542470000000  0.5364480000000  0.5095980000000 1.0
C      1  0.4521960000000  0.5399990000000  0.4779250000000 1.0
C      1  0.4546680000000  0.5139670000000  0.4576750000000 1.0
C      1  0.4554550000000  0.4843670000000  0.4668730000000 1.0
C      1  0.4534080000000  0.4606970000000  0.5090830000000 1.0
C      1  0.4550800000000  0.4683670000000  0.5384940000000 1.0
C      1  0.4061230000000  0.5127790000000  0.4659670000000 1.0
C      1  0.4048240000000  0.4844810000000  0.4711490000000 1.0
C      1  0.4024660000000  0.4693770000000  0.4943840000000 1.0
C      1  0.3986100000000  0.4774930000000  0.5222400000000 1.0
C      1  0.4045450000000  0.5042510000000  0.5297320000000 1.0
C      1  0.4063840000000  0.5278500000000  0.5135840000000 1.0
C      1  0.4065770000000  0.5340220000000  0.4850640000000 1.0
C      1  0.4786110000000  0.4500440000000  0.5994710000000 1.0
C      1  0.4857360000000  0.5443380000000  0.5970340000000 1.0
C      1  0.4814130000000  0.6046470000000  0.5253460000000 1.0
C      1  0.4747990000000  0.5838790000000  0.4260920000000 1.0
C      1  0.4878060000000  0.4964470000000  0.3914980000000 1.0
C      1  0.4823410000000  0.4161100000000  0.4357320000000 1.0
C      1  0.4788170000000  0.3934630000000  0.5255740000000 1.0
C      1  0.5106150000000  0.4033870000000  0.4369400000000 1.0
C      1  0.5069180000000  0.3858860000000  0.5357510000000 1.0
C      1  0.5141460000000  0.4526670000000  0.6106900000000 1.0
C      1  0.5155440000000  0.5545170000000  0.6002480000000 1.0
C      1  0.5088080000000  0.6146390000000  0.5173830000000 1.0
C      1  0.5022850000000  0.5875040000000  0.4180810000000 1.0
C      1  0.5171500000000  0.4904120000000  0.3872150000000 1.0
C      1  0.4123480000000  0.4541510000000  0.5323290000000 1.0
C      1  0.4281630000000  0.5120630000000  0.5475640000000 1.0
C      1  0.4289930000000  0.5388650000000  0.5302270000000 1.0
C      1  0.4257650000000  0.5537520000000  0.4765210000000 1.0
C      1  0.4270230000000  0.5099650000000  0.4439860000000 1.0
C      1  0.4276790000000  0.4790660000000  0.4520500000000 1.0
C      1  0.4229680000000  0.4484490000000  0.5040510000000 1.0
C      1  0.5241660000000  0.4917650000000  0.5696260000000 1.0
C      1  0.5239340000000  0.5458920000000  0.5404100000000 1.0
C      1  0.5185750000000  0.5722700000000  0.4854660000000 1.0
C      1  0.5209610000000  0.5378550000000  0.4365730000000 1.0
C      1  0.5251060000000  0.4771800000000  0.4415430000000 1.0
C      1  0.5210970000000  0.4362380000000  0.4819270000000 1.0
C      1  0.5214380000000  0.4396030000000  0.5410540000000 1.0
C      1  0.5406220000000  0.4189320000000  0.5514980000000 1.0
C      1  0.5445460000000  0.4875330000000  0.5909570000000 1.0
C      1  0.5453820000000  0.5597840000000  0.5574370000000 1.0
C      1  0.5391690000000  0.5949920000000  0.4846780000000 1.0
C      1  0.5383580000000  0.5541060000000  0.4181460000000 1.0
C      1  0.5462860000000  0.4689060000000  0.4212870000000 1.0
C      1  0.5407660000000  0.4139970000000  0.4744250000000 1.0
C      1  0.6001910000000  0.4574450000000  0.4848410000000 1.0
C      1  0.5955900000000  0.4553060000000  0.5111590000000 1.0
C      1  0.5945600000000  0.4734550000000  0.5337790000000 1.0
C      1  0.5963450000000  0.5020450000000  0.5342870000000 1.0
C      1  0.5947350000000  0.5434590000000  0.4974810000000 1.0
C      1  0.5919480000000  0.5450370000000  0.4695310000000 1.0
C      1  0.5973010000000  0.5280310000000  0.4479880000000 1.0
C      1  0.4983180000000  0.5356820000000  0.4741770000000 1.0
C      1  0.5005850000000  0.5071370000000  0.4632010000000 1.0
C      1  0.5009410000000  0.4770870000000  0.4789270000000 1.0
C      1  0.4997520000000  0.4638880000000  0.5083010000000 1.0
C      1  0.5006700000000  0.4772500000000  0.5349980000000 1.0
C      1  0.5006840000000  0.5063100000000  0.5368560000000 1.0
C      1  0.4993670000000  0.5385640000000  0.5029110000000 1.0
C      1  0.4437610000000  0.5884750000000  0.5055090000000 1.0
C      1  0.4505330000000  0.5424510000000  0.4136900000000 1.0
C      1  0.4529790000000  0.4717430000000  0.4120670000000 1.0
C      1  0.4477010000000  0.4187220000000  0.4680440000000 1.0
C      1  0.4482610000000  0.4221140000000  0.5443190000000 1.0
C      1  0.4494200000000  0.4855210000000  0.5888850000000 1.0
C      1  0.4522550000000  0.5574850000000  0.5689550000000 1.0
C      1  0.4624640000000  0.5291840000000  0.6066670000000 1.0
C      1  0.4611520000000  0.5996160000000  0.5462700000000 1.0
C      1  0.4573660000000  0.6026810000000  0.4394360000000 1.0
C      1  0.4640820000000  0.5110000000000  0.3841200000000 1.0
C      1  0.4606480000000  0.4254230000000  0.4196510000000 1.0
C      1  0.4566760000000  0.3899560000000  0.5068060000000 1.0
C      1  0.4550850000000  0.4360670000000  0.5899060000000 1.0
C      1  0.5255580000000  0.4665880000000  0.4001690000000 1.0
C      1  0.5194300000000  0.3974920000000  0.4628370000000 1.0
C      1  0.5176280000000  0.4007510000000  0.5570880000000 1.0
C      1  0.5224800000000  0.4790630000000  0.6099040000000 1.0
C      1  0.5247850000000  0.5692830000000  0.5773550000000 1.0
C      1  0.5170160000000  0.6125760000000  0.4901460000000 1.0
C      1  0.5161350000000  0.5658270000000  0.4048020000000 1.0
C      1  0.4703370000000  0.5563050000000  0.4346560000000 1.0
C      1  0.4795610000000  0.4887490000000  0.4204150000000 1.0
C      1  0.4754670000000  0.4335660000000  0.4612730000000 1.0
C      1  0.4756860000000  0.4233180000000  0.5302730000000 1.0
C      1  0.4775820000000  0.4723940000000  0.5795050000000 1.0
C      1  0.4792580000000  0.5410050000000  0.5664340000000 1.0
C      1  0.4733140000000  0.5831600000000  0.5054310000000 1.0
C      1  0.4438630000000  0.5978170000000  0.4629200000000 1.0
C      1  0.4430010000000  0.4979840000000  0.3988390000000 1.0
C      1  0.4399240000000  0.4304280000000  0.4395580000000 1.0
C      1  0.4371390000000  0.4070740000000  0.5178870000000 1.0
C      1  0.4380880000000  0.4573210000000  0.5816190000000 1.0
C      1  0.4423230000000  0.5355470000000  0.5880220000000 1.0
C      1  0.4386890000000  0.5875320000000  0.5334910000000 1.0
C      1  0.5522750000000  0.5042860000000  0.5349130000000 1.0
C      1  0.5510430000000  0.5425900000000  0.5001140000000 1.0
C      1  0.5497530000000  0.5420400000000  0.4706280000000 1.0
C      1  0.5523880000000  0.5139170000000  0.4601470000000 1.0
C      1  0.5528360000000  0.4698940000000  0.4834700000000 1.0
C      1  0.5504950000000  0.4577540000000  0.5109510000000 1.0
C      1  0.5516530000000  0.4744080000000  0.5358810000000 1.0
C      1  0.4548640000000  0.4861450000000  0.4953050000000 1.0
C      1  0.4923590000000  0.5126710000000  0.5113790000000 1.0
C      1  0.5609190000000  0.5149080000000  0.5081460000000 1.0
C      1  0.5564830000000  0.4983740000000  0.4845710000000 1.0
C      1  0.4632790000000  0.5080400000000  0.5121980000000 1.0
C      1  0.5911730000000  0.5187960000000  0.5114370000000 1.0
END
