TITL C-35912-4139-3 -294.007870817643 125000 -1359.65019763187 0 0 192 (C1) n - 1
REM
REM in /rds/project/t2_vol4/rds-t2-cs072/BORA/CARBON/from-Arr/AIRSS/Generating-Clusters/GAP-ML-2020/Higher-Symm/SD-CG/HFTN-CG/C160-200
REM
REM
REM
REM
REM
REM ./C.cell (6b4489405718ea1b717e0baf1da4c2d9)
REM AIRSS Version 0.9.1 bugfix July 2018 build 013d7b7c2542+ Fri, 06 Jul 2018 19:26:36 +0100
REM compiler GCC version 9.3.0
REM options -cpp -mtune=generic -march=x86-64 -g -O0
REM seed 1150066671 -25376919 784911340 -311814530 -886095154 1245405320 -67417239 1970693081 -400110230 1950047368 2075142024 672572453 -829072428 324766531 1806524638 -779221854 1914650814 -943181546 209413196 1534472518 -662008828 2146168697 -403238770 309647179 1727682009 550875065 -365709887 420153962 1685870305 1190906900 1160641902 -40333614 1343097927
REM
CELL 1.54180   50.00000   50.00000   50.00000   90.00000   90.00000   90.00000
LATT -1
SFAC C  
C      1  0.4921230000000  0.5278900000000  0.4398270000000 1.0
C      1  0.5068910000000  0.4697200000000  0.4400150000000 1.0
C      1  0.4931020000000  0.4704860000000  0.5587640000000 1.0
C      1  0.5062290000000  0.5300030000000  0.5574470000000 1.0
C      1  0.5294910000000  0.4917000000000  0.4397940000000 1.0
C      1  0.4698680000000  0.5058790000000  0.4396920000000 1.0
C      1  0.4704790000000  0.4926590000000  0.5589260000000 1.0
C      1  0.5292360000000  0.5079500000000  0.5579600000000 1.0
C      1  0.4988480000000  0.5813620000000  0.5755410000000 1.0
C      1  0.4996010000000  0.4214460000000  0.5810190000000 1.0
C      1  0.5006760000000  0.4201790000000  0.4202290000000 1.0
C      1  0.4999120000000  0.5752390000000  0.4280220000000 1.0
C      1  0.5787040000000  0.5035420000000  0.5798220000000 1.0
C      1  0.4208200000000  0.4976890000000  0.5810740000000 1.0
C      1  0.4203330000000  0.5013290000000  0.4176940000000 1.0
C      1  0.5791740000000  0.4977890000000  0.4197910000000 1.0
C      1  0.4341780000000  0.5435390000000  0.5705140000000 1.0
C      1  0.5654910000000  0.4563830000000  0.5700800000000 1.0
C      1  0.4345050000000  0.4550710000000  0.4285000000000 1.0
C      1  0.5653310000000  0.5435870000000  0.4278360000000 1.0
C      1  0.5458170000000  0.4359140000000  0.5704320000000 1.0
C      1  0.4541650000000  0.5636160000000  0.5703460000000 1.0
C      1  0.4546510000000  0.4351210000000  0.4286760000000 1.0
C      1  0.5454240000000  0.5636810000000  0.4278580000000 1.0
C      1  0.5095870000000  0.4685410000000  0.3916230000000 1.0
C      1  0.4907770000000  0.5305470000000  0.3918000000000 1.0
C      1  0.5090920000000  0.5324390000000  0.6056900000000 1.0
C      1  0.4918350000000  0.4708900000000  0.6072970000000 1.0
C      1  0.4699270000000  0.5100630000000  0.3913420000000 1.0
C      1  0.5304590000000  0.4889940000000  0.3915240000000 1.0
C      1  0.5298440000000  0.5118920000000  0.6060840000000 1.0
C      1  0.4710610000000  0.4913950000000  0.6073470000000 1.0
C      1  0.4100960000000  0.4269140000000  0.5233420000000 1.0
C      1  0.5899190000000  0.5711730000000  0.5202010000000 1.0
C      1  0.4119680000000  0.5725090000000  0.4768800000000 1.0
C      1  0.5919990000000  0.4288780000000  0.4754070000000 1.0
C      1  0.4306680000000  0.4055880000000  0.5208090000000 1.0
C      1  0.5690940000000  0.5921590000000  0.5194620000000 1.0
C      1  0.5709410000000  0.4078490000000  0.4757240000000 1.0
C      1  0.4331820000000  0.5934530000000  0.4800840000000 1.0
C      1  0.4895740000000  0.4676630000000  0.4644770000000 1.0
C      1  0.5100090000000  0.5303310000000  0.4638380000000 1.0
C      1  0.4889500000000  0.5304010000000  0.5329980000000 1.0
C      1  0.5104660000000  0.4679620000000  0.5342650000000 1.0
C      1  0.4674800000000  0.4887360000000  0.4641960000000 1.0
C      1  0.5316180000000  0.5090610000000  0.4640050000000 1.0
C      1  0.5319970000000  0.4897070000000  0.5339910000000 1.0
C      1  0.4675220000000  0.5089080000000  0.5340550000000 1.0
C      1  0.5011820000000  0.4198550000000  0.5323990000000 1.0
C      1  0.4957670000000  0.5766260000000  0.5249630000000 1.0
C      1  0.5009790000000  0.5773600000000  0.4588410000000 1.0
C      1  0.4963060000000  0.4165620000000  0.4688970000000 1.0
C      1  0.4164880000000  0.5015570000000  0.5320670000000 1.0
C      1  0.5797300000000  0.5000660000000  0.5317300000000 1.0
C      1  0.5829220000000  0.5032100000000  0.4685820000000 1.0
C      1  0.4160710000000  0.4968650000000  0.4666100000000 1.0
C      1  0.4691650000000  0.3930820000000  0.5559940000000 1.0
C      1  0.5257230000000  0.6094730000000  0.5493570000000 1.0
C      1  0.4822870000000  0.6117010000000  0.4829370000000 1.0
C      1  0.5303610000000  0.3920390000000  0.4448760000000 1.0
C      1  0.3954890000000  0.4636640000000  0.5591360000000 1.0
C      1  0.6061510000000  0.5336470000000  0.5547100000000 1.0
C      1  0.6076180000000  0.4692550000000  0.4445080000000 1.0
C      1  0.3962960000000  0.5363720000000  0.4403160000000 1.0
C      1  0.5325390000000  0.4905250000000  0.5851090000000 1.0
C      1  0.4677270000000  0.5111370000000  0.5854120000000 1.0
C      1  0.5324600000000  0.5094770000000  0.4129110000000 1.0
C      1  0.4671820000000  0.4885700000000  0.4124710000000 1.0
C      1  0.4887870000000  0.5333620000000  0.5843310000000 1.0
C      1  0.5115350000000  0.4684810000000  0.5854280000000 1.0
C      1  0.5107720000000  0.5308060000000  0.4132940000000 1.0
C      1  0.4887870000000  0.4668780000000  0.4127730000000 1.0
C      1  0.4679160000000  0.5504750000000  0.4431430000000 1.0
C      1  0.5293510000000  0.4475010000000  0.4442790000000 1.0
C      1  0.4700570000000  0.4483160000000  0.5560380000000 1.0
C      1  0.5284010000000  0.5528910000000  0.5533980000000 1.0
C      1  0.5516820000000  0.4695790000000  0.4440080000000 1.0
C      1  0.4473220000000  0.5279450000000  0.4431090000000 1.0
C      1  0.4483340000000  0.4701470000000  0.5562740000000 1.0
C      1  0.5505510000000  0.5315930000000  0.5541410000000 1.0
C      1  0.4742770000000  0.5664130000000  0.4191660000000 1.0
C      1  0.5267640000000  0.4331880000000  0.4173520000000 1.0
C      1  0.4738210000000  0.4343830000000  0.5832590000000 1.0
C      1  0.5249710000000  0.5688750000000  0.5785240000000 1.0
C      1  0.5660110000000  0.4717470000000  0.4170580000000 1.0
C      1  0.4338750000000  0.5271000000000  0.4156480000000 1.0
C      1  0.4347680000000  0.4722960000000  0.5839680000000 1.0
C      1  0.5650200000000  0.5293780000000  0.5804770000000 1.0
C      1  0.5297210000000  0.4476340000000  0.4953320000000 1.0
C      1  0.4696940000000  0.5491120000000  0.4935170000000 1.0
C      1  0.5281270000000  0.5509230000000  0.5023890000000 1.0
C      1  0.4701590000000  0.4485970000000  0.5041060000000 1.0
C      1  0.4473710000000  0.5274220000000  0.4942970000000 1.0
C      1  0.5520360000000  0.4699360000000  0.4950380000000 1.0
C      1  0.5503610000000  0.5293370000000  0.5030810000000 1.0
C      1  0.4476490000000  0.4700960000000  0.5040320000000 1.0
C      1  0.4727460000000  0.5683860000000  0.4675770000000 1.0
C      1  0.5257110000000  0.4291050000000  0.4711330000000 1.0
C      1  0.4733600000000  0.4314760000000  0.5295820000000 1.0
C      1  0.5241610000000  0.5689850000000  0.5265410000000 1.0
C      1  0.5703730000000  0.4737030000000  0.4707090000000 1.0
C      1  0.4291000000000  0.5254600000000  0.4698550000000 1.0
C      1  0.4297950000000  0.4727320000000  0.5293750000000 1.0
C      1  0.5675040000000  0.5274130000000  0.5284200000000 1.0
C      1  0.4911330000000  0.5275980000000  0.4867630000000 1.0
C      1  0.5083070000000  0.4701460000000  0.4878500000000 1.0
C      1  0.4915530000000  0.4704870000000  0.5110650000000 1.0
C      1  0.5076920000000  0.5278840000000  0.5099790000000 1.0
C      1  0.5292710000000  0.4906790000000  0.4875710000000 1.0
C      1  0.4700110000000  0.5070980000000  0.4874350000000 1.0
C      1  0.4701200000000  0.4906610000000  0.5108120000000 1.0
C      1  0.5289260000000  0.5078200000000  0.5104500000000 1.0
C      1  0.4589250000000  0.4025860000000  0.5300550000000 1.0
C      1  0.5396630000000  0.5967360000000  0.5275590000000 1.0
C      1  0.4604930000000  0.5950370000000  0.4730270000000 1.0
C      1  0.5447710000000  0.4058630000000  0.4639450000000 1.0
C      1  0.4086170000000  0.4515000000000  0.5379930000000 1.0
C      1  0.5948660000000  0.5430890000000  0.5294290000000 1.0
C      1  0.5937590000000  0.4548640000000  0.4634430000000 1.0
C      1  0.4091000000000  0.5481120000000  0.4618840000000 1.0
C      1  0.3739130000000  0.5112440000000  0.5059300000000 1.0
C      1  0.6063740000000  0.4966990000000  0.5198610000000 1.0
C      1  0.3737250000000  0.4885930000000  0.4927750000000 1.0
C      1  0.6099990000000  0.5227600000000  0.5088680000000 1.0
C      1  0.5048610000000  0.3934210000000  0.5197790000000 1.0
C      1  0.4944870000000  0.6161930000000  0.5086220000000 1.0
C      1  0.4785660000000  0.3892350000000  0.5093330000000 1.0
C      1  0.5235880000000  0.6141270000000  0.5072270000000 1.0
C      1  0.4055070000000  0.5494660000000  0.5237540000000 1.0
C      1  0.5965630000000  0.4482240000000  0.5238670000000 1.0
C      1  0.4047800000000  0.4495440000000  0.4755310000000 1.0
C      1  0.5939350000000  0.5505160000000  0.4736190000000 1.0
C      1  0.5529350000000  0.4041610000000  0.5245040000000 1.0
C      1  0.4516650000000  0.5941230000000  0.5290270000000 1.0
C      1  0.4494660000000  0.4057600000000  0.4743180000000 1.0
C      1  0.5529030000000  0.5948480000000  0.4718200000000 1.0
C      1  0.4518400000000  0.4306670000000  0.4585640000000 1.0
C      1  0.5477980000000  0.5690940000000  0.4575790000000 1.0
C      1  0.4518990000000  0.5673470000000  0.5406830000000 1.0
C      1  0.5487630000000  0.4305570000000  0.5403050000000 1.0
C      1  0.4296790000000  0.4520850000000  0.4585770000000 1.0
C      1  0.5692250000000  0.5470280000000  0.4578460000000 1.0
C      1  0.5703110000000  0.4524670000000  0.5399600000000 1.0
C      1  0.4299400000000  0.5461430000000  0.5404270000000 1.0
C      1  0.3951290000000  0.5225600000000  0.5196120000000 1.0
C      1  0.6117290000000  0.4700780000000  0.5183140000000 1.0
C      1  0.3948050000000  0.4767800000000  0.4792120000000 1.0
C      1  0.6022150000000  0.5247120000000  0.4826100000000 1.0
C      1  0.5314490000000  0.3885990000000  0.5185300000000 1.0
C      1  0.4813000000000  0.6026180000000  0.5302600000000 1.0
C      1  0.4754490000000  0.3973010000000  0.4831580000000 1.0
C      1  0.5302640000000  0.6097530000000  0.4803250000000 1.0
C      1  0.5616040000000  0.5192230000000  0.4148760000000 1.0
C      1  0.4378360000000  0.4792570000000  0.4146040000000 1.0
C      1  0.5618740000000  0.4811130000000  0.5831970000000 1.0
C      1  0.4381820000000  0.5196930000000  0.5842400000000 1.0
C      1  0.5203850000000  0.5596060000000  0.4166960000000 1.0
C      1  0.4791070000000  0.4378620000000  0.4153390000000 1.0
C      1  0.4788570000000  0.5623240000000  0.5824260000000 1.0
C      1  0.5214430000000  0.4392060000000  0.5838440000000 1.0
C      1  0.5936710000000  0.4272170000000  0.5050640000000 1.0
C      1  0.4099230000000  0.5717750000000  0.5063550000000 1.0
C      1  0.5931690000000  0.5724700000000  0.4912270000000 1.0
C      1  0.4073710000000  0.4279260000000  0.4936930000000 1.0
C      1  0.4312480000000  0.5927350000000  0.5093370000000 1.0
C      1  0.5734840000000  0.4068370000000  0.5053430000000 1.0
C      1  0.5732470000000  0.5935630000000  0.4907290000000 1.0
C      1  0.4275930000000  0.4064730000000  0.4917730000000 1.0
C      1  0.5490120000000  0.5332900000000  0.6030700000000 1.0
C      1  0.4510630000000  0.4706350000000  0.6066890000000 1.0
C      1  0.5506990000000  0.4685060000000  0.3938090000000 1.0
C      1  0.4506810000000  0.5312970000000  0.3937550000000 1.0
C      1  0.5285500000000  0.5535200000000  0.6021290000000 1.0
C      1  0.4716250000000  0.4503660000000  0.6061550000000 1.0
C      1  0.4714880000000  0.5517220000000  0.3953520000000 1.0
C      1  0.5299990000000  0.4482110000000  0.3939180000000 1.0
C      1  0.5044700000000  0.4028920000000  0.4421180000000 1.0
C      1  0.5049870000000  0.6045130000000  0.4684910000000 1.0
C      1  0.4993330000000  0.6014260000000  0.5547800000000 1.0
C      1  0.4944610000000  0.4040410000000  0.5592140000000 1.0
C      1  0.4030320000000  0.5076500000000  0.4390000000000 1.0
C      1  0.5965090000000  0.4949360000000  0.4417150000000 1.0
C      1  0.5963540000000  0.5078380000000  0.5581580000000 1.0
C      1  0.4036390000000  0.4917150000000  0.5598220000000 1.0
C      1  0.4399200000000  0.5207390000000  0.5263690000000 1.0
C      1  0.5593780000000  0.4775220000000  0.5260090000000 1.0
C      1  0.4397790000000  0.4772880000000  0.4722650000000 1.0
C      1  0.5585640000000  0.5219020000000  0.4720400000000 1.0
C      1  0.5231260000000  0.4407210000000  0.5264530000000 1.0
C      1  0.4760610000000  0.5560750000000  0.5234400000000 1.0
C      1  0.4772890000000  0.4407880000000  0.4725630000000 1.0
C      1  0.5222890000000  0.5577260000000  0.4711050000000 1.0
END
