TITL C-3510-9349-9 -25.0600843633017 125000 -823.410546395471 0 0 118 (C1) n - 1
REM
REM in /rds/project/t2_vol4/rds-t2-cs072/BORA/CARBON/from-Arr/AIRSS/Generating-Clusters/GAP-ML-2020/Higher-Symm/SD-CG/HFTN-CG
REM
REM
REM
REM
REM
REM ./C.cell (b20cbc046b6831c77cfcea5457e17084)
REM AIRSS Version 0.9.1 bugfix July 2018 build 013d7b7c2542+ Fri, 06 Jul 2018 19:26:36 +0100
REM compiler GCC version 9.3.0
REM options -cpp -mtune=generic -march=x86-64 -g -O0
REM seed 689245770 1310013468 172256995 543666958 -340952220 -1572590286 773286963 -608753427 -829454446 1453964283 912434787 1124062961 461570006 -1821292794 638832780 1454279803 -1245347889 -1262005699 1732042867 673930824 -1445732652 2058802337 525964915 1622988796 794152531 1633521776 1911458121 -497461946 -557868450 496858677 683591142 -360078520 743725258
REM
CELL 1.54180   50.00000   50.00000   50.00000   90.00000   90.00000   90.00000
LATT -1
SFAC C  
C      1  0.5696820000000  0.4521220000000  0.4487180000000 1.0
C      1  0.5224220000000  0.4185340000000  0.4626040000000 1.0
C      1  0.4548250000000  0.4286330000000  0.4626320000000 1.0
C      1  0.4181500000000  0.4861030000000  0.4611050000000 1.0
C      1  0.4351670000000  0.5509160000000  0.4613550000000 1.0
C      1  0.4925170000000  0.5823320000000  0.4664920000000 1.0
C      1  0.5601250000000  0.5653220000000  0.4628280000000 1.0
C      1  0.5429270000000  0.4278950000000  0.5360370000000 1.0
C      1  0.4705330000000  0.4174590000000  0.5365730000000 1.0
C      1  0.4191870000000  0.4783290000000  0.5354460000000 1.0
C      1  0.4325020000000  0.5423520000000  0.5413580000000 1.0
C      1  0.4858880000000  0.5882680000000  0.5410490000000 1.0
C      1  0.5583870000000  0.5649880000000  0.5361030000000 1.0
C      1  0.5784310000000  0.4916030000000  0.5344840000000 1.0
C      1  0.4849610000000  0.4775050000000  0.4831710000000 1.0
C      1  0.4711000000000  0.5041160000000  0.4845380000000 1.0
C      1  0.4866260000000  0.5261850000000  0.4928870000000 1.0
C      1  0.5122530000000  0.5294370000000  0.4827370000000 1.0
C      1  0.5356600000000  0.5129950000000  0.4874480000000 1.0
C      1  0.5634980000000  0.4734820000000  0.4878980000000 1.0
C      1  0.5138170000000  0.4680080000000  0.4850870000000 1.0
C      1  0.4898270000000  0.4372090000000  0.4259940000000 1.0
C      1  0.4513330000000  0.4646070000000  0.4259720000000 1.0
C      1  0.4488510000000  0.5106620000000  0.4315920000000 1.0
C      1  0.4749030000000  0.5488610000000  0.4311580000000 1.0
C      1  0.5202490000000  0.5562360000000  0.4326860000000 1.0
C      1  0.5553130000000  0.5294730000000  0.4301050000000 1.0
C      1  0.5348490000000  0.4422800000000  0.4197700000000 1.0
C      1  0.5611920000000  0.4404960000000  0.4261690000000 1.0
C      1  0.5157770000000  0.4269310000000  0.4354160000000 1.0
C      1  0.4625850000000  0.4390980000000  0.4367300000000 1.0
C      1  0.4331910000000  0.4856390000000  0.4362800000000 1.0
C      1  0.4481910000000  0.5402260000000  0.4383380000000 1.0
C      1  0.4937400000000  0.5695440000000  0.4407030000000 1.0
C      1  0.5502990000000  0.5574970000000  0.4368490000000 1.0
C      1  0.4696980000000  0.4610760000000  0.5243020000000 1.0
C      1  0.4648910000000  0.4894770000000  0.5271690000000 1.0
C      1  0.4801760000000  0.5334470000000  0.5198760000000 1.0
C      1  0.5043730000000  0.5495890000000  0.5249560000000 1.0
C      1  0.5245330000000  0.5294540000000  0.5298460000000 1.0
C      1  0.5122690000000  0.5039390000000  0.5368560000000 1.0
C      1  0.4995380000000  0.4572840000000  0.5234590000000 1.0
C      1  0.5396470000000  0.5075370000000  0.5886730000000 1.0
C      1  0.5144390000000  0.4634150000000  0.5867480000000 1.0
C      1  0.4855030000000  0.4654650000000  0.5835180000000 1.0
C      1  0.4667100000000  0.4885230000000  0.5838690000000 1.0
C      1  0.4724330000000  0.5184450000000  0.5854160000000 1.0
C      1  0.4971650000000  0.5372170000000  0.5847940000000 1.0
C      1  0.5262260000000  0.5328700000000  0.5855260000000 1.0
C      1  0.5448190000000  0.5505920000000  0.5730460000000 1.0
C      1  0.5603810000000  0.4975760000000  0.5712990000000 1.0
C      1  0.5304180000000  0.4439770000000  0.5724810000000 1.0
C      1  0.4772890000000  0.4422000000000  0.5700800000000 1.0
C      1  0.4403270000000  0.4801290000000  0.5737190000000 1.0
C      1  0.4495090000000  0.5327020000000  0.5766660000000 1.0
C      1  0.4933040000000  0.5641880000000  0.5754100000000 1.0
C      1  0.5557720000000  0.5589880000000  0.5054340000000 1.0
C      1  0.5963440000000  0.5100700000000  0.4941710000000 1.0
C      1  0.5371990000000  0.4282530000000  0.5084510000000 1.0
C      1  0.4642310000000  0.4162670000000  0.5094440000000 1.0
C      1  0.4221730000000  0.4874580000000  0.5040400000000 1.0
C      1  0.4327380000000  0.5503580000000  0.5004880000000 1.0
C      1  0.4824490000000  0.5890810000000  0.5124930000000 1.0
C      1  0.5163040000000  0.5837840000000  0.4828700000000 1.0
C      1  0.5770160000000  0.5526210000000  0.4829300000000 1.0
C      1  0.5653140000000  0.4447520000000  0.4762730000000 1.0
C      1  0.5010030000000  0.4192750000000  0.4807000000000 1.0
C      1  0.4382930000000  0.4437550000000  0.4808120000000 1.0
C      1  0.4131140000000  0.5074250000000  0.4803210000000 1.0
C      1  0.4454640000000  0.5691000000000  0.4825430000000 1.0
C      1  0.4733380000000  0.5044930000000  0.4537320000000 1.0
C      1  0.4911960000000  0.5234050000000  0.4432240000000 1.0
C      1  0.5155830000000  0.5323970000000  0.4539060000000 1.0
C      1  0.5410850000000  0.5155530000000  0.4545740000000 1.0
C      1  0.5647980000000  0.4792610000000  0.4575080000000 1.0
C      1  0.5165800000000  0.4713970000000  0.4556990000000 1.0
C      1  0.4879870000000  0.4779280000000  0.4541210000000 1.0
C      1  0.4491910000000  0.5568340000000  0.5606050000000 1.0
C      1  0.5110790000000  0.5810730000000  0.5585970000000 1.0
C      1  0.5665950000000  0.5429170000000  0.5542980000000 1.0
C      1  0.5663910000000  0.4738660000000  0.5545590000000 1.0
C      1  0.5204620000000  0.4226540000000  0.5556100000000 1.0
C      1  0.4575790000000  0.4439570000000  0.5485120000000 1.0
C      1  0.4210270000000  0.4961660000000  0.5578410000000 1.0
C      1  0.5428460000000  0.5762490000000  0.4831640000000 1.0
C      1  0.5965720000000  0.5334410000000  0.4837950000000 1.0
C      1  0.5461530000000  0.4248100000000  0.4808930000000 1.0
C      1  0.4734810000000  0.4142200000000  0.4811920000000 1.0
C      1  0.4219920000000  0.4666820000000  0.4818630000000 1.0
C      1  0.4197850000000  0.5343560000000  0.4798680000000 1.0
C      1  0.4698420000000  0.5838040000000  0.4861920000000 1.0
C      1  0.4877670000000  0.5281140000000  0.4143040000000 1.0
C      1  0.5156240000000  0.5364500000000  0.4095700000000 1.0
C      1  0.5376700000000  0.5181970000000  0.4098180000000 1.0
C      1  0.5224950000000  0.4657240000000  0.4073400000000 1.0
C      1  0.4944190000000  0.4597930000000  0.4086660000000 1.0
C      1  0.4712420000000  0.4771880000000  0.4090680000000 1.0
C      1  0.4682470000000  0.5059610000000  0.4099630000000 1.0
C      1  0.5835770000000  0.4885370000000  0.5060840000000 1.0
C      1  0.5112010000000  0.4406520000000  0.5011450000000 1.0
C      1  0.4523040000000  0.4415690000000  0.5057440000000 1.0
C      1  0.4478760000000  0.5027610000000  0.5077440000000 1.0
C      1  0.4471940000000  0.5326300000000  0.5178830000000 1.0
C      1  0.5077660000000  0.5773780000000  0.5094050000000 1.0
C      1  0.5423200000000  0.5318310000000  0.5081040000000 1.0
C      1  0.5542160000000  0.4479740000000  0.5554650000000 1.0
C      1  0.4922220000000  0.4205470000000  0.5561530000000 1.0
C      1  0.4335390000000  0.4590750000000  0.5540290000000 1.0
C      1  0.4267090000000  0.5220890000000  0.5617290000000 1.0
C      1  0.4697710000000  0.5743820000000  0.5608830000000 1.0
C      1  0.5381760000000  0.5740480000000  0.5560130000000 1.0
C      1  0.5734260000000  0.5152820000000  0.5525040000000 1.0
C      1  0.4844830000000  0.5080510000000  0.5337630000000 1.0
C      1  0.5391320000000  0.4884300000000  0.4455000000000 1.0
C      1  0.5343610000000  0.4841980000000  0.4982200000000 1.0
C      1  0.5293940000000  0.4838510000000  0.5953910000000 1.0
C      1  0.5353880000000  0.4901100000000  0.4158620000000 1.0
C      1  0.5194030000000  0.4798760000000  0.5257190000000 1.0
END
