TITL C-35344-8920-1 -0.0765984084092763 125000 -469.417184203082 0 0 67 (C1) n - 1
REM
REM in /rds/project/t2_vol4/rds-t2-cs072/BORA/CARBON/from-Arr/AIRSS/Generating-Clusters/GAP-ML-2020/Higher-Symm/SD-CG/HFTN-CG
REM
REM
REM
REM
REM
REM ./C.cell (b20cbc046b6831c77cfcea5457e17084)
REM AIRSS Version 0.9.1 bugfix July 2018 build 013d7b7c2542+ Fri, 06 Jul 2018 19:26:36 +0100
REM compiler GCC version 9.3.0
REM options -cpp -mtune=generic -march=x86-64 -g -O0
REM seed 876966918 -698030480 1161983104 2126786532 285504666 -2025262462 379107860 1820496460 151124447 278418611 78068610 993962133 595807417 -2042102263 771577072 1929451973 748842152 -1950120934 793135200 -1606995413 -312162570 874707682 -993199641 -412587877 874897631 -459468414 59365263 1140404606 1246451729 2009499933 -1227965647 -724937415 65743698
REM
CELL 1.54180   50.00000   50.00000   50.00000   90.00000   90.00000   90.00000
LATT -1
SFAC C  
C      1  0.5464310000000  0.4395810000000  0.4681640000000 1.0
C      1  0.5639210000000  0.4467380000000  0.4903520000000 1.0
C      1  0.5356690000000  0.4451430000000  0.5371910000000 1.0
C      1  0.5072750000000  0.4425520000000  0.5406020000000 1.0
C      1  0.4508090000000  0.4450250000000  0.5359340000000 1.0
C      1  0.4400380000000  0.4462010000000  0.4828920000000 1.0
C      1  0.4603370000000  0.4444440000000  0.4606620000000 1.0
C      1  0.4448420000000  0.4888250000000  0.4656040000000 1.0
C      1  0.4893890000000  0.4806930000000  0.4446510000000 1.0
C      1  0.5572460000000  0.4847870000000  0.4651580000000 1.0
C      1  0.5604210000000  0.4898860000000  0.5153760000000 1.0
C      1  0.5228660000000  0.4866090000000  0.5502550000000 1.0
C      1  0.4701390000000  0.4807520000000  0.5539800000000 1.0
C      1  0.4360930000000  0.4863680000000  0.5144080000000 1.0
C      1  0.5223150000000  0.5143420000000  0.5522520000000 1.0
C      1  0.4718370000000  0.5085330000000  0.5560960000000 1.0
C      1  0.4504150000000  0.5124100000000  0.5123890000000 1.0
C      1  0.4504530000000  0.5170660000000  0.4649780000000 1.0
C      1  0.4938170000000  0.5082480000000  0.4407840000000 1.0
C      1  0.5414540000000  0.5105550000000  0.4674020000000 1.0
C      1  0.5552110000000  0.5181140000000  0.5142800000000 1.0
C      1  0.4950840000000  0.4790110000000  0.5197880000000 1.0
C      1  0.4780250000000  0.4679450000000  0.4983540000000 1.0
C      1  0.4776100000000  0.4967270000000  0.5029920000000 1.0
C      1  0.4988640000000  0.5128480000000  0.4931250000000 1.0
C      1  0.5107610000000  0.4705560000000  0.4620780000000 1.0
C      1  0.5199270000000  0.4940490000000  0.4828930000000 1.0
C      1  0.5200340000000  0.4731940000000  0.5048860000000 1.0
C      1  0.4755640000000  0.4244710000000  0.4756430000000 1.0
C      1  0.5303220000000  0.4215750000000  0.4854150000000 1.0
C      1  0.5486750000000  0.4276960000000  0.5079390000000 1.0
C      1  0.5523100000000  0.4225590000000  0.5345760000000 1.0
C      1  0.4936000000000  0.4260610000000  0.5217970000000 1.0
C      1  0.4651090000000  0.4273500000000  0.5215150000000 1.0
C      1  0.4544560000000  0.4251370000000  0.4952200000000 1.0
C      1  0.5404830000000  0.4739330000000  0.5308210000000 1.0
C      1  0.4973620000000  0.4695240000000  0.5479990000000 1.0
C      1  0.4476570000000  0.4713020000000  0.5368470000000 1.0
C      1  0.4343690000000  0.4735630000000  0.4885290000000 1.0
C      1  0.4633550000000  0.4709430000000  0.4518980000000 1.0
C      1  0.5389380000000  0.4632370000000  0.4559210000000 1.0
C      1  0.5666060000000  0.4753340000000  0.4909510000000 1.0
C      1  0.4646040000000  0.5513620000000  0.5401780000000 1.0
C      1  0.4592040000000  0.5592100000000  0.4920280000000 1.0
C      1  0.4840670000000  0.5508150000000  0.4503150000000 1.0
C      1  0.5135100000000  0.5478740000000  0.4479870000000 1.0
C      1  0.5449920000000  0.5579610000000  0.4859380000000 1.0
C      1  0.5342820000000  0.5592120000000  0.5345510000000 1.0
C      1  0.4897460000000  0.5504740000000  0.5546570000000 1.0
C      1  0.5372140000000  0.5724790000000  0.5094520000000 1.0
C      1  0.5079370000000  0.5680660000000  0.5437140000000 1.0
C      1  0.4931350000000  0.5820500000000  0.5231140000000 1.0
C      1  0.4674020000000  0.5690860000000  0.5181370000000 1.0
C      1  0.4778840000000  0.5687960000000  0.4712740000000 1.0
C      1  0.5037230000000  0.5807330000000  0.4775920000000 1.0
C      1  0.5254710000000  0.5660220000000  0.4655880000000 1.0
C      1  0.5527160000000  0.5305920000000  0.4875340000000 1.0
C      1  0.5406360000000  0.5309740000000  0.5363100000000 1.0
C      1  0.4962110000000  0.5235050000000  0.5597290000000 1.0
C      1  0.4553970000000  0.5250230000000  0.5385700000000 1.0
C      1  0.4477810000000  0.5324740000000  0.4893680000000 1.0
C      1  0.4717960000000  0.5257820000000  0.4469680000000 1.0
C      1  0.5204120000000  0.5207320000000  0.4464370000000 1.0
C      1  0.5027550000000  0.5372420000000  0.5028830000000 1.0
C      1  0.5019490000000  0.4264780000000  0.4912330000000 1.0
C      1  0.5016910000000  0.4553980000000  0.4864710000000 1.0
C      1  0.5121090000000  0.5867740000000  0.5034500000000 1.0
END
