TITL C-3538-9258-8 -0.0337538052713846 125000 -208.137258080264 0 0 31 (C1) n - 1
REM
REM in /rds/project/t2_vol4/rds-t2-cs072/BORA/CARBON/from-Arr/AIRSS/Generating-Clusters/GAP-ML-2020/Higher-Symm/SD-CG/HFTN-CG
REM
REM
REM
REM
REM
REM ./C.cell (b20cbc046b6831c77cfcea5457e17084)
REM AIRSS Version 0.9.1 bugfix July 2018 build 013d7b7c2542+ Fri, 06 Jul 2018 19:26:36 +0100
REM compiler GCC version 9.3.0
REM options -cpp -mtune=generic -march=x86-64 -g -O0
REM seed -545165794 806373514 -2048846330 -1035480784 -823113231 1062644355 1277971657 -133035820 -1362025471 -275871150 -754949093 892653032 517638599 -1154814892 258214049 1344972816 -1976350527 527653448 1151013552 -310175291 -2030759117 -1687929532 1839560320 1399540255 -943249269 -90725211 -2012846091 1419438894 -1628413963 -2050962025 1078139630 -1479079850 1911889063
REM
CELL 1.54180   50.00000   50.00000   50.00000   90.00000   90.00000   90.00000
LATT -1
SFAC C  
C      1  0.4772220000000  0.5107170000000  0.5579230000000 1.0
C      1  0.4860080000000  0.5351130000000  0.5462960000000 1.0
C      1  0.5151470000000  0.5352300000000  0.5475300000000 1.0
C      1  0.5167490000000  0.5405750000000  0.5189330000000 1.0
C      1  0.5365900000000  0.5269530000000  0.5033640000000 1.0
C      1  0.5381810000000  0.5246130000000  0.4749880000000 1.0
C      1  0.5196870000000  0.5252880000000  0.4517040000000 1.0
C      1  0.4912070000000  0.5243750000000  0.4513600000000 1.0
C      1  0.4711480000000  0.5199390000000  0.4731360000000 1.0
C      1  0.4698440000000  0.5226120000000  0.5012340000000 1.0
C      1  0.5487070000000  0.4998880000000  0.4643440000000 1.0
C      1  0.5314960000000  0.5007010000000  0.4412690000000 1.0
C      1  0.4797300000000  0.5021930000000  0.4362020000000 1.0
C      1  0.4588270000000  0.4994420000000  0.4568040000000 1.0
C      1  0.4546900000000  0.5011960000000  0.5145010000000 1.0
C      1  0.4591680000000  0.4959490000000  0.5424740000000 1.0
C      1  0.4997980000000  0.4936470000000  0.5639530000000 1.0
C      1  0.5230810000000  0.5095460000000  0.5584330000000 1.0
C      1  0.5387470000000  0.4939250000000  0.5414980000000 1.0
C      1  0.5466380000000  0.5022260000000  0.5156650000000 1.0
C      1  0.5232460000000  0.4712650000000  0.5298120000000 1.0
C      1  0.5346990000000  0.4770430000000  0.5033670000000 1.0
C      1  0.5352360000000  0.4757170000000  0.4752610000000 1.0
C      1  0.5175710000000  0.4763650000000  0.4509460000000 1.0
C      1  0.4903030000000  0.4758490000000  0.4440770000000 1.0
C      1  0.4669070000000  0.4721080000000  0.4617390000000 1.0
C      1  0.4607350000000  0.4591200000000  0.4846490000000 1.0
C      1  0.4599050000000  0.4721890000000  0.5082080000000 1.0
C      1  0.4709280000000  0.4700230000000  0.5355110000000 1.0
C      1  0.4985410000000  0.4703120000000  0.5450520000000 1.0
C      1  0.4867470000000  0.5395820000000  0.5176210000000 1.0
END
