TITL C-35908-4231-3 169.506968793277 125000 -1304.05211495864 0 0 187 (C1) n - 1
REM
REM in /rds/project/t2_vol4/rds-t2-cs072/BORA/CARBON/from-Arr/AIRSS/Generating-Clusters/GAP-ML-2020/Higher-Symm/SD-CG/HFTN-CG/C160-200
REM
REM
REM
REM
REM
REM ./C.cell (6b4489405718ea1b717e0baf1da4c2d9)
REM AIRSS Version 0.9.1 bugfix July 2018 build 013d7b7c2542+ Fri, 06 Jul 2018 19:26:36 +0100
REM compiler GCC version 9.3.0
REM options -cpp -mtune=generic -march=x86-64 -g -O0
REM seed -275408232 -573656102 -1767502000 188723670 1899289038 1593848384 109188805 1864870082 213094322 408826844 -1507166044 -800234995 1671899221 1005604404 -4768399 -950046302 -1439091155 2108199736 1758755417 -1425042003 140759562 -51321035 -1897383007 951345616 1724407399 -516067053 1939980489 1557279102 -346174398 1960823220 1826390786 1784854418 519688041
REM
CELL 1.54180   50.00000   50.00000   50.00000   90.00000   90.00000   90.00000
LATT -1
SFAC C  
C      1  0.5426130000000  0.4384610000000  0.5894560000000 1.0
C      1  0.5503830000000  0.5066240000000  0.6121320000000 1.0
C      1  0.5449760000000  0.5732470000000  0.5973260000000 1.0
C      1  0.5453630000000  0.6041350000000  0.5397730000000 1.0
C      1  0.5521680000000  0.6168730000000  0.4737920000000 1.0
C      1  0.5321200000000  0.5762580000000  0.4213890000000 1.0
C      1  0.5464050000000  0.5129590000000  0.3852670000000 1.0
C      1  0.5485790000000  0.4497280000000  0.3747620000000 1.0
C      1  0.5500170000000  0.4050770000000  0.4309100000000 1.0
C      1  0.5504410000000  0.3895090000000  0.4961900000000 1.0
C      1  0.5414360000000  0.3999690000000  0.5600610000000 1.0
C      1  0.5289980000000  0.4333180000000  0.3861030000000 1.0
C      1  0.5300500000000  0.3915220000000  0.4464610000000 1.0
C      1  0.5267870000000  0.3784060000000  0.5099540000000 1.0
C      1  0.5163710000000  0.4007300000000  0.5735150000000 1.0
C      1  0.5288650000000  0.4614530000000  0.6053560000000 1.0
C      1  0.5268000000000  0.5232000000000  0.6177470000000 1.0
C      1  0.5219830000000  0.5888410000000  0.5886180000000 1.0
C      1  0.5306120000000  0.6155580000000  0.5180630000000 1.0
C      1  0.5266390000000  0.6146370000000  0.4618550000000 1.0
C      1  0.5060990000000  0.5802880000000  0.4108010000000 1.0
C      1  0.5229640000000  0.4984720000000  0.3777260000000 1.0
C      1  0.5324920000000  0.5349500000000  0.4862240000000 1.0
C      1  0.5320670000000  0.5252030000000  0.4577030000000 1.0
C      1  0.5344540000000  0.4966690000000  0.4461390000000 1.0
C      1  0.5344120000000  0.4684520000000  0.4612690000000 1.0
C      1  0.5290460000000  0.4598360000000  0.4884690000000 1.0
C      1  0.5429320000000  0.4609760000000  0.5123680000000 1.0
C      1  0.5247840000000  0.4694800000000  0.5334940000000 1.0
C      1  0.5409640000000  0.4876980000000  0.5470970000000 1.0
C      1  0.5370530000000  0.5157330000000  0.5448450000000 1.0
C      1  0.5546050000000  0.5364400000000  0.5324180000000 1.0
C      1  0.5431130000000  0.5513390000000  0.5089560000000 1.0
C      1  0.4618730000000  0.4408510000000  0.4165180000000 1.0
C      1  0.4437790000000  0.4127610000000  0.4559590000000 1.0
C      1  0.4529950000000  0.4055770000000  0.5129660000000 1.0
C      1  0.4689450000000  0.4334400000000  0.5748030000000 1.0
C      1  0.4462720000000  0.4723500000000  0.5971540000000 1.0
C      1  0.4505530000000  0.5282650000000  0.6014000000000 1.0
C      1  0.4555260000000  0.5848680000000  0.5708530000000 1.0
C      1  0.4490970000000  0.6038680000000  0.5091520000000 1.0
C      1  0.4678090000000  0.5859930000000  0.4478070000000 1.0
C      1  0.4531300000000  0.5416750000000  0.4083360000000 1.0
C      1  0.4466810000000  0.4919920000000  0.4005980000000 1.0
C      1  0.4827690000000  0.5242030000000  0.4443690000000 1.0
C      1  0.4871970000000  0.5018000000000  0.4290920000000 1.0
C      1  0.4813450000000  0.4607210000000  0.4584150000000 1.0
C      1  0.4810890000000  0.4534010000000  0.4851700000000 1.0
C      1  0.4607110000000  0.4550340000000  0.5043930000000 1.0
C      1  0.4681700000000  0.4627520000000  0.5328820000000 1.0
C      1  0.4588320000000  0.4889840000000  0.5454980000000 1.0
C      1  0.4716420000000  0.5136090000000  0.5412630000000 1.0
C      1  0.4713060000000  0.5451930000000  0.5347770000000 1.0
C      1  0.4622490000000  0.5562660000000  0.5089060000000 1.0
C      1  0.4747800000000  0.5541960000000  0.4846370000000 1.0
C      1  0.4698770000000  0.5734610000000  0.5932030000000 1.0
C      1  0.4643620000000  0.6094080000000  0.5336830000000 1.0
C      1  0.4760430000000  0.6057770000000  0.4679060000000 1.0
C      1  0.4695660000000  0.5636770000000  0.4023660000000 1.0
C      1  0.4750640000000  0.5055920000000  0.3768110000000 1.0
C      1  0.4775170000000  0.4516240000000  0.3928510000000 1.0
C      1  0.4786100000000  0.3990190000000  0.4437820000000 1.0
C      1  0.4713940000000  0.3919050000000  0.4947900000000 1.0
C      1  0.4707460000000  0.4055000000000  0.5626940000000 1.0
C      1  0.4803590000000  0.4626660000000  0.6126640000000 1.0
C      1  0.4725700000000  0.5120760000000  0.6116960000000 1.0
C      1  0.4632460000000  0.4871380000000  0.4232050000000 1.0
C      1  0.4576890000000  0.4630830000000  0.4378700000000 1.0
C      1  0.4291930000000  0.4281160000000  0.4736290000000 1.0
C      1  0.4376160000000  0.4296240000000  0.5020770000000 1.0
C      1  0.4517640000000  0.4399890000000  0.5493170000000 1.0
C      1  0.4375740000000  0.4869990000000  0.5726800000000 1.0
C      1  0.4320180000000  0.5157380000000  0.5814250000000 1.0
C      1  0.4521130000000  0.5609800000000  0.5540960000000 1.0
C      1  0.4378210000000  0.5743270000000  0.5062500000000 1.0
C      1  0.4552150000000  0.5610680000000  0.4608470000000 1.0
C      1  0.4530940000000  0.5371100000000  0.4401760000000 1.0
C      1  0.4632430000000  0.3949640000000  0.4678320000000 1.0
C      1  0.4548030000000  0.4111170000000  0.5400620000000 1.0
C      1  0.4603370000000  0.4468420000000  0.5993380000000 1.0
C      1  0.4641520000000  0.4859490000000  0.6150810000000 1.0
C      1  0.4550040000000  0.5549910000000  0.6066410000000 1.0
C      1  0.4539510000000  0.6091910000000  0.5592270000000 1.0
C      1  0.4572490000000  0.6136740000000  0.4855740000000 1.0
C      1  0.4787590000000  0.5826790000000  0.4224330000000 1.0
C      1  0.4538920000000  0.5189720000000  0.3920410000000 1.0
C      1  0.4676500000000  0.4783920000000  0.3862300000000 1.0
C      1  0.4589770000000  0.4167040000000  0.4308120000000 1.0
C      1  0.5557180000000  0.4235650000000  0.5672180000000 1.0
C      1  0.5620540000000  0.4625160000000  0.5878190000000 1.0
C      1  0.5628190000000  0.5275480000000  0.5962960000000 1.0
C      1  0.5558480000000  0.5736790000000  0.5703790000000 1.0
C      1  0.5661920000000  0.5985840000000  0.5192480000000 1.0
C      1  0.5615080000000  0.5927340000000  0.4609950000000 1.0
C      1  0.5472810000000  0.5527170000000  0.4145100000000 1.0
C      1  0.5623540000000  0.4964000000000  0.4013890000000 1.0
C      1  0.5570130000000  0.4511440000000  0.4199350000000 1.0
C      1  0.5648470000000  0.4112540000000  0.4552320000000 1.0
C      1  0.5591310000000  0.4081440000000  0.5163790000000 1.0
C      1  0.5902130000000  0.5134490000000  0.5499920000000 1.0
C      1  0.5830400000000  0.5284980000000  0.5253290000000 1.0
C      1  0.5902590000000  0.5470270000000  0.5057370000000 1.0
C      1  0.5883670000000  0.5484020000000  0.4757990000000 1.0
C      1  0.5815760000000  0.5305350000000  0.4551890000000 1.0
C      1  0.5833180000000  0.5022630000000  0.4502140000000 1.0
C      1  0.5845810000000  0.4764860000000  0.4600170000000 1.0
C      1  0.5915080000000  0.4539540000000  0.4782900000000 1.0
C      1  0.5914340000000  0.4523470000000  0.5071910000000 1.0
C      1  0.5988430000000  0.4721860000000  0.5241520000000 1.0
C      1  0.5907690000000  0.4846600000000  0.5471010000000 1.0
C      1  0.4168800000000  0.5625170000000  0.5246190000000 1.0
C      1  0.4305940000000  0.5656460000000  0.4785440000000 1.0
C      1  0.4285110000000  0.5215320000000  0.4448030000000 1.0
C      1  0.4189260000000  0.4940520000000  0.4453110000000 1.0
C      1  0.4292170000000  0.4680780000000  0.4472780000000 1.0
C      1  0.4147440000000  0.4507570000000  0.4645580000000 1.0
C      1  0.4156670000000  0.4406210000000  0.5201780000000 1.0
C      1  0.4239860000000  0.4479510000000  0.5461920000000 1.0
C      1  0.4155780000000  0.4721460000000  0.5584990000000 1.0
C      1  0.4154610000000  0.5297770000000  0.5626490000000 1.0
C      1  0.4252080000000  0.5532020000000  0.5498690000000 1.0
C      1  0.5134500000000  0.5296910000000  0.5550320000000 1.0
C      1  0.5018230000000  0.5525290000000  0.5368620000000 1.0
C      1  0.5152710000000  0.5635950000000  0.5114280000000 1.0
C      1  0.5048630000000  0.5530110000000  0.4815590000000 1.0
C      1  0.5046990000000  0.5369220000000  0.4553200000000 1.0
C      1  0.5112370000000  0.4854570000000  0.4279780000000 1.0
C      1  0.5082170000000  0.4594240000000  0.4451790000000 1.0
C      1  0.5069020000000  0.4401870000000  0.4931770000000 1.0
C      1  0.5039800000000  0.4332530000000  0.5218920000000 1.0
C      1  0.4998230000000  0.4546020000000  0.5408140000000 1.0
C      1  0.4934860000000  0.5076130000000  0.5574220000000 1.0
C      1  0.5386620000000  0.4283080000000  0.4168630000000 1.0
C      1  0.5426340000000  0.4005800000000  0.4719740000000 1.0
C      1  0.5370230000000  0.3969350000000  0.5324430000000 1.0
C      1  0.5155880000000  0.4263550000000  0.5848430000000 1.0
C      1  0.5509440000000  0.4792040000000  0.6082600000000 1.0
C      1  0.5393800000000  0.5456670000000  0.6020250000000 1.0
C      1  0.5323790000000  0.5892100000000  0.5595670000000 1.0
C      1  0.5541430000000  0.6183070000000  0.5010430000000 1.0
C      1  0.5348090000000  0.5875420000000  0.4479380000000 1.0
C      1  0.5388190000000  0.5395870000000  0.3906890000000 1.0
C      1  0.5528110000000  0.4688440000000  0.3982110000000 1.0
C      1  0.5674740000000  0.4410290000000  0.5491920000000 1.0
C      1  0.5673970000000  0.4690880000000  0.5589900000000 1.0
C      1  0.5775190000000  0.5295920000000  0.5717980000000 1.0
C      1  0.5662420000000  0.5516970000000  0.5572830000000 1.0
C      1  0.5691270000000  0.5720720000000  0.5055690000000 1.0
C      1  0.5758370000000  0.5747930000000  0.4768580000000 1.0
C      1  0.5562770000000  0.5338310000000  0.4367410000000 1.0
C      1  0.5603250000000  0.5045760000000  0.4293070000000 1.0
C      1  0.5619090000000  0.4575260000000  0.4478670000000 1.0
C      1  0.5766330000000  0.4354710000000  0.4612910000000 1.0
C      1  0.5676880000000  0.4366550000000  0.5205430000000 1.0
C      1  0.5201990000000  0.4762080000000  0.3975930000000 1.0
C      1  0.5132910000000  0.4323420000000  0.4332880000000 1.0
C      1  0.5121000000000  0.4117830000000  0.4798020000000 1.0
C      1  0.5067700000000  0.4046750000000  0.5284870000000 1.0
C      1  0.4970830000000  0.4464260000000  0.5717240000000 1.0
C      1  0.4991580000000  0.4966580000000  0.5833010000000 1.0
C      1  0.5106650000000  0.5419460000000  0.5842350000000 1.0
C      1  0.5032060000000  0.5787230000000  0.5520250000000 1.0
C      1  0.5084800000000  0.5969050000000  0.5098530000000 1.0
C      1  0.5137520000000  0.5772300000000  0.4670160000000 1.0
C      1  0.5117550000000  0.5423150000000  0.3799660000000 1.0
C      1  0.5010190000000  0.5187760000000  0.6032290000000 1.0
C      1  0.4986390000000  0.5708100000000  0.5831990000000 1.0
C      1  0.4907080000000  0.5986650000000  0.5330410000000 1.0
C      1  0.5039870000000  0.6027490000000  0.4788310000000 1.0
C      1  0.4961580000000  0.5629110000000  0.3900690000000 1.0
C      1  0.5013970000000  0.5162330000000  0.3728000000000 1.0
C      1  0.5057120000000  0.4508160000000  0.3885100000000 1.0
C      1  0.5053560000000  0.4080340000000  0.4490210000000 1.0
C      1  0.5012950000000  0.3913080000000  0.4997700000000 1.0
C      1  0.4957410000000  0.3956400000000  0.5551430000000 1.0
C      1  0.5021830000000  0.4681830000000  0.5931260000000 1.0
C      1  0.3958430000000  0.5153670000000  0.5470700000000 1.0
C      1  0.3876730000000  0.5262180000000  0.5228660000000 1.0
C      1  0.3992230000000  0.5468900000000  0.5091320000000 1.0
C      1  0.4079190000000  0.5491390000000  0.4804680000000 1.0
C      1  0.4056170000000  0.5295930000000  0.4610170000000 1.0
C      1  0.3951080000000  0.5021490000000  0.4605310000000 1.0
C      1  0.3809650000000  0.4851770000000  0.4754840000000 1.0
C      1  0.3934200000000  0.4606810000000  0.4808940000000 1.0
C      1  0.3940840000000  0.4553290000000  0.5093000000000 1.0
C      1  0.3813070000000  0.4741400000000  0.5253380000000 1.0
C      1  0.3945610000000  0.4862650000000  0.5465280000000 1.0
END
