TITL C-3521-9273-4 -15.1644214808686 125000 -935.559812851764 0 0 128 (C1) n - 1
REM
REM in /rds/project/t2_vol4/rds-t2-cs072/BORA/CARBON/from-Arr/AIRSS/Generating-Clusters/GAP-ML-2020/Higher-Symm/SD-CG/HFTN-CG
REM
REM
REM
REM
REM
REM ./C.cell (b20cbc046b6831c77cfcea5457e17084)
REM AIRSS Version 0.9.1 bugfix July 2018 build 013d7b7c2542+ Fri, 06 Jul 2018 19:26:36 +0100
REM compiler GCC version 9.3.0
REM options -cpp -mtune=generic -march=x86-64 -g -O0
REM seed 1280967421 -1670029828 1974740017 -1445916151 7520675 -1291760129 -533429873 -1424871427 180348517 -140209991 -1445111949 1471213980 -1172938945 -1408198580 1174776864 175759187 -1592787566 -1579524911 -976096248 2006144687 -679668123 -734298977 -1305436843 -1630197718 469906648 6129632 -599930257 -2112535050 -955022076 2131109339 848885078 -1091460736 1104112264
REM
CELL 1.54180   50.00000   50.00000   50.00000   90.00000   90.00000   90.00000
LATT -1
SFAC C  
C      1  0.5119870000000  0.4658850000000  0.4748700000000 1.0
C      1  0.4632280000000  0.4791870000000  0.5012250000000 1.0
C      1  0.4960910000000  0.5152150000000  0.4612990000000 1.0
C      1  0.5096280000000  0.5321750000000  0.5261820000000 1.0
C      1  0.4845990000000  0.4666890000000  0.5137220000000 1.0
C      1  0.4861030000000  0.5317720000000  0.4822870000000 1.0
C      1  0.4627470000000  0.5197710000000  0.4907520000000 1.0
C      1  0.5493200000000  0.4850010000000  0.4961800000000 1.0
C      1  0.5488940000000  0.5140440000000  0.5074270000000 1.0
C      1  0.4925540000000  0.4825530000000  0.5361580000000 1.0
C      1  0.5293800000000  0.5125210000000  0.5293680000000 1.0
C      1  0.5307580000000  0.4860870000000  0.4734480000000 1.0
C      1  0.4913580000000  0.4657210000000  0.4574640000000 1.0
C      1  0.5310840000000  0.4702410000000  0.5148710000000 1.0
C      1  0.5226380000000  0.5112370000000  0.4677330000000 1.0
C      1  0.4881760000000  0.5296800000000  0.5415480000000 1.0
C      1  0.5081510000000  0.4594460000000  0.5012470000000 1.0
C      1  0.5072900000000  0.5391730000000  0.4992900000000 1.0
C      1  0.5312210000000  0.5284140000000  0.4879940000000 1.0
C      1  0.4623620000000  0.4936280000000  0.4766770000000 1.0
C      1  0.4600160000000  0.5052270000000  0.5150270000000 1.0
C      1  0.5202500000000  0.4869440000000  0.5343660000000 1.0
C      1  0.4769300000000  0.5060530000000  0.5361900000000 1.0
C      1  0.4795590000000  0.4912280000000  0.4543650000000 1.0
C      1  0.5683610000000  0.4443990000000  0.4706710000000 1.0
C      1  0.4439610000000  0.4701340000000  0.5694000000000 1.0
C      1  0.4694500000000  0.5692600000000  0.4442550000000 1.0
C      1  0.5672980000000  0.5558970000000  0.5301740000000 1.0
C      1  0.4312900000000  0.4426750000000  0.5299990000000 1.0
C      1  0.4293570000000  0.5571390000000  0.4718710000000 1.0
C      1  0.4416620000000  0.5300810000000  0.4323110000000 1.0
C      1  0.5582580000000  0.4708880000000  0.4303120000000 1.0
C      1  0.5580470000000  0.5294080000000  0.5704390000000 1.0
C      1  0.4715940000000  0.4307910000000  0.5570000000000 1.0
C      1  0.5297370000000  0.5694510000000  0.5594880000000 1.0
C      1  0.5304380000000  0.4304980000000  0.4413850000000 1.0
C      1  0.4308020000000  0.4437730000000  0.4709150000000 1.0
C      1  0.5584460000000  0.4699920000000  0.5702650000000 1.0
C      1  0.5289580000000  0.5690390000000  0.4438080000000 1.0
C      1  0.4310640000000  0.5549110000000  0.5313340000000 1.0
C      1  0.5713970000000  0.4416820000000  0.5309310000000 1.0
C      1  0.5693560000000  0.5585660000000  0.4702620000000 1.0
C      1  0.5569290000000  0.5305010000000  0.4305810000000 1.0
C      1  0.4418340000000  0.4715880000000  0.4319450000000 1.0
C      1  0.4424150000000  0.5287090000000  0.5713640000000 1.0
C      1  0.5309030000000  0.4310200000000  0.5573570000000 1.0
C      1  0.4705360000000  0.5682000000000  0.5594680000000 1.0
C      1  0.4753490000000  0.4394060000000  0.4462420000000 1.0
C      1  0.4847010000000  0.5591940000000  0.4233270000000 1.0
C      1  0.5596920000000  0.4228490000000  0.4857960000000 1.0
C      1  0.4225350000000  0.4847830000000  0.5593230000000 1.0
C      1  0.4866750000000  0.4415910000000  0.5776510000000 1.0
C      1  0.5143810000000  0.5583340000000  0.5797920000000 1.0
C      1  0.5151880000000  0.4413660000000  0.4205500000000 1.0
C      1  0.5577670000000  0.5772350000000  0.5152440000000 1.0
C      1  0.4428790000000  0.4226750000000  0.5144450000000 1.0
C      1  0.4414300000000  0.5765210000000  0.4874840000000 1.0
C      1  0.4204220000000  0.5148720000000  0.4426080000000 1.0
C      1  0.5787570000000  0.4863700000000  0.4412490000000 1.0
C      1  0.5789610000000  0.5143320000000  0.5596600000000 1.0
C      1  0.5133850000000  0.5585400000000  0.4232840000000 1.0
C      1  0.4428650000000  0.4235270000000  0.4857770000000 1.0
C      1  0.5791250000000  0.4855750000000  0.5601690000000 1.0
C      1  0.5153610000000  0.4417460000000  0.5777820000000 1.0
C      1  0.4856240000000  0.5585860000000  0.5809600000000 1.0
C      1  0.4860930000000  0.4417990000000  0.4192040000000 1.0
C      1  0.4421710000000  0.5751220000000  0.5160250000000 1.0
C      1  0.5600170000000  0.4219410000000  0.5146910000000 1.0
C      1  0.5579710000000  0.5782780000000  0.4864570000000 1.0
C      1  0.5778260000000  0.5150900000000  0.4406830000000 1.0
C      1  0.4203570000000  0.4861500000000  0.4421550000000 1.0
C      1  0.4219290000000  0.5134930000000  0.5600270000000 1.0
C      1  0.4696200000000  0.4117770000000  0.4846060000000 1.0
C      1  0.4081740000000  0.4848770000000  0.4687550000000 1.0
C      1  0.4858530000000  0.4691740000000  0.4098660000000 1.0
C      1  0.4686710000000  0.5868810000000  0.5168900000000 1.0
C      1  0.5335310000000  0.4100170000000  0.5149400000000 1.0
C      1  0.5312290000000  0.5896940000000  0.4863530000000 1.0
C      1  0.4088380000000  0.5142170000000  0.5339080000000 1.0
C      1  0.5904980000000  0.4842560000000  0.5335280000000 1.0
C      1  0.5894280000000  0.5165550000000  0.4673080000000 1.0
C      1  0.4851540000000  0.5313250000000  0.5912600000000 1.0
C      1  0.5158590000000  0.4679230000000  0.5903090000000 1.0
C      1  0.5140070000000  0.5325050000000  0.4106360000000 1.0
C      1  0.5335350000000  0.4100080000000  0.4848690000000 1.0
C      1  0.5897310000000  0.4869310000000  0.4680640000000 1.0
C      1  0.5155360000000  0.4685400000000  0.4100740000000 1.0
C      1  0.5312510000000  0.5894230000000  0.5164320000000 1.0
C      1  0.4695800000000  0.4111260000000  0.5147490000000 1.0
C      1  0.4682390000000  0.5877700000000  0.4869860000000 1.0
C      1  0.5901230000000  0.5139190000000  0.5329720000000 1.0
C      1  0.4095310000000  0.4839860000000  0.5333900000000 1.0
C      1  0.4082750000000  0.5151220000000  0.4691350000000 1.0
C      1  0.5152810000000  0.5312840000000  0.5906760000000 1.0
C      1  0.4858410000000  0.4680510000000  0.5899790000000 1.0
C      1  0.4837540000000  0.5331020000000  0.4107580000000 1.0
C      1  0.4855150000000  0.5832590000000  0.5393260000000 1.0
C      1  0.5844910000000  0.5380120000000  0.4843520000000 1.0
C      1  0.5383820000000  0.4848360000000  0.5860310000000 1.0
C      1  0.4873470000000  0.4169900000000  0.4631490000000 1.0
C      1  0.5142150000000  0.5841910000000  0.4641450000000 1.0
C      1  0.5163440000000  0.4154020000000  0.5372780000000 1.0
C      1  0.5863280000000  0.4623730000000  0.5167510000000 1.0
C      1  0.4135720000000  0.5366410000000  0.5167430000000 1.0
C      1  0.4137050000000  0.4625390000000  0.4857420000000 1.0
C      1  0.5367440000000  0.5155900000000  0.4150240000000 1.0
C      1  0.4656830000000  0.4874190000000  0.4223740000000 1.0
C      1  0.4628300000000  0.5143260000000  0.5869110000000 1.0
C      1  0.5147470000000  0.5846060000000  0.5391900000000 1.0
C      1  0.4133060000000  0.5370880000000  0.4867510000000 1.0
C      1  0.4633580000000  0.4848200000000  0.5856650000000 1.0
C      1  0.5163780000000  0.4149590000000  0.4624260000000 1.0
C      1  0.4848110000000  0.5841470000000  0.4642270000000 1.0
C      1  0.4866530000000  0.4152570000000  0.5372780000000 1.0
C      1  0.4141850000000  0.4619810000000  0.5157160000000 1.0
C      1  0.5767870000000  0.5321020000000  0.5138410000000 1.0
C      1  0.5775960000000  0.4681670000000  0.4875250000000 1.0
C      1  0.4616310000000  0.5166170000000  0.4159690000000 1.0
C      1  0.5377190000000  0.4858180000000  0.4150600000000 1.0
C      1  0.5378850000000  0.5144440000000  0.5859270000000 1.0
C      1  0.4464040000000  0.5521440000000  0.5554720000000 1.0
C      1  0.5537920000000  0.5548200000000  0.4460160000000 1.0
C      1  0.5556800000000  0.4454290000000  0.5551310000000 1.0
C      1  0.4452360000000  0.5539140000000  0.4479380000000 1.0
C      1  0.4474810000000  0.4463260000000  0.5536720000000 1.0
C      1  0.5548380000000  0.4461550000000  0.4453700000000 1.0
C      1  0.4466960000000  0.4488040000000  0.4477030000000 1.0
C      1  0.5539440000000  0.5539100000000  0.5553240000000 1.0
END
