TITL C-35826-1746-4 -84.0496290705115 125000 -1270.00467655746 0 0 181 (C1) n - 1
REM
REM in /rds/project/t2_vol4/rds-t2-cs072/BORA/CARBON/from-Arr/AIRSS/Generating-Clusters/GAP-ML-2020/Higher-Symm/SD-CG/HFTN-CG/C160-200
REM
REM
REM
REM
REM
REM ./C.cell (6b4489405718ea1b717e0baf1da4c2d9)
REM AIRSS Version 0.9.1 bugfix July 2018 build 013d7b7c2542+ Fri, 06 Jul 2018 19:26:36 +0100
REM compiler GCC version 9.3.0
REM options -cpp -mtune=generic -march=x86-64 -g -O0
REM seed 185232502 1039059643 -2115500306 -34290172 -1682133209 607377853 -1971640921 1185085941 -390912605 -833645066 -41612284 855181368 -2428181 -1204830768 258076056 660196689 -715958459 2083029079 -352856837 -1053407039 -1731215349 -1524491432 -1452947113 -1113463523 -2077475039 -867517156 1657369953 1292285416 1116875439 -722688149 1334609957 37551282 -528465827
REM
CELL 1.54180   50.00000   50.00000   50.00000   90.00000   90.00000   90.00000
LATT -1
SFAC C  
C      1  0.4699500000000  0.4035960000000  0.5293080000000 1.0
C      1  0.4675990000000  0.4473810000000  0.4200720000000 1.0
C      1  0.4636320000000  0.5606060000000  0.4171940000000 1.0
C      1  0.4679530000000  0.5948500000000  0.5315910000000 1.0
C      1  0.4651730000000  0.5003380000000  0.6023740000000 1.0
C      1  0.5892230000000  0.5033810000000  0.4642890000000 1.0
C      1  0.5919950000000  0.5377510000000  0.4935030000000 1.0
C      1  0.5919450000000  0.5203960000000  0.5349570000000 1.0
C      1  0.5927170000000  0.4757200000000  0.5251070000000 1.0
C      1  0.5931960000000  0.4541720000000  0.4808290000000 1.0
C      1  0.4241310000000  0.4826380000000  0.4809470000000 1.0
C      1  0.4245850000000  0.5117080000000  0.4789940000000 1.0
C      1  0.4253380000000  0.5225680000000  0.5067970000000 1.0
C      1  0.4251320000000  0.4991920000000  0.5251620000000 1.0
C      1  0.4248480000000  0.4741730000000  0.5090500000000 1.0
C      1  0.4971480000000  0.4602180000000  0.5218140000000 1.0
C      1  0.4965620000000  0.4640530000000  0.4665580000000 1.0
C      1  0.4925410000000  0.5163380000000  0.4612050000000 1.0
C      1  0.4952120000000  0.5440720000000  0.5068420000000 1.0
C      1  0.4924530000000  0.5094990000000  0.5427050000000 1.0
C      1  0.5271180000000  0.3975600000000  0.4645710000000 1.0
C      1  0.5287500000000  0.5051530000000  0.4034470000000 1.0
C      1  0.5337910000000  0.5931850000000  0.4735740000000 1.0
C      1  0.5288980000000  0.5539540000000  0.5802550000000 1.0
C      1  0.5355500000000  0.4413370000000  0.5769910000000 1.0
C      1  0.4125460000000  0.5466560000000  0.5418900000000 1.0
C      1  0.4169120000000  0.4734510000000  0.5589300000000 1.0
C      1  0.4115790000000  0.4354130000000  0.4947540000000 1.0
C      1  0.4131740000000  0.4881130000000  0.4391540000000 1.0
C      1  0.4169240000000  0.5522510000000  0.4678340000000 1.0
C      1  0.4486690000000  0.5365710000000  0.4084830000000 1.0
C      1  0.4576110000000  0.5900790000000  0.5051920000000 1.0
C      1  0.4508260000000  0.5251460000000  0.5939220000000 1.0
C      1  0.4589560000000  0.4221100000000  0.5489960000000 1.0
C      1  0.4556260000000  0.4311490000000  0.4409890000000 1.0
C      1  0.5795050000000  0.5673170000000  0.5284420000000 1.0
C      1  0.5808240000000  0.4954080000000  0.5730540000000 1.0
C      1  0.5818900000000  0.4287930000000  0.5184520000000 1.0
C      1  0.5801840000000  0.4630760000000  0.4375360000000 1.0
C      1  0.5794660000000  0.5471920000000  0.4456020000000 1.0
C      1  0.5424970000000  0.3855410000000  0.5364180000000 1.0
C      1  0.5390190000000  0.4292550000000  0.4036550000000 1.0
C      1  0.5286850000000  0.5780750000000  0.4093100000000 1.0
C      1  0.5274330000000  0.6103100000000  0.5443160000000 1.0
C      1  0.5285990000000  0.4918240000000  0.6197390000000 1.0
C      1  0.4447650000000  0.5467580000000  0.4577050000000 1.0
C      1  0.4388420000000  0.5587260000000  0.5365650000000 1.0
C      1  0.4457000000000  0.4813430000000  0.5631510000000 1.0
C      1  0.4384110000000  0.4282320000000  0.5056690000000 1.0
C      1  0.4431070000000  0.4868380000000  0.4402960000000 1.0
C      1  0.5485200000000  0.5076370000000  0.4283150000000 1.0
C      1  0.5548240000000  0.5724840000000  0.4842730000000 1.0
C      1  0.5498240000000  0.5369230000000  0.5632690000000 1.0
C      1  0.5573850000000  0.4530040000000  0.5565620000000 1.0
C      1  0.5702910000000  0.4368620000000  0.4733620000000 1.0
C      1  0.4098760000000  0.4439060000000  0.4678790000000 1.0
C      1  0.4073410000000  0.5155670000000  0.4344860000000 1.0
C      1  0.4130540000000  0.5618500000000  0.4936450000000 1.0
C      1  0.4098690000000  0.5256430000000  0.5611980000000 1.0
C      1  0.4132340000000  0.4509440000000  0.5431310000000 1.0
C      1  0.4977430000000  0.6105070000000  0.5000880000000 1.0
C      1  0.4945890000000  0.5349180000000  0.6078400000000 1.0
C      1  0.5008000000000  0.4106160000000  0.5630730000000 1.0
C      1  0.4976500000000  0.4147850000000  0.4340740000000 1.0
C      1  0.4939390000000  0.5376860000000  0.3920040000000 1.0
C      1  0.5219390000000  0.3837000000000  0.5012280000000 1.0
C      1  0.5204040000000  0.4656780000000  0.3901370000000 1.0
C      1  0.5300670000000  0.5950830000000  0.4317710000000 1.0
C      1  0.5249340000000  0.5942220000000  0.5674930000000 1.0
C      1  0.5307160000000  0.4647710000000  0.6115450000000 1.0
C      1  0.5081860000000  0.4679080000000  0.4417000000000 1.0
C      1  0.4955880000000  0.5409220000000  0.4490420000000 1.0
C      1  0.5043630000000  0.5620840000000  0.5251770000000 1.0
C      1  0.4969410000000  0.4955030000000  0.5660970000000 1.0
C      1  0.5110780000000  0.4393040000000  0.5078320000000 1.0
C      1  0.5701610000000  0.4696060000000  0.5782220000000 1.0
C      1  0.5612360000000  0.4201490000000  0.4974550000000 1.0
C      1  0.5566420000000  0.4776770000000  0.4247460000000 1.0
C      1  0.5683630000000  0.5711280000000  0.4570870000000 1.0
C      1  0.5575010000000  0.5623300000000  0.5483320000000 1.0
C      1  0.4606030000000  0.4756420000000  0.4180780000000 1.0
C      1  0.4700060000000  0.5612850000000  0.4466760000000 1.0
C      1  0.4598530000000  0.5748240000000  0.5508410000000 1.0
C      1  0.4711380000000  0.4797390000000  0.5806980000000 1.0
C      1  0.4599900000000  0.4074400000000  0.5023190000000 1.0
C      1  0.5246430000000  0.4981910000000  0.5703590000000 1.0
C      1  0.5378950000000  0.4348940000000  0.5178020000000 1.0
C      1  0.5364470000000  0.4608030000000  0.4415240000000 1.0
C      1  0.5232970000000  0.5429750000000  0.4452060000000 1.0
C      1  0.5330080000000  0.5655670000000  0.5252830000000 1.0
C      1  0.5706970000000  0.4279680000000  0.5445680000000 1.0
C      1  0.5716750000000  0.4365590000000  0.4438280000000 1.0
C      1  0.5621610000000  0.5355240000000  0.4246980000000 1.0
C      1  0.5667260000000  0.5856740000000  0.5099580000000 1.0
C      1  0.5633040000000  0.5169690000000  0.5832770000000 1.0
C      1  0.5040470000000  0.4878470000000  0.3957190000000 1.0
C      1  0.5109280000000  0.5934400000000  0.4534750000000 1.0
C      1  0.5055880000000  0.5738130000000  0.5736290000000 1.0
C      1  0.5124240000000  0.4518130000000  0.5932310000000 1.0
C      1  0.5033570000000  0.3898080000000  0.4801910000000 1.0
C      1  0.4731440000000  0.5452070000000  0.5921510000000 1.0
C      1  0.4792770000000  0.4286210000000  0.5690020000000 1.0
C      1  0.4749470000000  0.4121780000000  0.4515310000000 1.0
C      1  0.4716120000000  0.5207730000000  0.3975590000000 1.0
C      1  0.4772770000000  0.5976390000000  0.4852270000000 1.0
C      1  0.5198570000000  0.4799660000000  0.5210930000000 1.0
C      1  0.5171780000000  0.4526480000000  0.4823550000000 1.0
C      1  0.5168940000000  0.5095230000000  0.4759020000000 1.0
C      1  0.5190290000000  0.5282560000000  0.5000550000000 1.0
C      1  0.5181390000000  0.5100920000000  0.5275000000000 1.0
C      1  0.4765060000000  0.4008410000000  0.4782200000000 1.0
C      1  0.4769200000000  0.4933490000000  0.4023450000000 1.0
C      1  0.4834810000000  0.5865220000000  0.4595110000000 1.0
C      1  0.4775170000000  0.5665080000000  0.5729710000000 1.0
C      1  0.4849190000000  0.4521270000000  0.5844960000000 1.0
C      1  0.4867660000000  0.5099480000000  0.6188660000000 1.0
C      1  0.4941450000000  0.3941390000000  0.5408000000000 1.0
C      1  0.4915840000000  0.4333190000000  0.4133340000000 1.0
C      1  0.4857860000000  0.5639090000000  0.3987620000000 1.0
C      1  0.4902900000000  0.6125420000000  0.5277080000000 1.0
C      1  0.4715510000000  0.5007060000000  0.5251540000000 1.0
C      1  0.4729370000000  0.4713210000000  0.5098710000000 1.0
C      1  0.4727890000000  0.4774770000000  0.4794370000000 1.0
C      1  0.4707850000000  0.5096250000000  0.4775360000000 1.0
C      1  0.4715120000000  0.5255090000000  0.5059270000000 1.0
C      1  0.3809240000000  0.4848100000000  0.4812950000000 1.0
C      1  0.3812130000000  0.5135840000000  0.4805710000000 1.0
C      1  0.3813180000000  0.5221700000000  0.5080050000000 1.0
C      1  0.3817500000000  0.4989830000000  0.5257000000000 1.0
C      1  0.3811910000000  0.4758180000000  0.5088420000000 1.0
C      1  0.4489340000000  0.4992070000000  0.5418440000000 1.0
C      1  0.4476790000000  0.4560990000000  0.5141550000000 1.0
C      1  0.4469190000000  0.4706580000000  0.4648670000000 1.0
C      1  0.4480620000000  0.5175890000000  0.4613200000000 1.0
C      1  0.4476100000000  0.5405160000000  0.5127010000000 1.0
C      1  0.5219360000000  0.5317450000000  0.3975660000000 1.0
C      1  0.5257210000000  0.6069790000000  0.4966750000000 1.0
C      1  0.5223960000000  0.5361810000000  0.6009300000000 1.0
C      1  0.5284890000000  0.4167000000000  0.5658060000000 1.0
C      1  0.5251160000000  0.4111840000000  0.4408440000000 1.0
C      1  0.4014750000000  0.4551460000000  0.5154600000000 1.0
C      1  0.4009640000000  0.4725370000000  0.4635370000000 1.0
C      1  0.4020520000000  0.5259450000000  0.4627240000000 1.0
C      1  0.4019960000000  0.5419370000000  0.5139520000000 1.0
C      1  0.4031230000000  0.4991640000000  0.5468400000000 1.0
C      1  0.4236340000000  0.5290630000000  0.4165730000000 1.0
C      1  0.4380370000000  0.5690130000000  0.5067220000000 1.0
C      1  0.4252420000000  0.5258650000000  0.5840720000000 1.0
C      1  0.4380510000000  0.4369780000000  0.5361700000000 1.0
C      1  0.4361740000000  0.4442950000000  0.4560360000000 1.0
C      1  0.5393440000000  0.5139960000000  0.5470410000000 1.0
C      1  0.5446960000000  0.4630950000000  0.5292960000000 1.0
C      1  0.5451970000000  0.4571840000000  0.4703130000000 1.0
C      1  0.5375690000000  0.5175400000000  0.4558030000000 1.0
C      1  0.5422310000000  0.5481380000000  0.5010870000000 1.0
C      1  0.5648420000000  0.4811250000000  0.5158020000000 1.0
C      1  0.5523180000000  0.4822740000000  0.4867700000000 1.0
C      1  0.5611190000000  0.5083750000000  0.4749110000000 1.0
C      1  0.5639160000000  0.5270390000000  0.4995260000000 1.0
C      1  0.5641040000000  0.5103620000000  0.5254240000000 1.0
C      1  0.5404330000000  0.5969720000000  0.5202370000000 1.0
C      1  0.5369470000000  0.5104600000000  0.5974610000000 1.0
C      1  0.5465050000000  0.4117160000000  0.5429580000000 1.0
C      1  0.5451210000000  0.4308520000000  0.4308220000000 1.0
C      1  0.5364350000000  0.5497150000000  0.4161270000000 1.0
C      1  0.5449960000000  0.3966490000000  0.4878860000000 1.0
C      1  0.5450050000000  0.4792350000000  0.3972890000000 1.0
C      1  0.5528470000000  0.5934750000000  0.4488740000000 1.0
C      1  0.5471780000000  0.5772190000000  0.5715560000000 1.0
C      1  0.5539530000000  0.4563120000000  0.5972850000000 1.0
C      1  0.5957200000000  0.5315020000000  0.4651090000000 1.0
C      1  0.5968230000000  0.5454330000000  0.5209450000000 1.0
C      1  0.5964710000000  0.4959740000000  0.5472700000000 1.0
C      1  0.5969370000000  0.4519470000000  0.5095580000000 1.0
C      1  0.5940100000000  0.4750850000000  0.4596440000000 1.0
C      1  0.5052350000000  0.5823620000000  0.3960700000000 1.0
C      1  0.5068280000000  0.6281000000000  0.5430320000000 1.0
C      1  0.5058260000000  0.4975600000000  0.6337110000000 1.0
C      1  0.5163430000000  0.3810910000000  0.5282610000000 1.0
C      1  0.5144160000000  0.4393450000000  0.3967210000000 1.0
C      1  0.5228990000000  0.4826800000000  0.4909420000000 1.0
END
