TITL C-35823-1753-1 -0.0416458883110979 125000 -1163.29733116961 0 0 165 (C1) n - 1
REM
REM in /rds/project/t2_vol4/rds-t2-cs072/BORA/CARBON/from-Arr/AIRSS/Generating-Clusters/GAP-ML-2020/Higher-Symm/SD-CG/HFTN-CG/C160-200
REM
REM
REM
REM
REM
REM ./C.cell (6b4489405718ea1b717e0baf1da4c2d9)
REM AIRSS Version 0.9.1 bugfix July 2018 build 013d7b7c2542+ Fri, 06 Jul 2018 19:26:36 +0100
REM compiler GCC version 9.3.0
REM options -cpp -mtune=generic -march=x86-64 -g -O0
REM seed -1945237152 -2113398507 -265994943 -555038283 1581891124 -1034628694 151571418 229185042 -196303166 -208468452 -1347944825 -459205732 -1879017655 308508865 1043215286 -1803385870 589325177 -867091106 1075866514 303144039 1182793449 646809590 -666994667 -1918380419 267222049 1332801512 1406744001 -1393420349 -82279156 786593859 1070592358 -1644495306 -1732475802
REM
CELL 1.54180   50.00000   50.00000   50.00000   90.00000   90.00000   90.00000
LATT -1
SFAC C  
C      1  0.4989540000000  0.6023970000000  0.5432210000000 1.0
C      1  0.4060690000000  0.5416920000000  0.5091090000000 1.0
C      1  0.6002140000000  0.5106910000000  0.5360610000000 1.0
C      1  0.4933640000000  0.5333450000000  0.5566820000000 1.0
C      1  0.5092270000000  0.5872570000000  0.5663530000000 1.0
C      1  0.4920130000000  0.4874420000000  0.5018530000000 1.0
C      1  0.5663810000000  0.4247210000000  0.5425860000000 1.0
C      1  0.5640380000000  0.4413310000000  0.4587370000000 1.0
C      1  0.4938710000000  0.5207730000000  0.4583950000000 1.0
C      1  0.4792130000000  0.5928960000000  0.4581180000000 1.0
C      1  0.5427080000000  0.4174150000000  0.5533750000000 1.0
C      1  0.5272650000000  0.4648360000000  0.5682250000000 1.0
C      1  0.4868350000000  0.5459200000000  0.5840480000000 1.0
C      1  0.4840020000000  0.5997060000000  0.4865690000000 1.0
C      1  0.4360350000000  0.4967860000000  0.4778820000000 1.0
C      1  0.4555900000000  0.5145760000000  0.4907190000000 1.0
C      1  0.3976710000000  0.5189150000000  0.5268750000000 1.0
C      1  0.4828240000000  0.3892530000000  0.5204760000000 1.0
C      1  0.4201460000000  0.5445190000000  0.4617510000000 1.0
C      1  0.5195990000000  0.4847330000000  0.4919100000000 1.0
C      1  0.5250980000000  0.5626260000000  0.4685130000000 1.0
C      1  0.5034570000000  0.4758760000000  0.5856760000000 1.0
C      1  0.4976800000000  0.3835760000000  0.4981020000000 1.0
C      1  0.4266110000000  0.4970400000000  0.4476910000000 1.0
C      1  0.5012810000000  0.4968310000000  0.5306380000000 1.0
C      1  0.5425840000000  0.5874660000000  0.5347920000000 1.0
C      1  0.5899700000000  0.5732100000000  0.5086750000000 1.0
C      1  0.5161220000000  0.3982930000000  0.4855900000000 1.0
C      1  0.5198080000000  0.4694300000000  0.4682660000000 1.0
C      1  0.5957180000000  0.4978500000000  0.4902970000000 1.0
C      1  0.4762270000000  0.4654120000000  0.5105720000000 1.0
C      1  0.4664160000000  0.4431830000000  0.5803230000000 1.0
C      1  0.5380690000000  0.4391420000000  0.4997610000000 1.0
C      1  0.5578830000000  0.5284540000000  0.4280380000000 1.0
C      1  0.4581920000000  0.5391560000000  0.5934500000000 1.0
C      1  0.5855970000000  0.4885450000000  0.4408010000000 1.0
C      1  0.5142900000000  0.4428690000000  0.4796210000000 1.0
C      1  0.4056340000000  0.5032420000000  0.4845070000000 1.0
C      1  0.4322680000000  0.4914340000000  0.5770400000000 1.0
C      1  0.4924560000000  0.4511390000000  0.3976060000000 1.0
C      1  0.5075480000000  0.5436030000000  0.4051260000000 1.0
C      1  0.4420230000000  0.4106400000000  0.4954730000000 1.0
C      1  0.5532530000000  0.5652670000000  0.4778390000000 1.0
C      1  0.5292940000000  0.5770290000000  0.4933640000000 1.0
C      1  0.5369800000000  0.5783750000000  0.5625950000000 1.0
C      1  0.5057190000000  0.5447270000000  0.5319510000000 1.0
C      1  0.5593810000000  0.5275410000000  0.5738020000000 1.0
C      1  0.5550490000000  0.4873170000000  0.4045340000000 1.0
C      1  0.5051760000000  0.4252580000000  0.5824750000000 1.0
C      1  0.5303260000000  0.4106560000000  0.5080020000000 1.0
C      1  0.4091340000000  0.4596770000000  0.4775870000000 1.0
C      1  0.4401610000000  0.4676140000000  0.4827050000000 1.0
C      1  0.5352200000000  0.4378840000000  0.4219130000000 1.0
C      1  0.6013730000000  0.5210850000000  0.5090110000000 1.0
C      1  0.5548080000000  0.5421920000000  0.5213990000000 1.0
C      1  0.5873760000000  0.4488890000000  0.5054570000000 1.0
C      1  0.5512270000000  0.5902960000000  0.4401540000000 1.0
C      1  0.5142350000000  0.5057950000000  0.4442600000000 1.0
C      1  0.4150120000000  0.4311110000000  0.4732210000000 1.0
C      1  0.4163220000000  0.4217710000000  0.5006640000000 1.0
C      1  0.5775800000000  0.5472700000000  0.4432130000000 1.0
C      1  0.4952550000000  0.5222040000000  0.6029570000000 1.0
C      1  0.5726820000000  0.4618690000000  0.4396550000000 1.0
C      1  0.6030990000000  0.4733030000000  0.5055630000000 1.0
C      1  0.4712500000000  0.5956760000000  0.5354920000000 1.0
C      1  0.5067950000000  0.5391430000000  0.4772350000000 1.0
C      1  0.4684820000000  0.5335090000000  0.4495820000000 1.0
C      1  0.5672190000000  0.5720190000000  0.4528260000000 1.0
C      1  0.4746630000000  0.4782780000000  0.4571360000000 1.0
C      1  0.5550310000000  0.4603530000000  0.4169210000000 1.0
C      1  0.4567440000000  0.5780300000000  0.4501240000000 1.0
C      1  0.5553340000000  0.5553900000000  0.5661530000000 1.0
C      1  0.4930060000000  0.4231640000000  0.4400740000000 1.0
C      1  0.4366720000000  0.5415500000000  0.5766840000000 1.0
C      1  0.4546160000000  0.5133800000000  0.5245060000000 1.0
C      1  0.5719860000000  0.5031510000000  0.4205690000000 1.0
C      1  0.4444780000000  0.5580640000000  0.5542180000000 1.0
C      1  0.4624780000000  0.4180570000000  0.5672970000000 1.0
C      1  0.5335840000000  0.4680690000000  0.5149830000000 1.0
C      1  0.4025270000000  0.4841880000000  0.4619390000000 1.0
C      1  0.5138920000000  0.4694000000000  0.5388830000000 1.0
C      1  0.4627560000000  0.5797690000000  0.5579750000000 1.0
C      1  0.5252930000000  0.5836300000000  0.4459540000000 1.0
C      1  0.4354810000000  0.4884310000000  0.5269120000000 1.0
C      1  0.4644140000000  0.5156200000000  0.4044790000000 1.0
C      1  0.5191090000000  0.6049740000000  0.5245300000000 1.0
C      1  0.4568840000000  0.4936440000000  0.5910870000000 1.0
C      1  0.4843900000000  0.4301260000000  0.5179960000000 1.0
C      1  0.4669410000000  0.5152670000000  0.6060980000000 1.0
C      1  0.5411550000000  0.4270420000000  0.4468200000000 1.0
C      1  0.5456370000000  0.5145990000000  0.5276370000000 1.0
C      1  0.4622610000000  0.5949030000000  0.5068320000000 1.0
C      1  0.4910800000000  0.5217770000000  0.3955640000000 1.0
C      1  0.4869930000000  0.4541750000000  0.5365560000000 1.0
C      1  0.4411810000000  0.4191320000000  0.4662700000000 1.0
C      1  0.5409800000000  0.5155580000000  0.4503680000000 1.0
C      1  0.5064090000000  0.4335830000000  0.4167350000000 1.0
C      1  0.4649570000000  0.4635030000000  0.5589070000000 1.0
C      1  0.5354170000000  0.5061680000000  0.3934110000000 1.0
C      1  0.4912140000000  0.4477000000000  0.5927920000000 1.0
C      1  0.5713520000000  0.5561680000000  0.5418150000000 1.0
C      1  0.5924460000000  0.4663230000000  0.5497650000000 1.0
C      1  0.4599860000000  0.4109540000000  0.5191740000000 1.0
C      1  0.5542610000000  0.4889120000000  0.5164520000000 1.0
C      1  0.4491180000000  0.4805730000000  0.4354890000000 1.0
C      1  0.4917040000000  0.5646130000000  0.4187910000000 1.0
C      1  0.5360580000000  0.5317350000000  0.4055540000000 1.0
C      1  0.5660170000000  0.4404490000000  0.4871110000000 1.0
C      1  0.5185660000000  0.5187760000000  0.5226820000000 1.0
C      1  0.4629620000000  0.4318840000000  0.4476300000000 1.0
C      1  0.5112510000000  0.5998930000000  0.4976370000000 1.0
C      1  0.4653090000000  0.5588040000000  0.4295490000000 1.0
C      1  0.4885600000000  0.4072740000000  0.5662430000000 1.0
C      1  0.4808620000000  0.5519900000000  0.5186250000000 1.0
C      1  0.4198610000000  0.5171140000000  0.5724650000000 1.0
C      1  0.4512850000000  0.5439370000000  0.5292010000000 1.0
C      1  0.4656800000000  0.4524450000000  0.4698570000000 1.0
C      1  0.4274530000000  0.5259690000000  0.4406540000000 1.0
C      1  0.5035640000000  0.4728230000000  0.3851230000000 1.0
C      1  0.4084240000000  0.4411100000000  0.5210610000000 1.0
C      1  0.4481040000000  0.4685170000000  0.5094690000000 1.0
C      1  0.5245780000000  0.5168700000000  0.4927530000000 1.0
C      1  0.4801190000000  0.5080890000000  0.5476610000000 1.0
C      1  0.4053560000000  0.4925630000000  0.5128470000000 1.0
C      1  0.4514870000000  0.5324760000000  0.4250080000000 1.0
C      1  0.4775120000000  0.4864670000000  0.5711230000000 1.0
C      1  0.4587410000000  0.5416560000000  0.4762870000000 1.0
C      1  0.5834980000000  0.4429000000000  0.5337160000000 1.0
C      1  0.6065660000000  0.4827790000000  0.5320830000000 1.0
C      1  0.4361500000000  0.4714570000000  0.5530880000000 1.0
C      1  0.4261900000000  0.4424290000000  0.5436080000000 1.0
C      1  0.4289240000000  0.5587910000000  0.5159710000000 1.0
C      1  0.4524120000000  0.4511930000000  0.4269550000000 1.0
C      1  0.5639070000000  0.5431130000000  0.4927920000000 1.0
C      1  0.4660660000000  0.4605300000000  0.4040650000000 1.0
C      1  0.5657540000000  0.4948570000000  0.4910890000000 1.0
C      1  0.5293650000000  0.4341810000000  0.5722710000000 1.0
C      1  0.4859250000000  0.5746290000000  0.5761860000000 1.0
C      1  0.5773130000000  0.4838610000000  0.5670000000000 1.0
C      1  0.4858220000000  0.4440550000000  0.4915050000000 1.0
C      1  0.5041690000000  0.4798600000000  0.4477350000000 1.0
C      1  0.4451230000000  0.4199000000000  0.5450310000000 1.0
C      1  0.5731620000000  0.5813470000000  0.5277440000000 1.0
C      1  0.5507870000000  0.5173910000000  0.4794710000000 1.0
C      1  0.5312040000000  0.5620130000000  0.5204450000000 1.0
C      1  0.4050440000000  0.5324270000000  0.4825840000000 1.0
C      1  0.5148540000000  0.4189020000000  0.4613770000000 1.0
C      1  0.4010040000000  0.5199130000000  0.5532480000000 1.0
C      1  0.4784290000000  0.5005610000000  0.4783600000000 1.0
C      1  0.4996210000000  0.3950290000000  0.5434150000000 1.0
C      1  0.5082850000000  0.4993710000000  0.3865750000000 1.0
C      1  0.5821380000000  0.5114920000000  0.5609490000000 1.0
C      1  0.5944010000000  0.5343450000000  0.4619200000000 1.0
C      1  0.5508850000000  0.4814720000000  0.5773550000000 1.0
C      1  0.4395660000000  0.5657460000000  0.4709100000000 1.0
C      1  0.4991500000000  0.5860350000000  0.4367180000000 1.0
C      1  0.4390650000000  0.5792420000000  0.4984660000000 1.0
C      1  0.3992970000000  0.4636510000000  0.5064810000000 1.0
C      1  0.4831670000000  0.5498320000000  0.4910780000000 1.0
C      1  0.5257040000000  0.4030750000000  0.5353080000000 1.0
C      1  0.5148830000000  0.5027160000000  0.5969700000000 1.0
C      1  0.4581950000000  0.4885210000000  0.4083010000000 1.0
C      1  0.5968890000000  0.5056100000000  0.4615170000000 1.0
C      1  0.5936990000000  0.5453080000000  0.4941880000000 1.0
C      1  0.5418480000000  0.5067100000000  0.5861310000000 1.0
END
