TITL C-3536-9250-7 36.096040729732 125000 -1174.37353163304 0 0 167 (C3) n - 1
REM
REM in /rds/project/t2_vol4/rds-t2-cs072/BORA/CARBON/from-Arr/AIRSS/Generating-Clusters/GAP-ML-2020/Higher-Symm/SD-CG/HFTN-CG
REM
REM
REM
REM
REM
REM ./C.cell (b20cbc046b6831c77cfcea5457e17084)
REM AIRSS Version 0.9.1 bugfix July 2018 build 013d7b7c2542+ Fri, 06 Jul 2018 19:26:36 +0100
REM compiler GCC version 9.3.0
REM options -cpp -mtune=generic -march=x86-64 -g -O0
REM seed -1729988342 845882591 67299192 803328471 -961875430 -288522557 -1801157250 -105315856 1869645788 1729246144 1005843195 1738596885 -274806781 -553887226 -402924716 1701500748 -581797992 -545799455 -1422097655 817484484 568443937 -124496757 415372961 1589413693 -591034228 512436248 -1807734660 -2118989088 117163169 2020196075 -32023083 -1503732430 -1325086320
REM
CELL 1.54180   50.00000   50.00000   50.00000   90.00000   90.00000   90.00000
LATT -1
SFAC C  
C      1  0.5338340000000  0.5651330000000  0.4141240000000 1.0
C      1  0.5658180000000  0.4139040000000  0.5350040000000 1.0
C      1  0.4128160000000  0.5348240000000  0.5646490000000 1.0
C      1  0.4642860000000  0.5645090000000  0.5834720000000 1.0
C      1  0.4647760000000  0.4345420000000  0.4124080000000 1.0
C      1  0.5354210000000  0.4337950000000  0.5852930000000 1.0
C      1  0.4350960000000  0.4157160000000  0.4638800000000 1.0
C      1  0.4344660000000  0.5850630000000  0.5334300000000 1.0
C      1  0.5650510000000  0.5867900000000  0.4643610000000 1.0
C      1  0.5838780000000  0.5353200000000  0.4346790000000 1.0
C      1  0.5857070000000  0.4641940000000  0.5653990000000 1.0
C      1  0.4145360000000  0.4657570000000  0.4340630000000 1.0
C      1  0.4165160000000  0.5213140000000  0.4605720000000 1.0
C      1  0.5218120000000  0.4577010000000  0.4140400000000 1.0
C      1  0.4601880000000  0.4176030000000  0.5191110000000 1.0
C      1  0.5854190000000  0.5209670000000  0.5392870000000 1.0
C      1  0.5819980000000  0.4800880000000  0.4597700000000 1.0
C      1  0.4144530000000  0.4777860000000  0.5414940000000 1.0
C      1  0.4786460000000  0.4599020000000  0.5850100000000 1.0
C      1  0.4782780000000  0.5386200000000  0.4161080000000 1.0
C      1  0.5195190000000  0.5394230000000  0.5815860000000 1.0
C      1  0.5397050000000  0.4141860000000  0.4782310000000 1.0
C      1  0.5418970000000  0.5851550000000  0.5214000000000 1.0
C      1  0.4609750000000  0.5830820000000  0.4778730000000 1.0
C      1  0.4072120000000  0.5454020000000  0.5401450000000 1.0
C      1  0.5420240000000  0.5398060000000  0.4081180000000 1.0
C      1  0.5406200000000  0.4080400000000  0.5437220000000 1.0
C      1  0.5901450000000  0.5450860000000  0.4593660000000 1.0
C      1  0.5915700000000  0.4554760000000  0.5402010000000 1.0
C      1  0.4085320000000  0.4575670000000  0.4593910000000 1.0
C      1  0.4545220000000  0.5398210000000  0.5897390000000 1.0
C      1  0.4541950000000  0.4590450000000  0.4068050000000 1.0
C      1  0.5441380000000  0.4589940000000  0.5911550000000 1.0
C      1  0.4597840000000  0.4094510000000  0.4541140000000 1.0
C      1  0.4597930000000  0.5910710000000  0.5416190000000 1.0
C      1  0.5405470000000  0.5923910000000  0.4537820000000 1.0
C      1  0.5744570000000  0.5524220000000  0.5736880000000 1.0
C      1  0.5535660000000  0.5712540000000  0.5746790000000 1.0
C      1  0.5734580000000  0.5739850000000  0.5553060000000 1.0
C      1  0.4258290000000  0.5531320000000  0.4271730000000 1.0
C      1  0.4256280000000  0.4438800000000  0.5730540000000 1.0
C      1  0.5750930000000  0.4460380000000  0.4279420000000 1.0
C      1  0.4464590000000  0.5720160000000  0.4254250000000 1.0
C      1  0.4471930000000  0.4254990000000  0.5740500000000 1.0
C      1  0.5557220000000  0.4261440000000  0.4252120000000 1.0
C      1  0.4275760000000  0.5737630000000  0.4460560000000 1.0
C      1  0.4283600000000  0.4245070000000  0.5531610000000 1.0
C      1  0.5741040000000  0.4251480000000  0.4467750000000 1.0
C      1  0.5190840000000  0.4722570000000  0.5930360000000 1.0
C      1  0.4746840000000  0.5960130000000  0.5182370000000 1.0
C      1  0.5934010000000  0.5199920000000  0.4718850000000 1.0
C      1  0.4793800000000  0.4707300000000  0.4030880000000 1.0
C      1  0.4796170000000  0.5273050000000  0.5929930000000 1.0
C      1  0.5186430000000  0.5249130000000  0.4031770000000 1.0
C      1  0.5288640000000  0.5961070000000  0.4789680000000 1.0
C      1  0.5273550000000  0.4061580000000  0.5186700000000 1.0
C      1  0.4723030000000  0.4061980000000  0.4792080000000 1.0
C      1  0.4034960000000  0.5202160000000  0.5284630000000 1.0
C      1  0.4035890000000  0.4809490000000  0.4742820000000 1.0
C      1  0.5934490000000  0.4805290000000  0.5269360000000 1.0
C      1  0.5228880000000  0.5007830000000  0.5384220000000 1.0
C      1  0.5044780000000  0.5435980000000  0.5237380000000 1.0
C      1  0.5423940000000  0.5262960000000  0.5028590000000 1.0
C      1  0.4769750000000  0.4986060000000  0.4603230000000 1.0
C      1  0.4733110000000  0.4963310000000  0.5419860000000 1.0
C      1  0.5241480000000  0.4951240000000  0.4555950000000 1.0
C      1  0.5009920000000  0.5388700000000  0.4765650000000 1.0
C      1  0.4988240000000  0.4607700000000  0.5224770000000 1.0
C      1  0.5032730000000  0.4572070000000  0.4728990000000 1.0
C      1  0.4607310000000  0.5226250000000  0.5005860000000 1.0
C      1  0.4560070000000  0.4754510000000  0.5040710000000 1.0
C      1  0.5388340000000  0.4767180000000  0.4984100000000 1.0
C      1  0.5189420000000  0.5967320000000  0.5347360000000 1.0
C      1  0.5966730000000  0.5351410000000  0.5169550000000 1.0
C      1  0.5335030000000  0.5169210000000  0.5929370000000 1.0
C      1  0.4837510000000  0.5946310000000  0.4640620000000 1.0
C      1  0.4826920000000  0.4062530000000  0.5330930000000 1.0
C      1  0.5173740000000  0.4029280000000  0.4640580000000 1.0
C      1  0.4049680000000  0.5351230000000  0.4833490000000 1.0
C      1  0.4028750000000  0.4644490000000  0.5185400000000 1.0
C      1  0.5933510000000  0.4661070000000  0.4822730000000 1.0
C      1  0.4644700000000  0.5158420000000  0.4045610000000 1.0
C      1  0.4644710000000  0.4822330000000  0.5962660000000 1.0
C      1  0.5351470000000  0.4806570000000  0.4024610000000 1.0
C      1  0.5090380000000  0.4149670000000  0.4382890000000 1.0
C      1  0.4158420000000  0.4398770000000  0.5078320000000 1.0
C      1  0.4390820000000  0.5064180000000  0.4161890000000 1.0
C      1  0.4944100000000  0.4229120000000  0.5572290000000 1.0
C      1  0.4931730000000  0.5830040000000  0.4386730000000 1.0
C      1  0.5082350000000  0.5837660000000  0.5593090000000 1.0
C      1  0.5766950000000  0.4419690000000  0.4939920000000 1.0
C      1  0.5846320000000  0.5609100000000  0.5086210000000 1.0
C      1  0.4165940000000  0.5605130000000  0.4927710000000 1.0
C      1  0.5576400000000  0.5052040000000  0.5762790000000 1.0
C      1  0.5597190000000  0.4913670000000  0.4154260000000 1.0
C      1  0.4387010000000  0.4905660000000  0.5842270000000 1.0
C      1  0.4645150000000  0.5302550000000  0.5290740000000 1.0
C      1  0.5450460000000  0.5141760000000  0.4547630000000 1.0
C      1  0.5056180000000  0.4502950000000  0.5487170000000 1.0
C      1  0.5461670000000  0.5502850000000  0.4869340000000 1.0
C      1  0.5493120000000  0.4504790000000  0.5052020000000 1.0
C      1  0.4551770000000  0.4545520000000  0.4850210000000 1.0
C      1  0.4493210000000  0.5122540000000  0.5457610000000 1.0
C      1  0.4693470000000  0.4701170000000  0.4641070000000 1.0
C      1  0.5491290000000  0.4939930000000  0.5488970000000 1.0
C      1  0.4873480000000  0.4534310000000  0.4489110000000 1.0
C      1  0.4854280000000  0.5444280000000  0.5446380000000 1.0
C      1  0.5294810000000  0.5350880000000  0.4689340000000 1.0
C      1  0.5237580000000  0.4183870000000  0.5659950000000 1.0
C      1  0.4170690000000  0.5671610000000  0.5221280000000 1.0
C      1  0.5611130000000  0.5215310000000  0.4238380000000 1.0
C      1  0.4791070000000  0.4245730000000  0.4356470000000 1.0
C      1  0.4780720000000  0.5753510000000  0.5607050000000 1.0
C      1  0.5225300000000  0.5825300000000  0.4320250000000 1.0
C      1  0.5750230000000  0.5635520000000  0.4786910000000 1.0
C      1  0.5812230000000  0.4332030000000  0.5233400000000 1.0
C      1  0.4242540000000  0.4384820000000  0.4776670000000 1.0
C      1  0.4360560000000  0.5204960000000  0.5746190000000 1.0
C      1  0.4324360000000  0.4770600000000  0.4166650000000 1.0
C      1  0.5664090000000  0.4758570000000  0.5808060000000 1.0
C      1  0.6038600000000  0.4855780000000  0.5011900000000 1.0
C      1  0.4846910000000  0.5022070000000  0.6041940000000 1.0
C      1  0.5034720000000  0.6061210000000  0.4838700000000 1.0
C      1  0.3932250000000  0.4850870000000  0.4996190000000 1.0
C      1  0.3934810000000  0.5153140000000  0.5030710000000 1.0
C      1  0.6046030000000  0.5149210000000  0.4969820000000 1.0
C      1  0.5145060000000  0.4995770000000  0.3928130000000 1.0
C      1  0.5140340000000  0.4980020000000  0.6034490000000 1.0
C      1  0.4842790000000  0.4961220000000  0.3930720000000 1.0
C      1  0.5000190000000  0.6063790000000  0.5140970000000 1.0
C      1  0.4974020000000  0.3949990000000  0.4842790000000 1.0
C      1  0.5016100000000  0.3957440000000  0.5136220000000 1.0
C      1  0.5305030000000  0.5728270000000  0.4974550000000 1.0
C      1  0.5702840000000  0.4982940000000  0.5289340000000 1.0
C      1  0.4959080000000  0.5283460000000  0.5685170000000 1.0
C      1  0.4747630000000  0.5732430000000  0.5006290000000 1.0
C      1  0.4712620000000  0.4306740000000  0.4954990000000 1.0
C      1  0.5293500000000  0.4293210000000  0.5009030000000 1.0
C      1  0.4263570000000  0.4985580000000  0.4743590000000 1.0
C      1  0.4267780000000  0.5017310000000  0.5301000000000 1.0
C      1  0.5689260000000  0.5036990000000  0.4708450000000 1.0
C      1  0.5010360000000  0.5248350000000  0.4259470000000 1.0
C      1  0.5013170000000  0.4702580000000  0.5698730000000 1.0
C      1  0.4978670000000  0.4690940000000  0.4263680000000 1.0
C      1  0.4237380000000  0.4717610000000  0.5681670000000 1.0
C      1  0.4740100000000  0.5659510000000  0.4243230000000 1.0
C      1  0.5667610000000  0.4226560000000  0.4735690000000 1.0
C      1  0.5753220000000  0.4738670000000  0.4322420000000 1.0
C      1  0.5769510000000  0.5256290000000  0.5663440000000 1.0
C      1  0.4247300000000  0.5255810000000  0.4332410000000 1.0
C      1  0.5257370000000  0.5669510000000  0.5749100000000 1.0
C      1  0.5278400000000  0.4310290000000  0.4233240000000 1.0
C      1  0.4739860000000  0.4328450000000  0.5765420000000 1.0
C      1  0.4326600000000  0.4242770000000  0.5253320000000 1.0
C      1  0.4336440000000  0.5748650000000  0.4736070000000 1.0
C      1  0.5685710000000  0.5758730000000  0.5274240000000 1.0
C      1  0.4413990000000  0.5001490000000  0.5007630000000 1.0
C      1  0.4994480000000  0.4984300000000  0.4409890000000 1.0
C      1  0.5002940000000  0.4428420000000  0.4981340000000 1.0
C      1  0.5567610000000  0.5010630000000  0.4998780000000 1.0
C      1  0.4985450000000  0.4993130000000  0.5563510000000 1.0
C      1  0.5011680000000  0.5582040000000  0.4990390000000 1.0
C      1  0.4716870000000  0.4728370000000  0.5266200000000 1.0
C      1  0.4788060000000  0.5207940000000  0.4783970000000 1.0
C      1  0.5267650000000  0.4725750000000  0.4712740000000 1.0
C      1  0.5270280000000  0.5279200000000  0.5263530000000 1.0
C      1  0.5190620000000  0.4805440000000  0.5186500000000 1.0
END
