TITL C-35325-8846-3 151.491132410151 125000 -839.518402578852 0 0 117 (C1) n - 1
REM
REM in /rds/project/t2_vol4/rds-t2-cs072/BORA/CARBON/from-Arr/AIRSS/Generating-Clusters/GAP-ML-2020/Higher-Symm/SD-CG/HFTN-CG
REM
REM
REM
REM
REM
REM ./C.cell (b20cbc046b6831c77cfcea5457e17084)
REM AIRSS Version 0.9.1 bugfix July 2018 build 013d7b7c2542+ Fri, 06 Jul 2018 19:26:36 +0100
REM compiler GCC version 9.3.0
REM options -cpp -mtune=generic -march=x86-64 -g -O0
REM seed 1003651514 1819626884 -1644572593 -1799009338 -1647583979 -1900374549 -271389044 -1640794633 -1926862488 239220518 170220066 -775292541 1367396054 1087835175 1803900285 -533612368 545888578 467105691 1166880496 -213008677 1480552066 -643583935 413743966 -880044113 1627722802 1412000639 749024922 936121705 -1641214495 -669414795 68652951 1984722197 -338507656
REM
CELL 1.54180   50.00000   50.00000   50.00000   90.00000   90.00000   90.00000
LATT -1
SFAC C  
C      1  0.5438280000000  0.4442160000000  0.4176840000000 1.0
C      1  0.4949370000000  0.4927330000000  0.5964600000000 1.0
C      1  0.4536220000000  0.5206620000000  0.5814560000000 1.0
C      1  0.5001840000000  0.5846010000000  0.4726810000000 1.0
C      1  0.5696200000000  0.4447730000000  0.4976720000000 1.0
C      1  0.4695370000000  0.4331560000000  0.5633530000000 1.0
C      1  0.4301970000000  0.5303090000000  0.4617730000000 1.0
C      1  0.5130560000000  0.5107010000000  0.4056610000000 1.0
C      1  0.4470110000000  0.5897800000000  0.4554970000000 1.0
C      1  0.5754140000000  0.5480990000000  0.4589040000000 1.0
C      1  0.5821390000000  0.4726400000000  0.4939180000000 1.0
C      1  0.4237400000000  0.5022210000000  0.4605660000000 1.0
C      1  0.4798760000000  0.5877700000000  0.4930130000000 1.0
C      1  0.4330890000000  0.4399750000000  0.4997310000000 1.0
C      1  0.5381010000000  0.5208650000000  0.4030350000000 1.0
C      1  0.5644940000000  0.4794710000000  0.4305460000000 1.0
C      1  0.5243960000000  0.4768400000000  0.4748110000000 1.0
C      1  0.4144230000000  0.4877580000000  0.4833760000000 1.0
C      1  0.5188850000000  0.5167170000000  0.5215060000000 1.0
C      1  0.4122390000000  0.4871890000000  0.5337210000000 1.0
C      1  0.5259420000000  0.5045840000000  0.4608630000000 1.0
C      1  0.4530080000000  0.5838150000000  0.4818220000000 1.0
C      1  0.5407330000000  0.5012970000000  0.5139450000000 1.0
C      1  0.4624510000000  0.4564390000000  0.5776990000000 1.0
C      1  0.4876570000000  0.4275470000000  0.4520520000000 1.0
C      1  0.5735770000000  0.5361180000000  0.5119660000000 1.0
C      1  0.5110450000000  0.4519560000000  0.5756920000000 1.0
C      1  0.4954830000000  0.4685300000000  0.5257230000000 1.0
C      1  0.5226490000000  0.4926570000000  0.5895470000000 1.0
C      1  0.4980900000000  0.4290630000000  0.5614480000000 1.0
C      1  0.4978580000000  0.4157400000000  0.4774630000000 1.0
C      1  0.4395680000000  0.5644730000000  0.4969380000000 1.0
C      1  0.5590680000000  0.4528820000000  0.4404280000000 1.0
C      1  0.5511740000000  0.5743860000000  0.4793700000000 1.0
C      1  0.5258330000000  0.5110490000000  0.5693710000000 1.0
C      1  0.5431610000000  0.4732330000000  0.4105640000000 1.0
C      1  0.4759130000000  0.4118520000000  0.5231380000000 1.0
C      1  0.5318010000000  0.4775130000000  0.5046720000000 1.0
C      1  0.5159150000000  0.4819290000000  0.4079830000000 1.0
C      1  0.4942350000000  0.4771150000000  0.4784690000000 1.0
C      1  0.4576080000000  0.5558480000000  0.5188500000000 1.0
C      1  0.4812430000000  0.4664590000000  0.5010430000000 1.0
C      1  0.5473280000000  0.4325320000000  0.4823890000000 1.0
C      1  0.4172550000000  0.5087110000000  0.5515830000000 1.0
C      1  0.5762860000000  0.4992020000000  0.4476570000000 1.0
C      1  0.4560480000000  0.4244560000000  0.5395900000000 1.0
C      1  0.5341270000000  0.5254460000000  0.4780010000000 1.0
C      1  0.5873800000000  0.4826500000000  0.5205330000000 1.0
C      1  0.5598550000000  0.5496400000000  0.5350430000000 1.0
C      1  0.5624400000000  0.5343660000000  0.5591560000000 1.0
C      1  0.5511420000000  0.5345470000000  0.4221020000000 1.0
C      1  0.5731050000000  0.5544970000000  0.4875910000000 1.0
C      1  0.4646690000000  0.5247140000000  0.4246780000000 1.0
C      1  0.4122020000000  0.5276390000000  0.5089580000000 1.0
C      1  0.4187050000000  0.5329880000000  0.5363560000000 1.0
C      1  0.4954550000000  0.5277070000000  0.4245200000000 1.0
C      1  0.5405900000000  0.5336600000000  0.5767210000000 1.0
C      1  0.4640740000000  0.5025980000000  0.5206190000000 1.0
C      1  0.4694410000000  0.4717070000000  0.4210020000000 1.0
C      1  0.5359880000000  0.5564270000000  0.4327020000000 1.0
C      1  0.4881360000000  0.4665690000000  0.5874620000000 1.0
C      1  0.4353900000000  0.5004740000000  0.5720950000000 1.0
C      1  0.4350540000000  0.4397180000000  0.5285540000000 1.0
C      1  0.4265440000000  0.4636910000000  0.5434610000000 1.0
C      1  0.5074240000000  0.5554000000000  0.4317060000000 1.0
C      1  0.5353990000000  0.5651690000000  0.5338360000000 1.0
C      1  0.5542070000000  0.5671100000000  0.4518610000000 1.0
C      1  0.5246370000000  0.4258830000000  0.4149880000000 1.0
C      1  0.4663430000000  0.5272570000000  0.5087330000000 1.0
C      1  0.4857400000000  0.5256500000000  0.4889760000000 1.0
C      1  0.4398080000000  0.5498440000000  0.5426740000000 1.0
C      1  0.5241540000000  0.4166450000000  0.4912850000000 1.0
C      1  0.5726260000000  0.5267410000000  0.4408590000000 1.0
C      1  0.5014950000000  0.4368050000000  0.4279010000000 1.0
C      1  0.4743890000000  0.4132360000000  0.4945200000000 1.0
C      1  0.4316910000000  0.4672140000000  0.4918530000000 1.0
C      1  0.4913100000000  0.5740770000000  0.5493620000000 1.0
C      1  0.4076820000000  0.4997820000000  0.5077420000000 1.0
C      1  0.4500820000000  0.5411410000000  0.4430280000000 1.0
C      1  0.5751890000000  0.4651990000000  0.5399270000000 1.0
C      1  0.5122660000000  0.5338290000000  0.4983450000000 1.0
C      1  0.4850290000000  0.5737160000000  0.5196040000000 1.0
C      1  0.5220950000000  0.4605470000000  0.5244160000000 1.0
C      1  0.5010800000000  0.4134620000000  0.5366980000000 1.0
C      1  0.5060340000000  0.5131660000000  0.5455780000000 1.0
C      1  0.4603220000000  0.4366460000000  0.4564540000000 1.0
C      1  0.5659550000000  0.4421970000000  0.5259280000000 1.0
C      1  0.5733630000000  0.5078880000000  0.5542000000000 1.0
C      1  0.5017610000000  0.5095990000000  0.4480440000000 1.0
C      1  0.4524320000000  0.5457920000000  0.5670540000000 1.0
C      1  0.4855560000000  0.5037750000000  0.4705920000000 1.0
C      1  0.4516250000000  0.4594640000000  0.4404820000000 1.0
C      1  0.4871230000000  0.4945380000000  0.5367680000000 1.0
C      1  0.4955820000000  0.4635110000000  0.4167410000000 1.0
C      1  0.4235670000000  0.5430240000000  0.4871340000000 1.0
C      1  0.5155080000000  0.5641450000000  0.5103170000000 1.0
C      1  0.4767030000000  0.5596590000000  0.5696060000000 1.0
C      1  0.5390650000000  0.4356820000000  0.5317900000000 1.0
C      1  0.4621230000000  0.5676860000000  0.4471300000000 1.0
C      1  0.5246380000000  0.5799910000000  0.4868220000000 1.0
C      1  0.4561630000000  0.4975160000000  0.4230510000000 1.0
C      1  0.5188800000000  0.5692370000000  0.5563230000000 1.0
C      1  0.4374140000000  0.4859910000000  0.4416600000000 1.0
C      1  0.5770530000000  0.4951210000000  0.4767440000000 1.0
C      1  0.4805570000000  0.5183730000000  0.5925120000000 1.0
C      1  0.5240000000000  0.4147760000000  0.5203420000000 1.0
C      1  0.4935380000000  0.5437430000000  0.5861480000000 1.0
C      1  0.5202710000000  0.5523890000000  0.5792310000000 1.0
C      1  0.5588700000000  0.5156970000000  0.4934810000000 1.0
C      1  0.5354690000000  0.4705800000000  0.5763180000000 1.0
C      1  0.4911820000000  0.5720090000000  0.4476630000000 1.0
C      1  0.4399690000000  0.4718570000000  0.5679480000000 1.0
C      1  0.5615510000000  0.4796720000000  0.5606590000000 1.0
C      1  0.5863860000000  0.5096640000000  0.5287890000000 1.0
C      1  0.5426860000000  0.4526470000000  0.4638140000000 1.0
C      1  0.4561300000000  0.4796350000000  0.5045410000000 1.0
C      1  0.4518600000000  0.4267230000000  0.4826400000000 1.0
END
