TITL C-35347-8721-10 35.1517048484228 125000 -253.979977857199 0 0 38 (Cs) n - 1
REM
REM in /rds/project/t2_vol4/rds-t2-cs072/BORA/CARBON/from-Arr/AIRSS/Generating-Clusters/GAP-ML-2020/Higher-Symm/SD-CG/HFTN-CG
REM
REM
REM
REM
REM
REM ./C.cell (b20cbc046b6831c77cfcea5457e17084)
REM AIRSS Version 0.9.1 bugfix July 2018 build 013d7b7c2542+ Fri, 06 Jul 2018 19:26:36 +0100
REM compiler GCC version 9.3.0
REM options -cpp -mtune=generic -march=x86-64 -g -O0
REM seed 1016694594 736104582 -395088608 -1679922397 748873871 -2092880006 961364792 1405731301 1311471020 1453170726 180427068 -1743009875 352527897 392703670 -448568570 -250619224 1970802661 313143169 -1539106936 -1061133354 -260648977 602027128 380541569 -1832426420 -734027928 -1165347049 -761692554 529639498 881919711 -329314440 -1998686647 1515922723 1138077568
REM
CELL 1.54180   50.00000   50.00000   50.00000   90.00000   90.00000   90.00000
LATT -1
SFAC C  
C      1  0.5212930000000  0.5017060000000  0.4416290000000 1.0
C      1  0.5213010000000  0.5017400000000  0.5583670000000 1.0
C      1  0.4749590000000  0.5453510000000  0.5275900000000 1.0
C      1  0.4749550000000  0.5453350000000  0.4723860000000 1.0
C      1  0.4823510000000  0.5305300000000  0.4481820000000 1.0
C      1  0.4823580000000  0.5305610000000  0.5518020000000 1.0
C      1  0.5067420000000  0.4778860000000  0.4486330000000 1.0
C      1  0.5067490000000  0.4779170000000  0.5513790000000 1.0
C      1  0.4557530000000  0.5290080000000  0.5140190000000 1.0
C      1  0.4557510000000  0.5290000000000  0.4859700000000 1.0
C      1  0.5074030000000  0.4269690000000  0.5128550000000 1.0
C      1  0.5074010000000  0.4269610000000  0.4871870000000 1.0
C      1  0.5450350000000  0.4921190000000  0.4567920000000 1.0
C      1  0.5450400000000  0.4921450000000  0.5432070000000 1.0
C      1  0.4993490000000  0.5518630000000  0.4859170000000 1.0
C      1  0.4993510000000  0.5518710000000  0.5140520000000 1.0
C      1  0.5214990000000  0.5396560000000  0.5283330000000 1.0
C      1  0.5214950000000  0.5396390000000  0.4716400000000 1.0
C      1  0.4557010000000  0.5033800000000  0.4707880000000 1.0
C      1  0.4557050000000  0.5033970000000  0.5292160000000 1.0
C      1  0.4667500000000  0.4785970000000  0.5164490000000 1.0
C      1  0.4667480000000  0.4785870000000  0.4835680000000 1.0
C      1  0.4484960000000  0.4525300000000  0.4872900000000 1.0
C      1  0.4484970000000  0.4525380000000  0.5127450000000 1.0
C      1  0.5134040000000  0.4577020000000  0.5152420000000 1.0
C      1  0.5134010000000  0.4576930000000  0.4847810000000 1.0
C      1  0.5109420000000  0.5269350000000  0.5519660000000 1.0
C      1  0.5109350000000  0.5269040000000  0.4480160000000 1.0
C      1  0.5600610000000  0.5091640000000  0.5283740000000 1.0
C      1  0.5600570000000  0.5091470000000  0.4716130000000 1.0
C      1  0.4906290000000  0.4702470000000  0.5295520000000 1.0
C      1  0.4906250000000  0.4702290000000  0.4704670000000 1.0
C      1  0.5439640000000  0.5283770000000  0.5145280000000 1.0
C      1  0.5439620000000  0.5283680000000  0.4854490000000 1.0
C      1  0.5315990000000  0.4674420000000  0.5374710000000 1.0
C      1  0.5315940000000  0.4674200000000  0.4625440000000 1.0
C      1  0.4640680000000  0.5105260000000  0.4446140000000 1.0
C      1  0.4640760000000  0.5105590000000  0.5553850000000 1.0
END
