TITL C-35891-4140-2 -0.180378574005965 125000 -1239.96145373202 0 0 175 (C1) n - 1
REM
REM in /rds/project/t2_vol4/rds-t2-cs072/BORA/CARBON/from-Arr/AIRSS/Generating-Clusters/GAP-ML-2020/Higher-Symm/SD-CG/HFTN-CG/C160-200
REM
REM
REM
REM
REM
REM ./C.cell (6b4489405718ea1b717e0baf1da4c2d9)
REM AIRSS Version 0.9.1 bugfix July 2018 build 013d7b7c2542+ Fri, 06 Jul 2018 19:26:36 +0100
REM compiler GCC version 9.3.0
REM options -cpp -mtune=generic -march=x86-64 -g -O0
REM seed 608186977 1992349373 -1412737023 -1145154576 -1569350264 1724847273 1397959323 -902351974 -1636568611 -673227742 1499625201 1257635397 1263362353 447391792 -1099338152 -148683832 536101695 1388502304 -665597254 551831232 -1107563780 -1038070090 -455116794 2101917890 -785935683 -842888738 -110806923 1848328246 -1010237107 621188008 645337162 -796219831 1179985727
REM
CELL 1.54180   50.00000   50.00000   50.00000   90.00000   90.00000   90.00000
LATT -1
SFAC C  
C      1  0.6020250000000  0.5428960000000  0.5381800000000 1.0
C      1  0.5812270000000  0.5359500000000  0.4350320000000 1.0
C      1  0.4819580000000  0.5407900000000  0.3938900000000 1.0
C      1  0.4006560000000  0.5367910000000  0.4646560000000 1.0
C      1  0.4209750000000  0.5421510000000  0.5723300000000 1.0
C      1  0.5199550000000  0.5363460000000  0.6076060000000 1.0
C      1  0.5999480000000  0.4643650000000  0.5392400000000 1.0
C      1  0.5821300000000  0.4575910000000  0.4300040000000 1.0
C      1  0.4818400000000  0.4574390000000  0.3921050000000 1.0
C      1  0.4005180000000  0.4576370000000  0.4630820000000 1.0
C      1  0.4210920000000  0.4629230000000  0.5684670000000 1.0
C      1  0.5215850000000  0.4571250000000  0.6091410000000 1.0
C      1  0.6001530000000  0.4753640000000  0.4699150000000 1.0
C      1  0.5252570000000  0.4770590000000  0.3928530000000 1.0
C      1  0.4223950000000  0.4764580000000  0.4250690000000 1.0
C      1  0.3970110000000  0.4746000000000  0.5300450000000 1.0
C      1  0.4801580000000  0.4748490000000  0.6066170000000 1.0
C      1  0.5778550000000  0.4758250000000  0.5785720000000 1.0
C      1  0.6053260000000  0.5244460000000  0.4738390000000 1.0
C      1  0.5244690000000  0.5272390000000  0.3944150000000 1.0
C      1  0.4215290000000  0.5267430000000  0.4255860000000 1.0
C      1  0.3999000000000  0.5249170000000  0.5343650000000 1.0
C      1  0.4762120000000  0.5242800000000  0.6072420000000 1.0
C      1  0.5771660000000  0.5242470000000  0.5719500000000 1.0
C      1  0.5586160000000  0.4712400000000  0.5985040000000 1.0
C      1  0.5962300000000  0.4752930000000  0.4976400000000 1.0
C      1  0.5489520000000  0.4741380000000  0.4104590000000 1.0
C      1  0.4482720000000  0.4735120000000  0.4111330000000 1.0
C      1  0.4013800000000  0.4744840000000  0.5013930000000 1.0
C      1  0.4605650000000  0.4741380000000  0.5870510000000 1.0
C      1  0.5503910000000  0.5239430000000  0.5802380000000 1.0
C      1  0.6121780000000  0.5287730000000  0.5008950000000 1.0
C      1  0.5436210000000  0.5259760000000  0.4139950000000 1.0
C      1  0.4457900000000  0.5276890000000  0.4127720000000 1.0
C      1  0.4024160000000  0.5267370000000  0.5066530000000 1.0
C      1  0.4555700000000  0.5244910000000  0.5875810000000 1.0
C      1  0.4629990000000  0.5178390000000  0.4667620000000 1.0
C      1  0.4726630000000  0.5248780000000  0.5136220000000 1.0
C      1  0.5003430000000  0.5304970000000  0.5226770000000 1.0
C      1  0.5217770000000  0.5277450000000  0.5063410000000 1.0
C      1  0.5234530000000  0.5144820000000  0.4809240000000 1.0
C      1  0.5059420000000  0.5135780000000  0.4554240000000 1.0
C      1  0.4657390000000  0.4888420000000  0.4645030000000 1.0
C      1  0.4560340000000  0.4799490000000  0.5116510000000 1.0
C      1  0.4994730000000  0.4785530000000  0.5207360000000 1.0
C      1  0.5215610000000  0.4723010000000  0.5066390000000 1.0
C      1  0.5220830000000  0.4824580000000  0.4803570000000 1.0
C      1  0.4964380000000  0.4856670000000  0.4639200000000 1.0
C      1  0.4533730000000  0.5307370000000  0.4902450000000 1.0
C      1  0.4592130000000  0.5319110000000  0.5382890000000 1.0
C      1  0.5022680000000  0.5252830000000  0.5515610000000 1.0
C      1  0.5468580000000  0.5330680000000  0.5170020000000 1.0
C      1  0.5431510000000  0.5260240000000  0.4635890000000 1.0
C      1  0.4827580000000  0.5289030000000  0.4474550000000 1.0
C      1  0.4502970000000  0.4717280000000  0.4833140000000 1.0
C      1  0.4568940000000  0.4687320000000  0.5374060000000 1.0
C      1  0.4989430000000  0.4766560000000  0.5485590000000 1.0
C      1  0.5471540000000  0.4678240000000  0.5170250000000 1.0
C      1  0.5392060000000  0.4695570000000  0.4610550000000 1.0
C      1  0.4972230000000  0.4710850000000  0.4389900000000 1.0
C      1  0.5124360000000  0.5633120000000  0.4258010000000 1.0
C      1  0.4403500000000  0.5644440000000  0.4526880000000 1.0
C      1  0.4284470000000  0.5652530000000  0.5290670000000 1.0
C      1  0.4898040000000  0.5660360000000  0.5791870000000 1.0
C      1  0.5594110000000  0.5646210000000  0.5506100000000 1.0
C      1  0.5719610000000  0.5625300000000  0.4748050000000 1.0
C      1  0.5142590000000  0.4351310000000  0.4215650000000 1.0
C      1  0.4428840000000  0.4377240000000  0.4508850000000 1.0
C      1  0.4286670000000  0.4348890000000  0.5282790000000 1.0
C      1  0.4898220000000  0.4334830000000  0.5784830000000 1.0
C      1  0.5605330000000  0.4367610000000  0.5508530000000 1.0
C      1  0.5724590000000  0.4366080000000  0.4738730000000 1.0
C      1  0.4624320000000  0.4340660000000  0.5688510000000 1.0
C      1  0.5393110000000  0.4325490000000  0.5694810000000 1.0
C      1  0.5782360000000  0.4354660000000  0.5022440000000 1.0
C      1  0.5400490000000  0.4315280000000  0.4327020000000 1.0
C      1  0.4645170000000  0.4340110000000  0.4330100000000 1.0
C      1  0.4253830000000  0.4328070000000  0.5000390000000 1.0
C      1  0.4630070000000  0.5687870000000  0.5690370000000 1.0
C      1  0.5377880000000  0.5665970000000  0.5695450000000 1.0
C      1  0.5776690000000  0.5672860000000  0.5022080000000 1.0
C      1  0.5393100000000  0.5637090000000  0.4357280000000 1.0
C      1  0.4613400000000  0.5669900000000  0.4331460000000 1.0
C      1  0.4225930000000  0.5659630000000  0.5007770000000 1.0
C      1  0.5262440000000  0.5116500000000  0.5622200000000 1.0
C      1  0.5644360000000  0.5134570000000  0.5156680000000 1.0
C      1  0.5321010000000  0.5113040000000  0.4390700000000 1.0
C      1  0.4716250000000  0.5123970000000  0.4227640000000 1.0
C      1  0.4281770000000  0.5151780000000  0.4962860000000 1.0
C      1  0.4726480000000  0.5165530000000  0.5596420000000 1.0
C      1  0.5230500000000  0.4853310000000  0.5584380000000 1.0
C      1  0.5667100000000  0.4873250000000  0.5104340000000 1.0
C      1  0.5314270000000  0.4815530000000  0.4355820000000 1.0
C      1  0.4685800000000  0.4849690000000  0.4333630000000 1.0
C      1  0.4298680000000  0.4875920000000  0.4981980000000 1.0
C      1  0.4714690000000  0.4852670000000  0.5584590000000 1.0
C      1  0.4717130000000  0.5772320000000  0.4914010000000 1.0
C      1  0.4769690000000  0.5816690000000  0.5217270000000 1.0
C      1  0.5061180000000  0.5847400000000  0.5329060000000 1.0
C      1  0.5289680000000  0.5805890000000  0.5119230000000 1.0
C      1  0.5230330000000  0.5748980000000  0.4816060000000 1.0
C      1  0.4944160000000  0.5739440000000  0.4716100000000 1.0
C      1  0.4738260000000  0.4267110000000  0.4903300000000 1.0
C      1  0.4782240000000  0.4227350000000  0.5211400000000 1.0
C      1  0.5067700000000  0.4181500000000  0.5323910000000 1.0
C      1  0.5299230000000  0.4200430000000  0.5114660000000 1.0
C      1  0.5244930000000  0.4235220000000  0.4807550000000 1.0
C      1  0.4965750000000  0.4267190000000  0.4701460000000 1.0
C      1  0.4572320000000  0.5663240000000  0.5394870000000 1.0
C      1  0.5115900000000  0.5752700000000  0.5620810000000 1.0
C      1  0.5541690000000  0.5660070000000  0.5212760000000 1.0
C      1  0.5438640000000  0.5592650000000  0.4648330000000 1.0
C      1  0.4887120000000  0.5606930000000  0.4447090000000 1.0
C      1  0.4465790000000  0.5625510000000  0.4829540000000 1.0
C      1  0.4573720000000  0.4364460000000  0.5394470000000 1.0
C      1  0.5123210000000  0.4255220000000  0.5616160000000 1.0
C      1  0.5550080000000  0.4359040000000  0.5210220000000 1.0
C      1  0.5445690000000  0.4375660000000  0.4631090000000 1.0
C      1  0.4929450000000  0.4390930000000  0.4421420000000 1.0
C      1  0.4483070000000  0.4401120000000  0.4806130000000 1.0
C      1  0.5591090000000  0.5475960000000  0.4224590000000 1.0
C      1  0.4592780000000  0.5521950000000  0.4077890000000 1.0
C      1  0.4004810000000  0.5497060000000  0.4904310000000 1.0
C      1  0.4453260000000  0.5522420000000  0.5822700000000 1.0
C      1  0.5399600000000  0.5478090000000  0.5912350000000 1.0
C      1  0.6004830000000  0.5535040000000  0.5116190000000 1.0
C      1  0.5585870000000  0.4468300000000  0.4183900000000 1.0
C      1  0.4604940000000  0.4466340000000  0.4082500000000 1.0
C      1  0.4036610000000  0.4469310000000  0.4896010000000 1.0
C      1  0.4438910000000  0.4521550000000  0.5813060000000 1.0
C      1  0.5433880000000  0.4463800000000  0.5939050000000 1.0
C      1  0.5990490000000  0.4524840000000  0.5133920000000 1.0
C      1  0.5348750000000  0.4831380000000  0.6132760000000 1.0
C      1  0.6063050000000  0.4933010000000  0.5446200000000 1.0
C      1  0.5774020000000  0.4845050000000  0.4195580000000 1.0
C      1  0.4681990000000  0.4828370000000  0.3892210000000 1.0
C      1  0.3911980000000  0.4834390000000  0.4726370000000 1.0
C      1  0.4151820000000  0.4920140000000  0.5694410000000 1.0
C      1  0.5185980000000  0.5068840000000  0.6151390000000 1.0
C      1  0.6123010000000  0.5167180000000  0.5291260000000 1.0
C      1  0.5879400000000  0.5071110000000  0.4328890000000 1.0
C      1  0.4834950000000  0.5081850000000  0.3934120000000 1.0
C      1  0.3968190000000  0.5070720000000  0.4582400000000 1.0
C      1  0.4264070000000  0.5147940000000  0.5816370000000 1.0
C      1  0.4112910000000  0.4528980000000  0.5434000000000 1.0
C      1  0.4956560000000  0.4515520000000  0.6013620000000 1.0
C      1  0.5809230000000  0.4553650000000  0.5583890000000 1.0
C      1  0.5894410000000  0.4528470000000  0.4566290000000 1.0
C      1  0.5088360000000  0.4531210000000  0.3978070000000 1.0
C      1  0.4198380000000  0.4542270000000  0.4429250000000 1.0
C      1  0.4123640000000  0.5476380000000  0.5463470000000 1.0
C      1  0.4943100000000  0.5461890000000  0.6013300000000 1.0
C      1  0.5821920000000  0.5475870000000  0.5568530000000 1.0
C      1  0.5893050000000  0.5447050000000  0.4608880000000 1.0
C      1  0.5073670000000  0.5492850000000  0.4005040000000 1.0
C      1  0.4179300000000  0.5475380000000  0.4452900000000 1.0
C      1  0.5209190000000  0.3935030000000  0.4788680000000 1.0
C      1  0.4940960000000  0.3961910000000  0.4690580000000 1.0
C      1  0.4723530000000  0.3961910000000  0.4877960000000 1.0
C      1  0.4771000000000  0.3923110000000  0.5154850000000 1.0
C      1  0.5038090000000  0.3875960000000  0.5241060000000 1.0
C      1  0.5258710000000  0.3901430000000  0.5065180000000 1.0
C      1  0.5221570000000  0.6051640000000  0.4777740000000 1.0
C      1  0.4950850000000  0.6044760000000  0.4684010000000 1.0
C      1  0.4735780000000  0.6072490000000  0.4869420000000 1.0
C      1  0.4780000000000  0.6116020000000  0.5145750000000 1.0
C      1  0.5050130000000  0.6147920000000  0.5232440000000 1.0
C      1  0.5265620000000  0.6101820000000  0.5053530000000 1.0
C      1  0.4010780000000  0.4984820000000  0.5454070000000 1.0
C      1  0.6012740000000  0.5007820000000  0.4577090000000 1.0
C      1  0.4906440000000  0.5005510000000  0.6140310000000 1.0
C      1  0.5118710000000  0.5026530000000  0.3888110000000 1.0
C      1  0.4106520000000  0.5018510000000  0.4335650000000 1.0
C      1  0.5903760000000  0.4995450000000  0.5680450000000 1.0
C      1  0.4787950000000  0.4961660000000  0.5103320000000 1.0
END
