TITL C-35832-1730-3 45.8690050893749 125000 -1155.3450155786 0 0 167 (C3) n - 1
REM
REM in /rds/project/t2_vol4/rds-t2-cs072/BORA/CARBON/from-Arr/AIRSS/Generating-Clusters/GAP-ML-2020/Higher-Symm/SD-CG/HFTN-CG/C160-200
REM
REM
REM
REM
REM
REM ./C.cell (6b4489405718ea1b717e0baf1da4c2d9)
REM AIRSS Version 0.9.1 bugfix July 2018 build 013d7b7c2542+ Fri, 06 Jul 2018 19:26:36 +0100
REM compiler GCC version 9.3.0
REM options -cpp -mtune=generic -march=x86-64 -g -O0
REM seed 2145758624 -1114767143 -711831187 368337722 1018753812 -72995911 21132788 310194015 -1560875263 -2120310927 1548634847 1733050104 -412653940 -1954947092 -395183389 1846029347 -1034771769 -297854586 1329010718 2033969781 1516646874 -1827404471 371722896 -329649256 1909959601 176354760 1905196595 899983874 219078390 726670367 -169600952 -1470110047 -1227872208
REM
CELL 1.54180   50.00000   50.00000   50.00000   90.00000   90.00000   90.00000
LATT -1
SFAC C  
C      1  0.4111400000000  0.4910910000000  0.5544460000000 1.0
C      1  0.5510740000000  0.4264160000000  0.5540900000000 1.0
C      1  0.5371140000000  0.5799190000000  0.5566480000000 1.0
C      1  0.5968640000000  0.5210700000000  0.4464890000000 1.0
C      1  0.4347420000000  0.5745550000000  0.4465340000000 1.0
C      1  0.4694910000000  0.4074340000000  0.4438530000000 1.0
C      1  0.4950120000000  0.4705390000000  0.5886430000000 1.0
C      1  0.5261520000000  0.5085970000000  0.5894630000000 1.0
C      1  0.4776150000000  0.5165350000000  0.5893380000000 1.0
C      1  0.4447560000000  0.5407780000000  0.4900590000000 1.0
C      1  0.4927280000000  0.4320630000000  0.4884520000000 1.0
C      1  0.5629010000000  0.5279520000000  0.4904750000000 1.0
C      1  0.4108330000000  0.5609350000000  0.4841930000000 1.0
C      1  0.4923720000000  0.3927380000000  0.4817460000000 1.0
C      1  0.5972780000000  0.5474290000000  0.4849650000000 1.0
C      1  0.5896660000000  0.4166540000000  0.5219930000000 1.0
C      1  0.5270070000000  0.6188930000000  0.5251260000000 1.0
C      1  0.3831740000000  0.4635320000000  0.5216850000000 1.0
C      1  0.4290200000000  0.5557000000000  0.5111400000000 1.0
C      1  0.4871930000000  0.4105370000000  0.5089620000000 1.0
C      1  0.5838340000000  0.5334790000000  0.5115920000000 1.0
C      1  0.5104170000000  0.5408520000000  0.5256940000000 1.0
C      1  0.4590190000000  0.4881390000000  0.5245120000000 1.0
C      1  0.5303790000000  0.4699850000000  0.5245850000000 1.0
C      1  0.5498660000000  0.5136690000000  0.4425480000000 1.0
C      1  0.4647370000000  0.5376340000000  0.4425010000000 1.0
C      1  0.4865510000000  0.4519390000000  0.4411480000000 1.0
C      1  0.5460170000000  0.4299720000000  0.5068070000000 1.0
C      1  0.5376480000000  0.5747580000000  0.5092470000000 1.0
C      1  0.4164280000000  0.4951300000000  0.5072280000000 1.0
C      1  0.5586780000000  0.4195280000000  0.4557890000000 1.0
C      1  0.5415300000000  0.5920160000000  0.4586570000000 1.0
C      1  0.4007060000000  0.4909370000000  0.4561640000000 1.0
C      1  0.5983030000000  0.5088350000000  0.5159260000000 1.0
C      1  0.4430220000000  0.5804510000000  0.5163190000000 1.0
C      1  0.4586460000000  0.4101890000000  0.5134810000000 1.0
C      1  0.4708560000000  0.5043330000000  0.5456370000000 1.0
C      1  0.5099570000000  0.4717020000000  0.5452870000000 1.0
C      1  0.5186660000000  0.5218720000000  0.5461950000000 1.0
C      1  0.5369870000000  0.6084100000000  0.4806830000000 1.0
C      1  0.3882790000000  0.4783480000000  0.4776510000000 1.0
C      1  0.5752970000000  0.4146020000000  0.4775640000000 1.0
C      1  0.4872940000000  0.5084890000000  0.6166810000000 1.0
C      1  0.4965110000000  0.4823650000000  0.6162820000000 1.0
C      1  0.5145300000000  0.5034060000000  0.6167400000000 1.0
C      1  0.4358300000000  0.4668390000000  0.4687070000000 1.0
C      1  0.5616930000000  0.4617190000000  0.4692970000000 1.0
C      1  0.5031860000000  0.5732650000000  0.4708960000000 1.0
C      1  0.5114090000000  0.4357180000000  0.4361330000000 1.0
C      1  0.5515970000000  0.5434060000000  0.4381970000000 1.0
C      1  0.4382270000000  0.5243690000000  0.4372600000000 1.0
C      1  0.4832360000000  0.4789460000000  0.4547530000000 1.0
C      1  0.5278310000000  0.4970200000000  0.4553030000000 1.0
C      1  0.4898750000000  0.5265990000000  0.4556060000000 1.0
C      1  0.4537950000000  0.4533420000000  0.4176560000000 1.0
C      1  0.5655670000000  0.4850960000000  0.4188030000000 1.0
C      1  0.4821690000000  0.5660050000000  0.4197420000000 1.0
C      1  0.4666520000000  0.4781210000000  0.4772900000000 1.0
C      1  0.5363190000000  0.4825950000000  0.4777420000000 1.0
C      1  0.4976050000000  0.5406840000000  0.4785300000000 1.0
C      1  0.5831430000000  0.5609710000000  0.4637380000000 1.0
C      1  0.4066620000000  0.5423770000000  0.4624680000000 1.0
C      1  0.5110220000000  0.3988550000000  0.4605680000000 1.0
C      1  0.3971100000000  0.4465400000000  0.5342630000000 1.0
C      1  0.5971220000000  0.4369470000000  0.5351760000000 1.0
C      1  0.5054090000000  0.6149350000000  0.5377360000000 1.0
C      1  0.5695510000000  0.5370740000000  0.5361690000000 1.0
C      1  0.4324860000000  0.5410170000000  0.5354980000000 1.0
C      1  0.4976140000000  0.4203600000000  0.5337790000000 1.0
C      1  0.5628710000000  0.5844280000000  0.5463610000000 1.0
C      1  0.3945950000000  0.5113620000000  0.5442020000000 1.0
C      1  0.5420320000000  0.4021760000000  0.5431220000000 1.0
C      1  0.5394310000000  0.4364080000000  0.5781190000000 1.0
C      1  0.5337340000000  0.5643380000000  0.5802830000000 1.0
C      1  0.4257780000000  0.4954490000000  0.5785200000000 1.0
C      1  0.5617450000000  0.4457350000000  0.4442910000000 1.0
C      1  0.5175720000000  0.5818220000000  0.4463880000000 1.0
C      1  0.4217920000000  0.4755390000000  0.4440480000000 1.0
C      1  0.4480500000000  0.4005580000000  0.4887870000000 1.0
C      1  0.6125050000000  0.5049910000000  0.4914650000000 1.0
C      1  0.4398120000000  0.5951860000000  0.4920820000000 1.0
C      1  0.4139070000000  0.5303600000000  0.5535640000000 1.0
C      1  0.5157140000000  0.4092140000000  0.5520340000000 1.0
C      1  0.5697330000000  0.5579330000000  0.5548770000000 1.0
C      1  0.4610570000000  0.5019050000000  0.4956410000000 1.0
C      1  0.5181050000000  0.4654820000000  0.4953230000000 1.0
C      1  0.5211240000000  0.5330880000000  0.4964990000000 1.0
C      1  0.4211210000000  0.5501540000000  0.4396850000000 1.0
C      1  0.4975830000000  0.4079720000000  0.4376570000000 1.0
C      1  0.5824960000000  0.5452610000000  0.4404700000000 1.0
C      1  0.4440580000000  0.4525260000000  0.5639870000000 1.0
C      1  0.5677860000000  0.4739880000000  0.5650220000000 1.0
C      1  0.4873230000000  0.5703960000000  0.5662430000000 1.0
C      1  0.4382010000000  0.4771960000000  0.4209840000000 1.0
C      1  0.5526360000000  0.4596040000000  0.4212980000000 1.0
C      1  0.5106460000000  0.5674890000000  0.4229230000000 1.0
C      1  0.5294920000000  0.4233540000000  0.4605310000000 1.0
C      1  0.5527010000000  0.5647280000000  0.4630810000000 1.0
C      1  0.4186450000000  0.5141490000000  0.4614920000000 1.0
C      1  0.5507300000000  0.4468610000000  0.5309090000000 1.0
C      1  0.5201180000000  0.5698950000000  0.5328550000000 1.0
C      1  0.4288620000000  0.4818810000000  0.5308540000000 1.0
C      1  0.5539200000000  0.5193840000000  0.5849870000000 1.0
C      1  0.4544960000000  0.5352890000000  0.5847250000000 1.0
C      1  0.4904400000000  0.4412460000000  0.5833040000000 1.0
C      1  0.4666910000000  0.3937700000000  0.4693350000000 1.0
C      1  0.6095080000000  0.5249350000000  0.4723550000000 1.0
C      1  0.4244810000000  0.5830300000000  0.4723550000000 1.0
C      1  0.4394320000000  0.4391910000000  0.4640220000000 1.0
C      1  0.5839360000000  0.4787500000000  0.4654790000000 1.0
C      1  0.4774090000000  0.5841010000000  0.4667130000000 1.0
C      1  0.5241660000000  0.4554620000000  0.4162720000000 1.0
C      1  0.5285810000000  0.5450090000000  0.4178320000000 1.0
C      1  0.4488130000000  0.5040650000000  0.4167000000000 1.0
C      1  0.5480510000000  0.6172050000000  0.5071000000000 1.0
C      1  0.3745280000000  0.4829800000000  0.5038620000000 1.0
C      1  0.5775610000000  0.3998260000000  0.5035290000000 1.0
C      1  0.4708190000000  0.4591080000000  0.5194850000000 1.0
C      1  0.5497290000000  0.4948130000000  0.5205220000000 1.0
C      1  0.4793420000000  0.5452920000000  0.5210090000000 1.0
C      1  0.5966010000000  0.4824800000000  0.4900170000000 1.0
C      1  0.4672850000000  0.5926880000000  0.4912120000000 1.0
C      1  0.4364980000000  0.4256170000000  0.4881790000000 1.0
C      1  0.4577460000000  0.4340820000000  0.4421900000000 1.0
C      1  0.5797040000000  0.4976220000000  0.4439370000000 1.0
C      1  0.4636800000000  0.5714620000000  0.4445800000000 1.0
C      1  0.4857010000000  0.4604030000000  0.4940420000000 1.0
C      1  0.5417510000000  0.5075900000000  0.4951530000000 1.0
C      1  0.4728500000000  0.5325350000000  0.4952100000000 1.0
C      1  0.4694250000000  0.4404260000000  0.5643420000000 1.0
C      1  0.5655700000000  0.5019930000000  0.5659160000000 1.0
C      1  0.4641640000000  0.5544680000000  0.5662710000000 1.0
C      1  0.5562470000000  0.5470200000000  0.5791840000000 1.0
C      1  0.4295400000000  0.5236200000000  0.5781000000000 1.0
C      1  0.5131710000000  0.4256020000000  0.5768680000000 1.0
C      1  0.4809610000000  0.4574930000000  0.4113480000000 1.0
C      1  0.5485360000000  0.5066810000000  0.4125560000000 1.0
C      1  0.4721390000000  0.5406050000000  0.4127270000000 1.0
C      1  0.4879740000000  0.4481570000000  0.5409720000000 1.0
C      1  0.5501400000000  0.5146870000000  0.5424480000000 1.0
C      1  0.4614280000000  0.5352580000000  0.5423230000000 1.0
C      1  0.4467060000000  0.4768960000000  0.5788430000000 1.0
C      1  0.5450230000000  0.4637940000000  0.5791480000000 1.0
C      1  0.5072050000000  0.5554770000000  0.5805180000000 1.0
C      1  0.4729680000000  0.4903900000000  0.5749090000000 1.0
C      1  0.5203010000000  0.4798800000000  0.5749840000000 1.0
C      1  0.5057340000000  0.5261200000000  0.5756990000000 1.0
C      1  0.4138050000000  0.4728220000000  0.4883510000000 1.0
C      1  0.5670740000000  0.4392430000000  0.4886000000000 1.0
C      1  0.5195120000000  0.5887470000000  0.4909090000000 1.0
C      1  0.4941440000000  0.5862800000000  0.5397560000000 1.0
C      1  0.4275030000000  0.4510560000000  0.5370770000000 1.0
C      1  0.5779530000000  0.4609530000000  0.5380570000000 1.0
C      1  0.5580980000000  0.5936090000000  0.5194080000000 1.0
C      1  0.3896510000000  0.5032090000000  0.5169490000000 1.0
C      1  0.5521870000000  0.4025420000000  0.5160970000000 1.0
C      1  0.5233320000000  0.4363020000000  0.4876740000000 1.0
C      1  0.5439480000000  0.5523530000000  0.4897760000000 1.0
C      1  0.4331220000000  0.5121890000000  0.4884910000000 1.0
C      1  0.4730520000000  0.5773230000000  0.5188700000000 1.0
C      1  0.4462820000000  0.4377040000000  0.5163300000000 1.0
C      1  0.5805990000000  0.4843220000000  0.5178530000000 1.0
C      1  0.4735060000000  0.5137080000000  0.4039000000000 1.0
C      1  0.5037660000000  0.4722990000000  0.4033530000000 1.0
C      1  0.5245000000000  0.5192030000000  0.4042690000000 1.0
C      1  0.5006140000000  0.5018130000000  0.3993970000000 1.0
C      1  0.5003230000000  0.5008840000000  0.4535250000000 1.0
END
