TITL C-35834-1727-2 -0.0623738495806213 125000 -1387.28839927844 0 0 199 (Cs) n - 1
REM
REM in /rds/project/t2_vol4/rds-t2-cs072/BORA/CARBON/from-Arr/AIRSS/Generating-Clusters/GAP-ML-2020/Higher-Symm/SD-CG/HFTN-CG/C160-200
REM
REM
REM
REM
REM
REM ./C.cell (6b4489405718ea1b717e0baf1da4c2d9)
REM AIRSS Version 0.9.1 bugfix July 2018 build 013d7b7c2542+ Fri, 06 Jul 2018 19:26:36 +0100
REM compiler GCC version 9.3.0
REM options -cpp -mtune=generic -march=x86-64 -g -O0
REM seed -842103853 -2027757214 -1713231263 1196207686 -684065368 -749081907 2071240572 892392248 -2000529658 -463327992 438413151 -913050494 -1509047354 -912091407 1219932992 -773816421 -82854961 1328676568 1113029697 674226908 254273893 -885359751 1069230095 653581429 1014983537 -1589418910 2003247118 -1468881632 920350304 -366865716 946668149 -1553868914 -391761128
REM
CELL 1.54180   50.00000   50.00000   50.00000   90.00000   90.00000   90.00000
LATT -1
SFAC C  
C      1  0.4586800000000  0.6335680000000  0.5311140000000 1.0
C      1  0.4622860000000  0.3651790000000  0.4688780000000 1.0
C      1  0.4589330000000  0.6331110000000  0.4666780000000 1.0
C      1  0.4620360000000  0.3656320000000  0.5327390000000 1.0
C      1  0.4808470000000  0.4040300000000  0.5784360000000 1.0
C      1  0.4777810000000  0.5946030000000  0.4218760000000 1.0
C      1  0.4814570000000  0.4029260000000  0.4227890000000 1.0
C      1  0.4771750000000  0.5957000000000  0.5766040000000 1.0
C      1  0.5039860000000  0.5540040000000  0.4738830000000 1.0
C      1  0.5041460000000  0.4462930000000  0.5263320000000 1.0
C      1  0.5037840000000  0.5543690000000  0.5253840000000 1.0
C      1  0.5043490000000  0.4459250000000  0.4744700000000 1.0
C      1  0.4490540000000  0.4351750000000  0.4441440000000 1.0
C      1  0.4464090000000  0.5624130000000  0.5553050000000 1.0
C      1  0.4486150000000  0.4359710000000  0.5563730000000 1.0
C      1  0.4468470000000  0.5616200000000  0.4434030000000 1.0
C      1  0.4925240000000  0.5818180000000  0.4019930000000 1.0
C      1  0.4948600000000  0.4171750000000  0.5985430000000 1.0
C      1  0.4917620000000  0.5831980000000  0.5967800000000 1.0
C      1  0.4956270000000  0.4157860000000  0.4026090000000 1.0
C      1  0.5732960000000  0.5902460000000  0.4859490000000 1.0
C      1  0.5731200000000  0.4137140000000  0.5148140000000 1.0
C      1  0.5731890000000  0.5904400000000  0.5133480000000 1.0
C      1  0.5732290000000  0.4135170000000  0.4869890000000 1.0
C      1  0.5322920000000  0.5594280000000  0.4842940000000 1.0
C      1  0.5328150000000  0.4437810000000  0.5161560000000 1.0
C      1  0.5321710000000  0.5596470000000  0.5151190000000 1.0
C      1  0.5329370000000  0.4435600000000  0.4849040000000 1.0
C      1  0.5489670000000  0.5324370000000  0.4235150000000 1.0
C      1  0.5495010000000  0.4682320000000  0.5775940000000 1.0
C      1  0.5483680000000  0.5335210000000  0.5764030000000 1.0
C      1  0.5501050000000  0.4671380000000  0.4232590000000 1.0
C      1  0.4895430000000  0.5338280000000  0.4344270000000 1.0
C      1  0.4906190000000  0.4645590000000  0.5671390000000 1.0
C      1  0.4890320000000  0.5347540000000  0.5650070000000 1.0
C      1  0.4911430000000  0.4636110000000  0.4333040000000 1.0
C      1  0.4086340000000  0.5262700000000  0.5348300000000 1.0
C      1  0.4086720000000  0.4710480000000  0.4589600000000 1.0
C      1  0.4089110000000  0.5257690000000  0.4640910000000 1.0
C      1  0.4083520000000  0.4716280000000  0.5407350000000 1.0
C      1  0.5241240000000  0.4442340000000  0.6107750000000 1.0
C      1  0.5227100000000  0.5556180000000  0.3901620000000 1.0
C      1  0.5249870000000  0.4426710000000  0.3902240000000 1.0
C      1  0.5218530000000  0.5571700000000  0.6092180000000 1.0
C      1  0.4529650000000  0.4419590000000  0.5255240000000 1.0
C      1  0.4524580000000  0.5567860000000  0.4745140000000 1.0
C      1  0.4531630000000  0.4416010000000  0.4749380000000 1.0
C      1  0.4522630000000  0.5571390000000  0.5243100000000 1.0
C      1  0.4582910000000  0.4072840000000  0.4398350000000 1.0
C      1  0.4541540000000  0.5908170000000  0.5599070000000 1.0
C      1  0.4578160000000  0.4081440000000  0.5611500000000 1.0
C      1  0.4546290000000  0.5899560000000  0.4384590000000 1.0
C      1  0.5382780000000  0.4054580000000  0.5500210000000 1.0
C      1  0.5366260000000  0.5957780000000  0.4498930000000 1.0
C      1  0.5386630000000  0.4047600000000  0.4516300000000 1.0
C      1  0.5362380000000  0.5964810000000  0.5490340000000 1.0
C      1  0.4429550000000  0.5131720000000  0.4249190000000 1.0
C      1  0.4429560000000  0.4827150000000  0.5763990000000 1.0
C      1  0.4423700000000  0.5142320000000  0.5744420000000 1.0
C      1  0.4435550000000  0.4816310000000  0.4234150000000 1.0
C      1  0.4538880000000  0.5274060000000  0.5266190000000 1.0
C      1  0.4542500000000  0.4712440000000  0.4706790000000 1.0
C      1  0.4541000000000  0.5270230000000  0.4726400000000 1.0
C      1  0.4540210000000  0.4716600000000  0.5293720000000 1.0
C      1  0.4283610000000  0.4849320000000  0.5255780000000 1.0
C      1  0.4279550000000  0.5122600000000  0.4831650000000 1.0
C      1  0.4285620000000  0.4845670000000  0.4740830000000 1.0
C      1  0.4278260000000  0.5124940000000  0.5161000000000 1.0
C      1  0.4827870000000  0.3655730000000  0.5156970000000 1.0
C      1  0.4793600000000  0.6335340000000  0.4841590000000 1.0
C      1  0.4829030000000  0.3653630000000  0.4860810000000 1.0
C      1  0.4792440000000  0.6337440000000  0.5137890000000 1.0
C      1  0.4872440000000  0.4701760000000  0.5989140000000 1.0
C      1  0.4867340000000  0.5285600000000  0.4027720000000 1.0
C      1  0.4880170000000  0.4687760000000  0.4014260000000 1.0
C      1  0.4859750000000  0.5299350000000  0.5967110000000 1.0
C      1  0.5113180000000  0.6064810000000  0.5393750000000 1.0
C      1  0.5144340000000  0.3935660000000  0.4612060000000 1.0
C      1  0.5116320000000  0.6059130000000  0.4592140000000 1.0
C      1  0.5141240000000  0.3941270000000  0.5404160000000 1.0
C      1  0.5342170000000  0.4678490000000  0.3993210000000 1.0
C      1  0.5321120000000  0.5323900000000  0.6000890000000 1.0
C      1  0.5334260000000  0.4692820000000  0.6013940000000 1.0
C      1  0.5328960000000  0.5309690000000  0.3997220000000 1.0
C      1  0.5413470000000  0.5817290000000  0.4253110000000 1.0
C      1  0.5433850000000  0.4189530000000  0.5748890000000 1.0
C      1  0.5407660000000  0.5827810000000  0.5738490000000 1.0
C      1  0.5439650000000  0.4179010000000  0.4266140000000 1.0
C      1  0.4347680000000  0.4006490000000  0.4858710000000 1.0
C      1  0.4320690000000  0.5981260000000  0.5136740000000 1.0
C      1  0.4346540000000  0.4008560000000  0.5150300000000 1.0
C      1  0.4321840000000  0.5979180000000  0.4844090000000 1.0
C      1  0.5116100000000  0.5127600000000  0.3950660000000 1.0
C      1  0.5114180000000  0.4868840000000  0.6058180000000 1.0
C      1  0.5107890000000  0.5142470000000  0.6048350000000 1.0
C      1  0.5122450000000  0.4853860000000  0.3944760000000 1.0
C      1  0.5989060000000  0.5258800000000  0.4719730000000 1.0
C      1  0.5989620000000  0.4783420000000  0.5292050000000 1.0
C      1  0.5986850000000  0.5262800000000  0.5284360000000 1.0
C      1  0.5991870000000  0.4779360000000  0.4718850000000 1.0
C      1  0.5405710000000  0.4837430000000  0.5521550000000 1.0
C      1  0.5404810000000  0.5164810000000  0.4487970000000 1.0
C      1  0.5409770000000  0.4830080000000  0.4484050000000 1.0
C      1  0.5400800000000  0.5172080000000  0.5512840000000 1.0
C      1  0.5012510000000  0.5598130000000  0.4458000000000 1.0
C      1  0.5029790000000  0.4394230000000  0.5546600000000 1.0
C      1  0.5008300000000  0.5605760000000  0.5533600000000 1.0
C      1  0.5034040000000  0.4386540000000  0.4462340000000 1.0
C      1  0.5079940000000  0.4850560000000  0.5514270000000 1.0
C      1  0.5084590000000  0.5143880000000  0.4495120000000 1.0
C      1  0.5083950000000  0.4843290000000  0.4488590000000 1.0
C      1  0.5080650000000  0.5151030000000  0.5503480000000 1.0
C      1  0.4081520000000  0.4427320000000  0.4645910000000 1.0
C      1  0.4067030000000  0.5547840000000  0.5332040000000 1.0
C      1  0.4078740000000  0.4432350000000  0.5355020000000 1.0
C      1  0.4069690000000  0.5543030000000  0.4652980000000 1.0
C      1  0.4254920000000  0.5688100000000  0.5144080000000 1.0
C      1  0.4266120000000  0.4301610000000  0.4848790000000 1.0
C      1  0.4256110000000  0.5685950000000  0.4840400000000 1.0
C      1  0.4264920000000  0.4303790000000  0.5155400000000 1.0
C      1  0.4925240000000  0.5902060000000  0.5534380000000 1.0
C      1  0.4956760000000  0.4090860000000  0.4465390000000 1.0
C      1  0.4929480000000  0.5894390000000  0.4452360000000 1.0
C      1  0.4952530000000  0.4098520000000  0.5547140000000 1.0
C      1  0.4174910000000  0.4684220000000  0.5689200000000 1.0
C      1  0.4175090000000  0.5261970000000  0.4354340000000 1.0
C      1  0.4180320000000  0.4674440000000  0.4308950000000 1.0
C      1  0.4170080000000  0.5271050000000  0.5635450000000 1.0
C      1  0.5488620000000  0.5833430000000  0.4724540000000 1.0
C      1  0.5482530000000  0.4182410000000  0.5270040000000 1.0
C      1  0.5486500000000  0.5837280000000  0.5267490000000 1.0
C      1  0.5484590000000  0.4178690000000  0.4745410000000 1.0
C      1  0.6014240000000  0.4650480000000  0.4475680000000 1.0
C      1  0.6001340000000  0.5385450000000  0.5529140000000 1.0
C      1  0.6010090000000  0.4658000000000  0.5537190000000 1.0
C      1  0.6005470000000  0.5377970000000  0.4473350000000 1.0
C      1  0.5811400000000  0.4356240000000  0.4723130000000 1.0
C      1  0.5777750000000  0.5676430000000  0.5291780000000 1.0
C      1  0.5809170000000  0.4360280000000  0.5292360000000 1.0
C      1  0.5780050000000  0.5672270000000  0.4704800000000 1.0
C      1  0.4786060000000  0.5658560000000  0.5130360000000 1.0
C      1  0.4795170000000  0.4332960000000  0.4867420000000 1.0
C      1  0.4787120000000  0.5656630000000  0.4858690000000 1.0
C      1  0.4794100000000  0.4334890000000  0.5140460000000 1.0
C      1  0.4948420000000  0.4435540000000  0.6113110000000 1.0
C      1  0.4934660000000  0.5552910000000  0.3898710000000 1.0
C      1  0.4957110000000  0.4419810000000  0.3894680000000 1.0
C      1  0.4926080000000  0.5568470000000  0.6092840000000 1.0
C      1  0.5467200000000  0.5304300000000  0.4768470000000 1.0
C      1  0.5482780000000  0.4688470000000  0.5264150000000 1.0
C      1  0.5465390000000  0.5307580000000  0.5230890000000 1.0
C      1  0.5484810000000  0.4684790000000  0.4744120000000 1.0
C      1  0.5221600000000  0.5821440000000  0.5953460000000 1.0
C      1  0.5259280000000  0.4179560000000  0.4045240000000 1.0
C      1  0.5229100000000  0.5807850000000  0.4036800000000 1.0
C      1  0.5251750000000  0.4193190000000  0.5968340000000 1.0
C      1  0.4759900000000  0.4843560000000  0.5151600000000 1.0
C      1  0.4767720000000  0.5143280000000  0.4850200000000 1.0
C      1  0.4761090000000  0.4841420000000  0.4848800000000 1.0
C      1  0.4766570000000  0.5145370000000  0.5145980000000 1.0
C      1  0.5617720000000  0.4423640000000  0.5735370000000 1.0
C      1  0.5603950000000  0.5587710000000  0.4266870000000 1.0
C      1  0.5623420000000  0.4413310000000  0.4277770000000 1.0
C      1  0.5598230000000  0.5598080000000  0.5729470000000 1.0
C      1  0.4186210000000  0.5543190000000  0.4392830000000 1.0
C      1  0.4201580000000  0.4414030000000  0.5613700000000 1.0
C      1  0.4181510000000  0.5551690000000  0.5593070000000 1.0
C      1  0.4206380000000  0.4405340000000  0.4388480000000 1.0
C      1  0.5762560000000  0.4633110000000  0.4852280000000 1.0
C      1  0.5751370000000  0.5399340000000  0.5150890000000 1.0
C      1  0.5761360000000  0.4635290000000  0.5158920000000 1.0
C      1  0.5752550000000  0.5397200000000  0.4849400000000 1.0
C      1  0.5010020000000  0.4753410000000  0.5251630000000 1.0
C      1  0.5032890000000  0.5237190000000  0.4772390000000 1.0
C      1  0.5011970000000  0.4749870000000  0.4752020000000 1.0
C      1  0.5031120000000  0.5240400000000  0.5224520000000 1.0
C      1  0.4616780000000  0.5123500000000  0.4010520000000 1.0
C      1  0.4615560000000  0.4856530000000  0.5998660000000 1.0
C      1  0.4609050000000  0.5137490000000  0.5984650000000 1.0
C      1  0.4623380000000  0.4842360000000  0.4000540000000 1.0
C      1  0.5086490000000  0.3792420000000  0.5159550000000 1.0
C      1  0.5055430000000  0.6205380000000  0.4840550000000 1.0
C      1  0.5087670000000  0.3790290000000  0.4858310000000 1.0
C      1  0.5054250000000  0.6207520000000  0.5142820000000 1.0
C      1  0.4604600000000  0.5309730000000  0.4425520000000 1.0
C      1  0.4613990000000  0.4655890000000  0.5592060000000 1.0
C      1  0.4600130000000  0.5317820000000  0.5566960000000 1.0
C      1  0.4618610000000  0.4647510000000  0.4409920000000 1.0
C      1  0.5830370000000  0.5601430000000  0.5563390000000 1.0
C      1  0.5851820000000  0.4426500000000  0.4447320000000 1.0
C      1  0.5834790000000  0.5593430000000  0.4434700000000 1.0
C      1  0.5847440000000  0.4434440000000  0.5567460000000 1.0
C      1  0.4461990000000  0.6087940000000  0.4609240000000 1.0
C      1  0.4490330000000  0.3897760000000  0.5384340000000 1.0
C      1  0.4459010000000  0.6093340000000  0.5371130000000 1.0
C      1  0.4493290000000  0.3892400000000  0.4627390000000 1.0
C      1  0.6061050000000  0.5021360000000  0.5152270000000 1.0
C      1  0.6062210000000  0.5019250000000  0.4855800000000 1.0
C      1  0.5281050000000  0.5179750000000  0.4999850000000 1.0
END
