TITL C-3510-9349-7 25.4727350645223 125000 -499.024336580049 0 0 72 (C1) n - 1
REM
REM in /rds/project/t2_vol4/rds-t2-cs072/BORA/CARBON/from-Arr/AIRSS/Generating-Clusters/GAP-ML-2020/Higher-Symm/SD-CG/HFTN-CG
REM
REM
REM
REM
REM
REM ./C.cell (b20cbc046b6831c77cfcea5457e17084)
REM AIRSS Version 0.9.1 bugfix July 2018 build 013d7b7c2542+ Fri, 06 Jul 2018 19:26:36 +0100
REM compiler GCC version 9.3.0
REM options -cpp -mtune=generic -march=x86-64 -g -O0
REM seed -922815610 1411633647 -1193224703 -1112383513 1721837409 -860883687 -1760118370 1734706327 926159843 -1713195904 1232482383 161238571 -918579912 1891567352 -1778630625 -180710886 692840833 1378765188 -1817003993 1178431876 545833035 1398753445 1494120735 -86334043 2083438080 1307073570 -582050689 -1494349648 551722488 -259824444 -3171071 659894958 1635775783
REM
CELL 1.54180   50.00000   50.00000   50.00000   90.00000   90.00000   90.00000
LATT -1
SFAC C  
C      1  0.4453190000000  0.5543800000000  0.5245140000000 1.0
C      1  0.5541030000000  0.4453960000000  0.4753930000000 1.0
C      1  0.4504440000000  0.5370830000000  0.5474280000000 1.0
C      1  0.5479550000000  0.4616080000000  0.4517370000000 1.0
C      1  0.4715340000000  0.4763760000000  0.4990210000000 1.0
C      1  0.5334850000000  0.5236030000000  0.5015310000000 1.0
C      1  0.5281730000000  0.4791350000000  0.5116750000000 1.0
C      1  0.4772330000000  0.5224290000000  0.5032510000000 1.0
C      1  0.5635000000000  0.5413500000000  0.4675440000000 1.0
C      1  0.4383180000000  0.4550410000000  0.5222480000000 1.0
C      1  0.5074010000000  0.4618910000000  0.5633050000000 1.0
C      1  0.4917740000000  0.5373380000000  0.4372170000000 1.0
C      1  0.4363030000000  0.5438140000000  0.5004740000000 1.0
C      1  0.5630860000000  0.4574150000000  0.4990780000000 1.0
C      1  0.5528130000000  0.4710320000000  0.5468670000000 1.0
C      1  0.4474620000000  0.5305500000000  0.4562500000000 1.0
C      1  0.5095870000000  0.5142870000000  0.4326150000000 1.0
C      1  0.4888380000000  0.4846040000000  0.5659300000000 1.0
C      1  0.5296500000000  0.5016590000000  0.5736560000000 1.0
C      1  0.4671380000000  0.4984710000000  0.4284680000000 1.0
C      1  0.4663130000000  0.4500470000000  0.4833640000000 1.0
C      1  0.5346620000000  0.5498440000000  0.5178530000000 1.0
C      1  0.5115070000000  0.4856020000000  0.4671370000000 1.0
C      1  0.4879750000000  0.5128120000000  0.5299790000000 1.0
C      1  0.5576620000000  0.4987660000000  0.5390690000000 1.0
C      1  0.4443390000000  0.5042250000000  0.4670200000000 1.0
C      1  0.4492800000000  0.5508950000000  0.4759670000000 1.0
C      1  0.5467840000000  0.4539220000000  0.5232720000000 1.0
C      1  0.5532480000000  0.4894240000000  0.4521200000000 1.0
C      1  0.4454280000000  0.5090950000000  0.5457110000000 1.0
C      1  0.5694770000000  0.4847340000000  0.4953210000000 1.0
C      1  0.4315230000000  0.5160590000000  0.5027740000000 1.0
C      1  0.5140110000000  0.5640350000000  0.4999020000000 1.0
C      1  0.4854280000000  0.4339440000000  0.5009380000000 1.0
C      1  0.4389930000000  0.4469090000000  0.4936390000000 1.0
C      1  0.5627870000000  0.5541130000000  0.5130650000000 1.0
C      1  0.4542370000000  0.4836800000000  0.4488900000000 1.0
C      1  0.5440780000000  0.5180230000000  0.5553400000000 1.0
C      1  0.4817780000000  0.4422320000000  0.5278990000000 1.0
C      1  0.5177820000000  0.5553620000000  0.4733220000000 1.0
C      1  0.5360020000000  0.5318720000000  0.4718650000000 1.0
C      1  0.4649360000000  0.4663230000000  0.5271200000000 1.0
C      1  0.5333880000000  0.4733450000000  0.5669920000000 1.0
C      1  0.4652200000000  0.5270420000000  0.4346520000000 1.0
C      1  0.4699870000000  0.4606890000000  0.4557730000000 1.0
C      1  0.5277880000000  0.5391580000000  0.5453450000000 1.0
C      1  0.5029450000000  0.5087780000000  0.5719570000000 1.0
C      1  0.4938520000000  0.4904500000000  0.4265210000000 1.0
C      1  0.5035700000000  0.5117650000000  0.5037620000000 1.0
C      1  0.5038020000000  0.4844710000000  0.4954890000000 1.0
C      1  0.4973500000000  0.4672030000000  0.4457750000000 1.0
C      1  0.4993850000000  0.5317710000000  0.5520370000000 1.0
C      1  0.4943880000000  0.5570790000000  0.4582140000000 1.0
C      1  0.5051930000000  0.4413970000000  0.5431260000000 1.0
C      1  0.5499060000000  0.5001260000000  0.5111920000000 1.0
C      1  0.4570330000000  0.5022970000000  0.4931570000000 1.0
C      1  0.4695010000000  0.4909300000000  0.5445070000000 1.0
C      1  0.5292600000000  0.5077370000000  0.4535710000000 1.0
C      1  0.5828450000000  0.5231040000000  0.4723220000000 1.0
C      1  0.4194600000000  0.4755140000000  0.5187900000000 1.0
C      1  0.4715960000000  0.5664600000000  0.5267270000000 1.0
C      1  0.5271300000000  0.4336100000000  0.4742400000000 1.0
C      1  0.4207640000000  0.4675220000000  0.4913120000000 1.0
C      1  0.5766120000000  0.5425270000000  0.4936840000000 1.0
C      1  0.4247570000000  0.5023120000000  0.5262620000000 1.0
C      1  0.5746710000000  0.4963680000000  0.4704170000000 1.0
C      1  0.4865540000000  0.5710060000000  0.5031170000000 1.0
C      1  0.5132300000000  0.4281920000000  0.4983190000000 1.0
C      1  0.4767610000000  0.5500700000000  0.5506650000000 1.0
C      1  0.5209590000000  0.4507420000000  0.4507880000000 1.0
C      1  0.4736190000000  0.5650580000000  0.4769870000000 1.0
C      1  0.5261310000000  0.4338990000000  0.5245300000000 1.0
END
