TITL C-35345-9010-5 -0.0625414289696759 125000 -323.716809566041 0 0 50 (C5) n - 1
REM
REM in /rds/project/t2_vol4/rds-t2-cs072/BORA/CARBON/from-Arr/AIRSS/Generating-Clusters/GAP-ML-2020/Higher-Symm/SD-CG/HFTN-CG
REM
REM
REM
REM
REM
REM ./C.cell (b20cbc046b6831c77cfcea5457e17084)
REM AIRSS Version 0.9.1 bugfix July 2018 build 013d7b7c2542+ Fri, 06 Jul 2018 19:26:36 +0100
REM compiler GCC version 9.3.0
REM options -cpp -mtune=generic -march=x86-64 -g -O0
REM seed 1165745438 142052285 -365983307 -280125221 139940968 1949922977 696133429 -1566210715 1126868587 -1679890284 1836948747 -1293572517 -1554764564 -848876268 100541092 1832508924 -975663577 330398343 1983474539 -1042045049 1565971230 -955185828 270057761 -1241594559 -434062817 -1794727588 1655544387 -843005622 1470985660 1122564556 -1296810310 1866920950 -493018927
REM
CELL 1.54180   50.00000   50.00000   50.00000   90.00000   90.00000   90.00000
LATT -1
SFAC C  
C      1  0.5474070000000  0.5152190000000  0.4792170000000 1.0
C      1  0.5344150000000  0.5152190000000  0.5386650000000 1.0
C      1  0.4738620000000  0.5152180000000  0.5446790000000 1.0
C      1  0.4494310000000  0.5152180000000  0.4889480000000 1.0
C      1  0.4948840000000  0.5152180000000  0.4484910000000 1.0
C      1  0.5474070000000  0.4847820000000  0.4792170000000 1.0
C      1  0.5344150000000  0.4847820000000  0.5386650000000 1.0
C      1  0.4738630000000  0.4847810000000  0.5446790000000 1.0
C      1  0.4494310000000  0.4847810000000  0.4889480000000 1.0
C      1  0.4948840000000  0.4847810000000  0.4484910000000 1.0
C      1  0.4891370000000  0.4408530000000  0.5229940000000 1.0
C      1  0.4747750000000  0.4408530000000  0.4967740000000 1.0
C      1  0.4952740000000  0.4408530000000  0.4750120000000 1.0
C      1  0.5223050000000  0.4408540000000  0.4877830000000 1.0
C      1  0.5185120000000  0.4408540000000  0.5174370000000 1.0
C      1  0.4891360000000  0.5591460000000  0.5229930000000 1.0
C      1  0.4747740000000  0.5591460000000  0.4967730000000 1.0
C      1  0.4952730000000  0.5591460000000  0.4750120000000 1.0
C      1  0.5223040000000  0.5591470000000  0.4877830000000 1.0
C      1  0.5185100000000  0.5591470000000  0.5174370000000 1.0
C      1  0.4749450000000  0.5288730000000  0.4953170000000 1.0
C      1  0.4967110000000  0.5288730000000  0.4747240000000 1.0
C      1  0.5230220000000  0.5288730000000  0.4890620000000 1.0
C      1  0.5175170000000  0.5288730000000  0.5185160000000 1.0
C      1  0.4878030000000  0.5288730000000  0.5223810000000 1.0
C      1  0.4749450000000  0.4711270000000  0.4953170000000 1.0
C      1  0.4967120000000  0.4711270000000  0.4747240000000 1.0
C      1  0.5230230000000  0.4711270000000  0.4890620000000 1.0
C      1  0.5175170000000  0.4711270000000  0.5185160000000 1.0
C      1  0.4878040000000  0.4711270000000  0.5223810000000 1.0
C      1  0.5423970000000  0.5144870000000  0.4488060000000 1.0
C      1  0.5617900000000  0.5144870000000  0.5245020000000 1.0
C      1  0.4957910000000  0.5144860000000  0.5663380000000 1.0
C      1  0.4356080000000  0.5144860000000  0.5164960000000 1.0
C      1  0.4644130000000  0.5144860000000  0.4438580000000 1.0
C      1  0.5423980000000  0.4855140000000  0.4488060000000 1.0
C      1  0.5617900000000  0.4855150000000  0.5245020000000 1.0
C      1  0.4957910000000  0.4855140000000  0.5663380000000 1.0
C      1  0.4356090000000  0.4855130000000  0.5164970000000 1.0
C      1  0.4644130000000  0.4855130000000  0.4438580000000 1.0
C      1  0.5204400000000  0.4735880000000  0.5631160000000 1.0
C      1  0.4462900000000  0.4735870000000  0.5389430000000 1.0
C      1  0.4463660000000  0.4735870000000  0.4609530000000 1.0
C      1  0.5205630000000  0.4735870000000  0.4369240000000 1.0
C      1  0.5663430000000  0.4735880000000  0.5000650000000 1.0
C      1  0.5204390000000  0.5264130000000  0.5631160000000 1.0
C      1  0.4462890000000  0.5264120000000  0.5389430000000 1.0
C      1  0.4463650000000  0.5264120000000  0.4609520000000 1.0
C      1  0.5205620000000  0.5264130000000  0.4369240000000 1.0
C      1  0.5663430000000  0.5264130000000  0.5000650000000 1.0
END
