TITL C-35896-4189-2 1513.35044097725 125000 -1211.42341000021 0 0 174 (C1) n - 1
REM
REM in /rds/project/t2_vol4/rds-t2-cs072/BORA/CARBON/from-Arr/AIRSS/Generating-Clusters/GAP-ML-2020/Higher-Symm/SD-CG/HFTN-CG/C160-200
REM
REM
REM
REM
REM
REM ./C.cell (6b4489405718ea1b717e0baf1da4c2d9)
REM AIRSS Version 0.9.1 bugfix July 2018 build 013d7b7c2542+ Fri, 06 Jul 2018 19:26:36 +0100
REM compiler GCC version 9.3.0
REM options -cpp -mtune=generic -march=x86-64 -g -O0
REM seed 218554408 1019810022 31539745 -1765501003 -361681374 -1292795176 -993252864 -611454076 1454703848 141547442 -1855934815 -744676905 -1032463672 846627789 294577195 -1389908202 -383056680 -1720818335 1629371045 -1451061438 -1590023371 969357378 1920360780 1852892664 -163434140 -2102444836 -955762542 1084438035 1886661472 -1273724029 1264909430 -2028723441 -761406224
REM
CELL 1.54180   50.00000   50.00000   50.00000   90.00000   90.00000   90.00000
LATT -1
SFAC C  
C      1  0.5816390000000  0.5749960000000  0.5023460000000 1.0
C      1  0.5720180000000  0.5161500000000  0.5818410000000 1.0
C      1  0.5046510000000  0.5790960000000  0.5694760000000 1.0
C      1  0.4235840000000  0.4291940000000  0.5148610000000 1.0
C      1  0.5871580000000  0.4277070000000  0.4860310000000 1.0
C      1  0.4160840000000  0.5700940000000  0.4919160000000 1.0
C      1  0.4276670000000  0.4815690000000  0.5880060000000 1.0
C      1  0.5750360000000  0.4891840000000  0.4204000000000 1.0
C      1  0.4333090000000  0.5036250000000  0.4159180000000 1.0
C      1  0.4893240000000  0.4122610000000  0.5757070000000 1.0
C      1  0.5189370000000  0.4179920000000  0.4330160000000 1.0
C      1  0.4971140000000  0.5822930000000  0.4187830000000 1.0
C      1  0.5254260000000  0.4342700000000  0.5188630000000 1.0
C      1  0.4264190000000  0.5063700000000  0.5251840000000 1.0
C      1  0.5178940000000  0.5289570000000  0.4335400000000 1.0
C      1  0.4838530000000  0.5662170000000  0.5119430000000 1.0
C      1  0.5229100000000  0.5602840000000  0.4793800000000 1.0
C      1  0.4763740000000  0.4353500000000  0.4947290000000 1.0
C      1  0.5645480000000  0.4863990000000  0.5181170000000 1.0
C      1  0.4366550000000  0.4921510000000  0.4707240000000 1.0
C      1  0.5640990000000  0.5344760000000  0.4659770000000 1.0
C      1  0.4825280000000  0.4936630000000  0.4021220000000 1.0
C      1  0.5130570000000  0.4762170000000  0.5810190000000 1.0
C      1  0.4881530000000  0.5330960000000  0.5535850000000 1.0
C      1  0.4773830000000  0.5693220000000  0.4823190000000 1.0
C      1  0.5577730000000  0.4823770000000  0.4692320000000 1.0
C      1  0.4882410000000  0.4707810000000  0.5973150000000 1.0
C      1  0.5304200000000  0.4170000000000  0.4922660000000 1.0
C      1  0.4758640000000  0.4399940000000  0.5238440000000 1.0
C      1  0.5287310000000  0.5634940000000  0.5107290000000 1.0
C      1  0.4327180000000  0.5207480000000  0.4780300000000 1.0
C      1  0.5665630000000  0.5173620000000  0.5181360000000 1.0
C      1  0.4101880000000  0.4815990000000  0.5283760000000 1.0
C      1  0.5161410000000  0.5261170000000  0.5653360000000 1.0
C      1  0.4875890000000  0.5344740000000  0.4260780000000 1.0
C      1  0.5089380000000  0.4842450000000  0.4167340000000 1.0
C      1  0.6060840000000  0.5057370000000  0.4581480000000 1.0
C      1  0.5270500000000  0.4323430000000  0.6042920000000 1.0
C      1  0.4305710000000  0.6142000000000  0.5187070000000 1.0
C      1  0.4084080000000  0.4874440000000  0.4584380000000 1.0
C      1  0.6076590000000  0.4809020000000  0.5601810000000 1.0
C      1  0.3890560000000  0.5169060000000  0.5726810000000 1.0
C      1  0.4854020000000  0.5431980000000  0.5973610000000 1.0
C      1  0.5259620000000  0.5518860000000  0.3921010000000 1.0
C      1  0.4746500000000  0.4229410000000  0.4216810000000 1.0
C      1  0.5723120000000  0.3902640000000  0.5220730000000 1.0
C      1  0.4596120000000  0.4043890000000  0.4921620000000 1.0
C      1  0.5428650000000  0.6025190000000  0.4854670000000 1.0
C      1  0.4076010000000  0.5561820000000  0.5377830000000 1.0
C      1  0.5675220000000  0.5355480000000  0.4171830000000 1.0
C      1  0.5338180000000  0.4048300000000  0.5596290000000 1.0
C      1  0.5817640000000  0.4432760000000  0.5296700000000 1.0
C      1  0.4120180000000  0.4390850000000  0.4685740000000 1.0
C      1  0.6152140000000  0.5506610000000  0.4733330000000 1.0
C      1  0.4407810000000  0.4624890000000  0.4104530000000 1.0
C      1  0.5550450000000  0.4750380000000  0.5808410000000 1.0
C      1  0.4447560000000  0.5228160000000  0.5772900000000 1.0
C      1  0.4663660000000  0.5898250000000  0.5519080000000 1.0
C      1  0.5330800000000  0.6036850000000  0.4408190000000 1.0
C      1  0.4751590000000  0.4070650000000  0.4457080000000 1.0
C      1  0.5426450000000  0.4316320000000  0.5654550000000 1.0
C      1  0.4288580000000  0.5721220000000  0.5494490000000 1.0
C      1  0.5826730000000  0.5389810000000  0.4416410000000 1.0
C      1  0.4527950000000  0.5679740000000  0.5649620000000 1.0
C      1  0.5360620000000  0.5515620000000  0.4349340000000 1.0
C      1  0.4276180000000  0.4262750000000  0.4280220000000 1.0
C      1  0.5524550000000  0.4320620000000  0.5363520000000 1.0
C      1  0.4288030000000  0.4188870000000  0.4551880000000 1.0
C      1  0.5460690000000  0.5594730000000  0.4612210000000 1.0
C      1  0.4169720000000  0.4537590000000  0.4251920000000 1.0
C      1  0.5690750000000  0.4788040000000  0.5505670000000 1.0
C      1  0.4251640000000  0.5176130000000  0.5549200000000 1.0
C      1  0.4059120000000  0.4601950000000  0.4501360000000 1.0
C      1  0.4508140000000  0.4346510000000  0.4136930000000 1.0
C      1  0.4527970000000  0.4052940000000  0.4637770000000 1.0
C      1  0.6091590000000  0.5344750000000  0.4520350000000 1.0
C      1  0.4010720000000  0.5347870000000  0.5552940000000 1.0
C      1  0.5926990000000  0.4606000000000  0.5492000000000 1.0
C      1  0.5487310000000  0.5548420000000  0.4102350000000 1.0
C      1  0.4653990000000  0.5430560000000  0.5750050000000 1.0
C      1  0.5356230000000  0.4532160000000  0.5843140000000 1.0
C      1  0.5493530000000  0.5923990000000  0.4590850000000 1.0
C      1  0.4412730000000  0.5950270000000  0.5360260000000 1.0
C      1  0.5543840000000  0.4011590000000  0.5392150000000 1.0
C      1  0.4512070000000  0.5850100000000  0.4790530000000 1.0
C      1  0.5716380000000  0.4708320000000  0.4435390000000 1.0
C      1  0.4797840000000  0.4440720000000  0.5992000000000 1.0
C      1  0.5542930000000  0.4092150000000  0.4795150000000 1.0
C      1  0.4482310000000  0.4312900000000  0.5331250000000 1.0
C      1  0.5574100000000  0.5732440000000  0.5213970000000 1.0
C      1  0.4227650000000  0.5311060000000  0.4513690000000 1.0
C      1  0.5822310000000  0.5248280000000  0.5429950000000 1.0
C      1  0.4067720000000  0.4717540000000  0.5543430000000 1.0
C      1  0.5253460000000  0.5540270000000  0.5746730000000 1.0
C      1  0.4762870000000  0.5624350000000  0.4206710000000 1.0
C      1  0.5183810000000  0.4550350000000  0.4135630000000 1.0
C      1  0.5198800000000  0.5143860000000  0.4592800000000 1.0
C      1  0.5166350000000  0.4647280000000  0.5242160000000 1.0
C      1  0.4560420000000  0.5077850000000  0.5146740000000 1.0
C      1  0.4763840000000  0.4966940000000  0.4554020000000 1.0
C      1  0.5130830000000  0.4818100000000  0.5507300000000 1.0
C      1  0.4772420000000  0.5127790000000  0.5349510000000 1.0
C      1  0.4914740000000  0.5401960000000  0.5254190000000 1.0
C      1  0.5084070000000  0.5336320000000  0.4810400000000 1.0
C      1  0.4820230000000  0.4547920000000  0.4734980000000 1.0
C      1  0.5345170000000  0.4823540000000  0.5091120000000 1.0
C      1  0.4630490000000  0.4784100000000  0.4740050000000 1.0
C      1  0.5477000000000  0.5102370000000  0.4647700000000 1.0
C      1  0.4071050000000  0.5488600000000  0.5089110000000 1.0
C      1  0.5578230000000  0.5090380000000  0.4107650000000 1.0
C      1  0.5054630000000  0.4055390000000  0.5534300000000 1.0
C      1  0.5871480000000  0.4505890000000  0.5025830000000 1.0
C      1  0.4090990000000  0.4450860000000  0.4963570000000 1.0
C      1  0.5968260000000  0.5532060000000  0.4933630000000 1.0
C      1  0.4538890000000  0.4879720000000  0.4062640000000 1.0
C      1  0.5500030000000  0.5006790000000  0.5913850000000 1.0
C      1  0.4487370000000  0.5004070000000  0.5930860000000 1.0
C      1  0.4953750000000  0.5919450000000  0.5465880000000 1.0
C      1  0.5075740000000  0.5936360000000  0.4431070000000 1.0
C      1  0.5025830000000  0.4049980000000  0.4533270000000 1.0
C      1  0.4446010000000  0.4376640000000  0.5614970000000 1.0
C      1  0.4300830000000  0.5570320000000  0.4416850000000 1.0
C      1  0.5390390000000  0.4388440000000  0.4284040000000 1.0
C      1  0.5629510000000  0.5727950000000  0.5486910000000 1.0
C      1  0.4293900000000  0.5711460000000  0.4662980000000 1.0
C      1  0.5700730000000  0.4263230000000  0.4627030000000 1.0
C      1  0.5641590000000  0.4426330000000  0.4407600000000 1.0
C      1  0.4271140000000  0.4582080000000  0.5696880000000 1.0
C      1  0.5716180000000  0.5399500000000  0.5658460000000 1.0
C      1  0.4499060000000  0.5641190000000  0.4245180000000 1.0
C      1  0.5531560000000  0.5609160000000  0.5703680000000 1.0
C      1  0.4660910000000  0.4296330000000  0.5780720000000 1.0
C      1  0.4071960000000  0.4954410000000  0.5718590000000 1.0
C      1  0.5122850000000  0.5749680000000  0.3965470000000 1.0
C      1  0.5754900000000  0.4040790000000  0.4987220000000 1.0
C      1  0.5877980000000  0.5016350000000  0.5604870000000 1.0
C      1  0.4166510000000  0.5079280000000  0.4367970000000 1.0
C      1  0.5954580000000  0.4886450000000  0.4385690000000 1.0
C      1  0.5007030000000  0.4318160000000  0.4151870000000 1.0
C      1  0.5019900000000  0.4246630000000  0.5992060000000 1.0
C      1  0.5037310000000  0.5637690000000  0.5913620000000 1.0
C      1  0.4335730000000  0.5925900000000  0.5015700000000 1.0
C      1  0.5640210000000  0.5956680000000  0.5018710000000 1.0
C      1  0.4408780000000  0.4090140000000  0.5129250000000 1.0
C      1  0.5068600000000  0.5850060000000  0.5180900000000 1.0
C      1  0.5808190000000  0.5270350000000  0.4926310000000 1.0
C      1  0.5194580000000  0.5065690000000  0.5901190000000 1.0
C      1  0.4988380000000  0.4184930000000  0.5273870000000 1.0
C      1  0.5085390000000  0.4042320000000  0.4808300000000 1.0
C      1  0.5030110000000  0.5829500000000  0.4721950000000 1.0
C      1  0.4015790000000  0.4717530000000  0.5038250000000 1.0
C      1  0.5809940000000  0.4785990000000  0.4937980000000 1.0
C      1  0.4115340000000  0.5198080000000  0.5002500000000 1.0
C      1  0.4754080000000  0.4953770000000  0.6028000000000 1.0
C      1  0.5278120000000  0.5085850000000  0.4107620000000 1.0
C      1  0.4876540000000  0.5207230000000  0.3992780000000 1.0
C      1  0.4726530000000  0.5240290000000  0.4496940000000 1.0
C      1  0.5086370000000  0.4660090000000  0.4683140000000 1.0
C      1  0.4658310000000  0.4826980000000  0.5029320000000 1.0
C      1  0.5040280000000  0.4889870000000  0.4499950000000 1.0
C      1  0.4853550000000  0.4871500000000  0.5434910000000 1.0
C      1  0.5279370000000  0.5074840000000  0.5465160000000 1.0
C      1  0.4782100000000  0.5384140000000  0.4756910000000 1.0
C      1  0.5168030000000  0.5346650000000  0.5109000000000 1.0
C      1  0.4843170000000  0.4681280000000  0.5211240000000 1.0
C      1  0.5350400000000  0.5130000000000  0.5192280000000 1.0
C      1  0.4566200000000  0.5280300000000  0.4928880000000 1.0
C      1  0.5336590000000  0.4707200000000  0.4820030000000 1.0
C      1  0.4944060000000  0.5166930000000  0.6035290000000 1.0
C      1  0.3987620000000  0.4941770000000  0.4861520000000 1.0
C      1  0.5151690000000  0.5259850000000  0.3908720000000 1.0
C      1  0.4875450000000  0.4067080000000  0.4995070000000 1.0
C      1  0.5967040000000  0.5023830000000  0.4848620000000 1.0
C      1  0.5147670000000  0.6009970000000  0.4933630000000 1.0
END
