TITL C-35333-8799-8 72.8129610596926 125000 -33.2671726180555 0 0 6 (D6h) n - 1
REM
REM in /rds/project/t2_vol4/rds-t2-cs072/BORA/CARBON/from-Arr/AIRSS/Generating-Clusters/GAP-ML-2020/Higher-Symm/SD-CG/HFTN-CG
REM
REM
REM
REM
REM
REM ./C.cell (b20cbc046b6831c77cfcea5457e17084)
REM AIRSS Version 0.9.1 bugfix July 2018 build 013d7b7c2542+ Fri, 06 Jul 2018 19:26:36 +0100
REM compiler GCC version 9.3.0
REM options -cpp -mtune=generic -march=x86-64 -g -O0
REM seed -1862369865 -585690683 -1130519 691319335 1140434997 472661819 -895019958 -1658568040 -415823439 1682952343 1753379930 546863887 -2083668004 426346461 612896280 271071267 -314820611 608947360 265871350 -1221729743 -539262187 -883567111 1064989507 1851905721 82052475 -1719156285 -1497931371 1001361325 2025204300 739916946 -754346961 -1836865498 -1679473356
REM
CELL 1.54180   50.00000   50.00000   50.00000   90.00000   90.00000   90.00000
LATT -1
SFAC C  
C      1  0.5138970000000  0.5048730000000  0.4764110000000 1.0
C      1  0.4861030000000  0.5043130000000  0.5235900000000 1.0
C      1  0.4865230000000  0.5043560000000  0.4761670000000 1.0
C      1  0.5134770000000  0.5048300000000  0.5238330000000 1.0
C      1  0.4726260000000  0.5040770000000  0.4997570000000 1.0
C      1  0.5273740000000  0.5051090000000  0.5002430000000 1.0
END
