TITL C-35344-8920-13 2.97269979339762 125000 -97.3696961259479 0 0 16 (Td) n - 1
REM
REM in /rds/project/t2_vol4/rds-t2-cs072/BORA/CARBON/from-Arr/AIRSS/Generating-Clusters/GAP-ML-2020/Higher-Symm/SD-CG/HFTN-CG
REM
REM
REM
REM
REM
REM ./C.cell (b20cbc046b6831c77cfcea5457e17084)
REM AIRSS Version 0.9.1 bugfix July 2018 build 013d7b7c2542+ Fri, 06 Jul 2018 19:26:36 +0100
REM compiler GCC version 9.3.0
REM options -cpp -mtune=generic -march=x86-64 -g -O0
REM seed 169811961 -1527486804 -2038542045 -785069607 719927991 585307553 1662540851 736940517 -1776844545 -1333385414 124711732 538932552 -733105512 -1518730283 -1605504504 2134497760 -1998727532 -1535103137 -1359424609 -943246926 -1202965714 -1015760222 1773662156 -1318240413 -1862845455 -726314255 -591730775 -762372366 -723464295 1607016290 -1302409400 -1721995733 696836867
REM
CELL 1.54180   50.00000   50.00000   50.00000   90.00000   90.00000   90.00000
LATT -1
SFAC C  
C      1  0.5254010000000  0.5265810000000  0.4923290000000 1.0
C      1  0.5254010000000  0.4931370000000  0.5257730000000 1.0
C      1  0.4919570000000  0.5265810000000  0.5257730000000 1.0
C      1  0.5254010000000  0.4726750000000  0.5053110000000 1.0
C      1  0.4714950000000  0.5265810000000  0.5053110000000 1.0
C      1  0.4714950000000  0.4726750000000  0.4923290000000 1.0
C      1  0.5254010000000  0.5061190000000  0.4718670000000 1.0
C      1  0.4714950000000  0.4931370000000  0.4718670000000 1.0
C      1  0.4714950000000  0.5061180000000  0.5257730000000 1.0
C      1  0.4919570000000  0.4726750000000  0.4718670000000 1.0
C      1  0.5049390000000  0.5265810000000  0.4718670000000 1.0
C      1  0.5049390000000  0.4726750000000  0.5257730000000 1.0
C      1  0.5161330000000  0.4819430000000  0.4811350000000 1.0
C      1  0.4807630000000  0.4819430000000  0.5165050000000 1.0
C      1  0.4807630000000  0.5173130000000  0.4811350000000 1.0
C      1  0.5161330000000  0.5173130000000  0.5165050000000 1.0
END
