TITL C-35350-8724-5 0.0860617141394157 125000 -232.461702024202 0 0 35 (C5v) n - 1
REM
REM in /rds/project/t2_vol4/rds-t2-cs072/BORA/CARBON/from-Arr/AIRSS/Generating-Clusters/GAP-ML-2020/Higher-Symm/SD-CG/HFTN-CG
REM
REM
REM
REM
REM
REM ./C.cell (b20cbc046b6831c77cfcea5457e17084)
REM AIRSS Version 0.9.1 bugfix July 2018 build 013d7b7c2542+ Fri, 06 Jul 2018 19:26:36 +0100
REM compiler GCC version 9.3.0
REM options -cpp -mtune=generic -march=x86-64 -g -O0
REM seed 1439308430 900666530 866386543 -988675028 -521574232 -701062210 533956670 481613390 -1709561733 -1950923690 1670086613 2121734389 -1974071060 928132534 -1803810777 673912687 -2096637012 -259032880 -885673966 1987368829 959969675 -182437461 549569324 2133834406 530827424 1807726039 2015677809 -2064944898 244928481 -1644127581 -2035825532 860162894 814248101
REM
CELL 1.54180   50.00000   50.00000   50.00000   90.00000   90.00000   90.00000
LATT -1
SFAC C  
C      1  0.4479450000000  0.4898550000000  0.5468800000000 1.0
C      1  0.5285000000000  0.4898560000000  0.5639940000000 1.0
C      1  0.5696690000000  0.4898510000000  0.4926710000000 1.0
C      1  0.5145580000000  0.4898470000000  0.4314770000000 1.0
C      1  0.4393290000000  0.4898490000000  0.4649800000000 1.0
C      1  0.5520570000000  0.4898550000000  0.5468780000000 1.0
C      1  0.4715030000000  0.4898560000000  0.5639950000000 1.0
C      1  0.4303310000000  0.4898510000000  0.4926740000000 1.0
C      1  0.4854390000000  0.4898470000000  0.4314770000000 1.0
C      1  0.5606700000000  0.4898490000000  0.4649770000000 1.0
C      1  0.4395240000000  0.5048400000000  0.4425200000000 1.0
C      1  0.4266460000000  0.5048470000000  0.5397530000000 1.0
C      1  0.5151400000000  0.5048500000000  0.5820480000000 1.0
C      1  0.5827110000000  0.5048450000000  0.5109540000000 1.0
C      1  0.5359780000000  0.5048390000000  0.4247220000000 1.0
C      1  0.5604730000000  0.5048400000000  0.4425180000000 1.0
C      1  0.5733560000000  0.5048470000000  0.5397500000000 1.0
C      1  0.4848630000000  0.5048500000000  0.5820480000000 1.0
C      1  0.4172890000000  0.5048450000000  0.5109580000000 1.0
C      1  0.4640190000000  0.5048390000000  0.4247230000000 1.0
C      1  0.4630360000000  0.4735120000000  0.4724570000000 1.0
C      1  0.4623820000000  0.4735150000000  0.5266450000000 1.0
C      1  0.5137140000000  0.4735170000000  0.5440120000000 1.0
C      1  0.5460940000000  0.4735140000000  0.5005580000000 1.0
C      1  0.5147740000000  0.4735110000000  0.4563350000000 1.0
C      1  0.5369630000000  0.4735120000000  0.4724560000000 1.0
C      1  0.5376200000000  0.4735150000000  0.5266430000000 1.0
C      1  0.4862880000000  0.4735170000000  0.5440130000000 1.0
C      1  0.4539060000000  0.4735130000000  0.5005600000000 1.0
C      1  0.4852250000000  0.4735110000000  0.4563360000000 1.0
C      1  0.5511500000000  0.5277910000000  0.4295920000000 1.0
C      1  0.4488460000000  0.5277910000000  0.4295940000000 1.0
C      1  0.4172350000000  0.5277980000000  0.5268920000000 1.0
C      1  0.5000020000000  0.5278020000000  0.5870230000000 1.0
C      1  0.5827660000000  0.5277980000000  0.5268880000000 1.0
END
