TITL C-3524-9303-5 -0.0327518253559939 125000 -654.599878067107 0 0 95 (C1) n - 1
REM
REM in /rds/project/t2_vol4/rds-t2-cs072/BORA/CARBON/from-Arr/AIRSS/Generating-Clusters/GAP-ML-2020/Higher-Symm/SD-CG/HFTN-CG
REM
REM
REM
REM
REM
REM ./C.cell (b20cbc046b6831c77cfcea5457e17084)
REM AIRSS Version 0.9.1 bugfix July 2018 build 013d7b7c2542+ Fri, 06 Jul 2018 19:26:36 +0100
REM compiler GCC version 9.3.0
REM options -cpp -mtune=generic -march=x86-64 -g -O0
REM seed -2067814300 -1745295934 1379088745 516405696 1760267509 2144295127 -961449531 175151763 -1139147148 94623250 429232502 -2136700057 -1531499231 -1818510697 -675853558 1264352394 1869539913 971376526 265339468 -2075097388 -1628686476 1120298099 -1074587104 -165512843 275969922 -1149768309 1224546580 789859210 -1779783656 1861895032 -1598046106 334508908 -45649381
REM
CELL 1.54180   50.00000   50.00000   50.00000   90.00000   90.00000   90.00000
LATT -1
SFAC C  
C      1  0.5198480000000  0.5010670000000  0.5260580000000 1.0
C      1  0.5473400000000  0.5100610000000  0.4772010000000 1.0
C      1  0.4890540000000  0.5345830000000  0.5048510000000 1.0
C      1  0.4868650000000  0.4850230000000  0.4521490000000 1.0
C      1  0.5036900000000  0.5137540000000  0.4560020000000 1.0
C      1  0.4976520000000  0.5137050000000  0.5375750000000 1.0
C      1  0.4658210000000  0.4991060000000  0.5113100000000 1.0
C      1  0.5254550000000  0.5037790000000  0.4957600000000 1.0
C      1  0.4728150000000  0.4761260000000  0.4982370000000 1.0
C      1  0.5268710000000  0.5516250000000  0.4796480000000 1.0
C      1  0.4927550000000  0.4695190000000  0.4781820000000 1.0
C      1  0.5163830000000  0.4753710000000  0.4937300000000 1.0
C      1  0.4610400000000  0.5274290000000  0.5021580000000 1.0
C      1  0.5158610000000  0.4728910000000  0.5227880000000 1.0
C      1  0.5342640000000  0.5059820000000  0.4499190000000 1.0
C      1  0.5553830000000  0.5398730000000  0.4820670000000 1.0
C      1  0.4274810000000  0.4446770000000  0.5081960000000 1.0
C      1  0.5610500000000  0.4449360000000  0.5004570000000 1.0
C      1  0.4903600000000  0.4423060000000  0.4608370000000 1.0
C      1  0.4956540000000  0.5434160000000  0.4420280000000 1.0
C      1  0.4979570000000  0.5422710000000  0.5326540000000 1.0
C      1  0.4711250000000  0.5005810000000  0.5416440000000 1.0
C      1  0.5492410000000  0.4975110000000  0.5681500000000 1.0
C      1  0.4414360000000  0.5001710000000  0.4411870000000 1.0
C      1  0.4911140000000  0.4349690000000  0.5479960000000 1.0
C      1  0.5682840000000  0.4719150000000  0.4539570000000 1.0
C      1  0.4519490000000  0.5433650000000  0.4762310000000 1.0
C      1  0.5157600000000  0.4369980000000  0.4484220000000 1.0
C      1  0.4661980000000  0.5408380000000  0.4493750000000 1.0
C      1  0.5255310000000  0.5462520000000  0.5707080000000 1.0
C      1  0.4343120000000  0.4730200000000  0.5513380000000 1.0
C      1  0.5381500000000  0.5206090000000  0.5811060000000 1.0
C      1  0.4572600000000  0.5216370000000  0.4304360000000 1.0
C      1  0.5628960000000  0.5438340000000  0.5115260000000 1.0
C      1  0.4177400000000  0.4560770000000  0.5329340000000 1.0
C      1  0.5747100000000  0.4613920000000  0.4806850000000 1.0
C      1  0.5755370000000  0.5209460000000  0.5247660000000 1.0
C      1  0.5238890000000  0.5543840000000  0.5436580000000 1.0
C      1  0.5158210000000  0.5154480000000  0.5969280000000 1.0
C      1  0.4238930000000  0.5294210000000  0.4762340000000 1.0
C      1  0.5906980000000  0.4852430000000  0.4856150000000 1.0
C      1  0.3953200000000  0.4733310000000  0.5354700000000 1.0
C      1  0.4840140000000  0.5828180000000  0.4788410000000 1.0
C      1  0.5329290000000  0.4247980000000  0.4657470000000 1.0
C      1  0.4737040000000  0.4232060000000  0.5290510000000 1.0
C      1  0.4766020000000  0.5172030000000  0.4107160000000 1.0
C      1  0.5436560000000  0.4777440000000  0.4415660000000 1.0
C      1  0.4622490000000  0.4747640000000  0.5551990000000 1.0
C      1  0.4390370000000  0.5361680000000  0.5252930000000 1.0
C      1  0.5179450000000  0.4324130000000  0.5381730000000 1.0
C      1  0.5393750000000  0.5230090000000  0.4259560000000 1.0
C      1  0.5690910000000  0.5437570000000  0.4546960000000 1.0
C      1  0.4258140000000  0.4608190000000  0.4836250000000 1.0
C      1  0.5608210000000  0.4559910000000  0.5268610000000 1.0
C      1  0.4642700000000  0.4334440000000  0.4653770000000 1.0
C      1  0.5214460000000  0.5566160000000  0.4516050000000 1.0
C      1  0.4751850000000  0.5608130000000  0.5387180000000 1.0
C      1  0.4603440000000  0.5216750000000  0.5615320000000 1.0
C      1  0.5324630000000  0.4731590000000  0.5669340000000 1.0
C      1  0.4567130000000  0.4781510000000  0.4484970000000 1.0
C      1  0.5853720000000  0.4966410000000  0.4585470000000 1.0
C      1  0.4607630000000  0.5708520000000  0.4887860000000 1.0
C      1  0.4843600000000  0.4579470000000  0.5633820000000 1.0
C      1  0.4145940000000  0.4944870000000  0.5430780000000 1.0
C      1  0.5682820000000  0.5016760000000  0.5473380000000 1.0
C      1  0.4220930000000  0.5056810000000  0.4603260000000 1.0
C      1  0.5418680000000  0.5612870000000  0.5227150000000 1.0
C      1  0.4495170000000  0.4267270000000  0.5116510000000 1.0
C      1  0.5389440000000  0.4266770000000  0.4924860000000 1.0
C      1  0.5233170000000  0.4607470000000  0.4327860000000 1.0
C      1  0.4965760000000  0.5379580000000  0.4132090000000 1.0
C      1  0.5010190000000  0.5391060000000  0.5858890000000 1.0
C      1  0.5006140000000  0.4770670000000  0.4262720000000 1.0
C      1  0.4145610000000  0.4876050000000  0.4821120000000 1.0
C      1  0.4657390000000  0.4187020000000  0.4894850000000 1.0
C      1  0.5048370000000  0.4738690000000  0.5758910000000 1.0
C      1  0.4782270000000  0.5211040000000  0.5829670000000 1.0
C      1  0.5182310000000  0.5202110000000  0.4074330000000 1.0
C      1  0.5758350000000  0.4795660000000  0.5307430000000 1.0
C      1  0.4180650000000  0.5173070000000  0.5253880000000 1.0
C      1  0.5852210000000  0.5216860000000  0.4491040000000 1.0
C      1  0.5178720000000  0.4208890000000  0.5119670000000 1.0
C      1  0.4729430000000  0.5774310000000  0.5158050000000 1.0
C      1  0.5240780000000  0.5715910000000  0.5014570000000 1.0
C      1  0.4131550000000  0.5122910000000  0.4980250000000 1.0
C      1  0.4901050000000  0.4147530000000  0.5066040000000 1.0
C      1  0.4985940000000  0.4980640000000  0.4078960000000 1.0
C      1  0.5855580000000  0.4975240000000  0.5099140000000 1.0
C      1  0.4989620000000  0.5841200000000  0.5030730000000 1.0
C      1  0.4956300000000  0.4974550000000  0.5893320000000 1.0
C      1  0.5356700000000  0.4557570000000  0.5425510000000 1.0
C      1  0.5455220000000  0.5490640000000  0.4374940000000 1.0
C      1  0.4533450000000  0.5451970000000  0.5473760000000 1.0
C      1  0.4453770000000  0.4556730000000  0.4628770000000 1.0
C      1  0.5076990000000  0.5249870000000  0.4845110000000 1.0
END
