TITL C-35899-4262-1 0.0195900510933034 125000 -1429.18817976184 0 0 197 (C1) n - 1
REM
REM in /rds/project/t2_vol4/rds-t2-cs072/BORA/CARBON/from-Arr/AIRSS/Generating-Clusters/GAP-ML-2020/Higher-Symm/SD-CG/HFTN-CG/C160-200
REM
REM
REM
REM
REM
REM ./C.cell (6b4489405718ea1b717e0baf1da4c2d9)
REM AIRSS Version 0.9.1 bugfix July 2018 build 013d7b7c2542+ Fri, 06 Jul 2018 19:26:36 +0100
REM compiler GCC version 9.3.0
REM options -cpp -mtune=generic -march=x86-64 -g -O0
REM seed -1316129679 560891418 142526237 -1619134849 311315018 -517293784 -532093274 -1097456854 -2036740575 -162540859 -847125230 1352968564 -194636824 639888190 1370178445 923927199 -870483242 1288588157 -71447522 42044773 1620296542 635260723 -1681250284 495780576 -1998803256 -464409492 -788485754 -2146834131 1507478211 42439127 285654631 980092234 -2122185462
REM
CELL 1.54180   50.00000   50.00000   50.00000   90.00000   90.00000   90.00000
LATT -1
SFAC C  
C      1  0.6138780000000  0.5099590000000  0.4681510000000 1.0
C      1  0.4124600000000  0.5108660000000  0.4181250000000 1.0
C      1  0.4770380000000  0.5102820000000  0.6154930000000 1.0
C      1  0.5832460000000  0.4731000000000  0.5333550000000 1.0
C      1  0.4831730000000  0.4726910000000  0.4102890000000 1.0
C      1  0.4330560000000  0.4722310000000  0.5585610000000 1.0
C      1  0.4189910000000  0.5506360000000  0.5520040000000 1.0
C      1  0.5837800000000  0.5520940000000  0.5459390000000 1.0
C      1  0.4963710000000  0.5512150000000  0.4039620000000 1.0
C      1  0.4627860000000  0.5776050000000  0.5318860000000 1.0
C      1  0.5452970000000  0.5783680000000  0.5159890000000 1.0
C      1  0.4903510000000  0.5778740000000  0.4517790000000 1.0
C      1  0.4838310000000  0.5326600000000  0.4467640000000 1.0
C      1  0.4620260000000  0.5325000000000  0.5394160000000 1.0
C      1  0.5531070000000  0.5341420000000  0.5120290000000 1.0
C      1  0.5071920000000  0.5317680000000  0.5538170000000 1.0
C      1  0.5423520000000  0.5309880000000  0.4660110000000 1.0
C      1  0.4489030000000  0.5305740000000  0.4789510000000 1.0
C      1  0.4798800000000  0.5600480000000  0.4274110000000 1.0
C      1  0.4473790000000  0.5595430000000  0.5534690000000 1.0
C      1  0.5716400000000  0.5605400000000  0.5195750000000 1.0
C      1  0.5709620000000  0.5146420000000  0.5891850000000 1.0
C      1  0.5376830000000  0.5118470000000  0.3926560000000 1.0
C      1  0.3880390000000  0.5120090000000  0.5230970000000 1.0
C      1  0.4442700000000  0.5851690000000  0.4478160000000 1.0
C      1  0.4814810000000  0.5860450000000  0.5740950000000 1.0
C      1  0.5728900000000  0.5854740000000  0.4788590000000 1.0
C      1  0.5702730000000  0.4284450000000  0.4475020000000 1.0
C      1  0.4149140000000  0.4298700000000  0.4664160000000 1.0
C      1  0.5151190000000  0.4274480000000  0.5847520000000 1.0
C      1  0.4770100000000  0.5515870000000  0.5198760000000 1.0
C      1  0.5281500000000  0.5522770000000  0.5084060000000 1.0
C      1  0.4927920000000  0.5516540000000  0.4698220000000 1.0
C      1  0.4552070000000  0.5260420000000  0.6038450000000 1.0
C      1  0.6130860000000  0.5267000000000  0.4917620000000 1.0
C      1  0.4334860000000  0.5271050000000  0.4067190000000 1.0
C      1  0.5974790000000  0.5261580000000  0.5450300000000 1.0
C      1  0.4870630000000  0.5254470000000  0.3925500000000 1.0
C      1  0.4147610000000  0.5246660000000  0.5659160000000 1.0
C      1  0.5055240000000  0.5423750000000  0.5260400000000 1.0
C      1  0.5195640000000  0.5423840000000  0.4804810000000 1.0
C      1  0.4727860000000  0.5420900000000  0.4912820000000 1.0
C      1  0.5330210000000  0.3980950000000  0.4649660000000 1.0
C      1  0.4533540000000  0.4013070000000  0.4897460000000 1.0
C      1  0.5142500000000  0.3978120000000  0.5444110000000 1.0
C      1  0.4822370000000  0.4876810000000  0.5470120000000 1.0
C      1  0.5515200000000  0.4893380000000  0.4918280000000 1.0
C      1  0.4659700000000  0.4882600000000  0.4586910000000 1.0
C      1  0.5337740000000  0.5152430000000  0.4435670000000 1.0
C      1  0.4333440000000  0.5160270000000  0.4981880000000 1.0
C      1  0.5313610000000  0.5165530000000  0.5563020000000 1.0
C      1  0.5273350000000  0.6019290000000  0.4717570000000 1.0
C      1  0.4612260000000  0.6015730000000  0.4901210000000 1.0
C      1  0.5096650000000  0.6022800000000  0.5378800000000 1.0
C      1  0.4822290000000  0.5165870000000  0.5563780000000 1.0
C      1  0.5581610000000  0.5179790000000  0.4864980000000 1.0
C      1  0.4588920000000  0.5170760000000  0.4551060000000 1.0
C      1  0.4780880000000  0.3900280000000  0.4804490000000 1.0
C      1  0.4944050000000  0.3871080000000  0.5269910000000 1.0
C      1  0.5264610000000  0.3868640000000  0.4904900000000 1.0
C      1  0.5897520000000  0.5081810000000  0.5678430000000 1.0
C      1  0.5097100000000  0.5068810000000  0.3868510000000 1.0
C      1  0.3982210000000  0.5062000000000  0.5496780000000 1.0
C      1  0.4678480000000  0.4437360000000  0.5938560000000 1.0
C      1  0.5980110000000  0.4435950000000  0.4893600000000 1.0
C      1  0.4345800000000  0.4436200000000  0.4187570000000 1.0
C      1  0.5669830000000  0.4089440000000  0.4947470000000 1.0
C      1  0.4621910000000  0.4163390000000  0.4453150000000 1.0
C      1  0.4735130000000  0.4081940000000  0.5626360000000 1.0
C      1  0.5244330000000  0.4669080000000  0.5608790000000 1.0
C      1  0.5437280000000  0.4667980000000  0.4480010000000 1.0
C      1  0.4311910000000  0.4680270000000  0.4874450000000 1.0
C      1  0.5392710000000  0.4440920000000  0.5752940000000 1.0
C      1  0.5541900000000  0.4460600000000  0.4303100000000 1.0
C      1  0.4093650000000  0.4480590000000  0.4880900000000 1.0
C      1  0.4045820000000  0.4704900000000  0.4394220000000 1.0
C      1  0.5017570000000  0.4705410000000  0.6093260000000 1.0
C      1  0.5977490000000  0.4696110000000  0.4520760000000 1.0
C      1  0.5108860000000  0.4127680000000  0.4551720000000 1.0
C      1  0.4570970000000  0.4130350000000  0.5152870000000 1.0
C      1  0.5336640000000  0.4125760000000  0.5298840000000 1.0
C      1  0.5205720000000  0.4926130000000  0.6066410000000 1.0
C      1  0.5850100000000  0.4899600000000  0.4370130000000 1.0
C      1  0.4001400000000  0.4909840000000  0.4585340000000 1.0
C      1  0.4583640000000  0.4284220000000  0.4194510000000 1.0
C      1  0.4558810000000  0.4275560000000  0.5739490000000 1.0
C      1  0.5830870000000  0.4285590000000  0.5084960000000 1.0
C      1  0.4045900000000  0.4784890000000  0.5515600000000 1.0
C      1  0.5892890000000  0.4804030000000  0.5617490000000 1.0
C      1  0.5048640000000  0.4792380000000  0.3908340000000 1.0
C      1  0.5227270000000  0.4561130000000  0.3914780000000 1.0
C      1  0.3957730000000  0.4555710000000  0.5361740000000 1.0
C      1  0.5795390000000  0.4592340000000  0.5775750000000 1.0
C      1  0.5052980000000  0.4354860000000  0.3980830000000 1.0
C      1  0.4117550000000  0.4348400000000  0.5458450000000 1.0
C      1  0.5678660000000  0.4384220000000  0.5607290000000 1.0
C      1  0.4943530000000  0.4448870000000  0.5294580000000 1.0
C      1  0.5316730000000  0.4446660000000  0.4904300000000 1.0
C      1  0.4613700000000  0.4405150000000  0.4636760000000 1.0
C      1  0.5682290000000  0.5600480000000  0.5681540000000 1.0
C      1  0.5239760000000  0.5577830000000  0.4071340000000 1.0
C      1  0.4073400000000  0.5576830000000  0.5269430000000 1.0
C      1  0.5505720000000  0.4884220000000  0.4054280000000 1.0
C      1  0.3919940000000  0.4891350000000  0.5054340000000 1.0
C      1  0.5500120000000  0.4913980000000  0.5957850000000 1.0
C      1  0.4193400000000  0.5776380000000  0.5091020000000 1.0
C      1  0.5468480000000  0.5798860000000  0.5656200000000 1.0
C      1  0.5330430000000  0.5775660000000  0.4266910000000 1.0
C      1  0.4839210000000  0.5935610000000  0.5476040000000 1.0
C      1  0.5486880000000  0.5936280000000  0.4894550000000 1.0
C      1  0.4659480000000  0.5932190000000  0.4628170000000 1.0
C      1  0.4133880000000  0.4831640000000  0.4158980000000 1.0
C      1  0.4763900000000  0.4825330000000  0.6142070000000 1.0
C      1  0.6141280000000  0.4822180000000  0.4710950000000 1.0
C      1  0.5613430000000  0.5731630000000  0.4294060000000 1.0
C      1  0.4072280000000  0.5734370000000  0.4834590000000 1.0
C      1  0.5306250000000  0.5767510000000  0.5891730000000 1.0
C      1  0.4922110000000  0.5597370000000  0.6093310000000 1.0
C      1  0.5980410000000  0.5575240000000  0.4537590000000 1.0
C      1  0.4092040000000  0.5581150000000  0.4394950000000 1.0
C      1  0.5104360000000  0.5138390000000  0.4869610000000 1.0
C      1  0.4830400000000  0.5132960000000  0.4952480000000 1.0
C      1  0.5041610000000  0.5139940000000  0.5145320000000 1.0
C      1  0.5538730000000  0.4864240000000  0.5230540000000 1.0
C      1  0.4924580000000  0.4839310000000  0.4406830000000 1.0
C      1  0.4529100000000  0.4845270000000  0.5341040000000 1.0
C      1  0.4551370000000  0.4692180000000  0.5076050000000 1.0
C      1  0.5300020000000  0.4710830000000  0.5317820000000 1.0
C      1  0.5140390000000  0.4693550000000  0.4565190000000 1.0
C      1  0.5094380000000  0.4418120000000  0.4706360000000 1.0
C      1  0.4716020000000  0.4426560000000  0.5106710000000 1.0
C      1  0.5234040000000  0.4427220000000  0.5193020000000 1.0
C      1  0.4181000000000  0.5782560000000  0.4571110000000 1.0
C      1  0.5022710000000  0.5805720000000  0.5929580000000 1.0
C      1  0.5786170000000  0.5779900000000  0.4519330000000 1.0
C      1  0.5624620000000  0.5421680000000  0.5909340000000 1.0
C      1  0.5459360000000  0.5385950000000  0.4015400000000 1.0
C      1  0.3912010000000  0.5387990000000  0.5111810000000 1.0
C      1  0.5524390000000  0.4634570000000  0.4788010000000 1.0
C      1  0.4476360000000  0.4658010000000  0.4611610000000 1.0
C      1  0.4937430000000  0.4614380000000  0.5544400000000 1.0
C      1  0.4334700000000  0.4409610000000  0.5610120000000 1.0
C      1  0.5785420000000  0.4424070000000  0.5339180000000 1.0
C      1  0.4806670000000  0.4419170000000  0.4072510000000 1.0
C      1  0.4833780000000  0.6160630000000  0.4982480000000 1.0
C      1  0.5060490000000  0.6164690000000  0.5143090000000 1.0
C      1  0.5087230000000  0.6161940000000  0.4866390000000 1.0
C      1  0.5569800000000  0.4629560000000  0.5933380000000 1.0
C      1  0.5476650000000  0.4593840000000  0.4039550000000 1.0
C      1  0.3921430000000  0.4601390000000  0.5087020000000 1.0
C      1  0.4965320000000  0.4443710000000  0.5991470000000 1.0
C      1  0.5914870000000  0.4434700000000  0.4608700000000 1.0
C      1  0.4147420000000  0.4439920000000  0.4404020000000 1.0
C      1  0.5218240000000  0.4887770000000  0.4801460000000 1.0
C      1  0.4718180000000  0.4874520000000  0.4885280000000 1.0
C      1  0.5054480000000  0.4891330000000  0.5272770000000 1.0
C      1  0.4590490000000  0.5143700000000  0.3970050000000 1.0
C      1  0.4337980000000  0.5133350000000  0.5869630000000 1.0
C      1  0.6082530000000  0.5143000000000  0.5189540000000 1.0
C      1  0.5302020000000  0.4928390000000  0.5738340000000 1.0
C      1  0.5540960000000  0.4922390000000  0.4342320000000 1.0
C      1  0.4141490000000  0.4933970000000  0.4867560000000 1.0
C      1  0.4352640000000  0.4696230000000  0.4057510000000 1.0
C      1  0.4561330000000  0.4691170000000  0.6005200000000 1.0
C      1  0.6105690000000  0.4688310000000  0.4953540000000 1.0
C      1  0.5879210000000  0.5693260000000  0.4969070000000 1.0
C      1  0.4519150000000  0.5688910000000  0.4256770000000 1.0
C      1  0.4593430000000  0.5687120000000  0.5785480000000 1.0
C      1  0.5452700000000  0.3975600000000  0.5086280000000 1.0
C      1  0.4847540000000  0.4006150000000  0.4551010000000 1.0
C      1  0.4699100000000  0.3980030000000  0.5360310000000 1.0
C      1  0.3974250000000  0.5147990000000  0.4431900000000 1.0
C      1  0.5055350000000  0.5157490000000  0.6166890000000 1.0
C      1  0.6001100000000  0.5137120000000  0.4422820000000 1.0
C      1  0.4297700000000  0.5524830000000  0.4192320000000 1.0
C      1  0.4653910000000  0.5523940000000  0.6010890000000 1.0
C      1  0.6046230000000  0.5521710000000  0.4818150000000 1.0
C      1  0.6051660000000  0.4854620000000  0.5172830000000 1.0
C      1  0.4581800000000  0.4858080000000  0.4007690000000 1.0
C      1  0.4383860000000  0.4849460000000  0.5848490000000 1.0
C      1  0.5387930000000  0.5535250000000  0.6037520000000 1.0
C      1  0.5692680000000  0.5488940000000  0.4164070000000 1.0
C      1  0.3918020000000  0.5493050000000  0.4834050000000 1.0
C      1  0.5046040000000  0.5115650000000  0.4399120000000 1.0
C      1  0.4455670000000  0.5119800000000  0.5247990000000 1.0
C      1  0.5482310000000  0.5137710000000  0.5332390000000 1.0
C      1  0.4451590000000  0.5897920000000  0.5112040000000 1.0
C      1  0.5359620000000  0.5908250000000  0.5415420000000 1.0
C      1  0.5174650000000  0.5899210000000  0.4473300000000 1.0
C      1  0.5142270000000  0.5424170000000  0.6155560000000 1.0
C      1  0.5923780000000  0.5389060000000  0.4325490000000 1.0
C      1  0.3934460000000  0.5398310000000  0.4551410000000 1.0
C      1  0.4410130000000  0.4168650000000  0.4685540000000 1.0
C      1  0.5021390000000  0.4081090000000  0.5682900000000 1.0
C      1  0.5594260000000  0.4096230000000  0.4660860000000 1.0
C      1  0.4825270000000  0.4408960000000  0.4827990000000 1.0
C      1  0.4993320000000  0.3843310000000  0.4990560000000 1.0
END
