TITL C-3510-9349-4 247.848285592225 125000 -561.299333968138 0 0 78 (C1) n - 1
REM
REM in /rds/project/t2_vol4/rds-t2-cs072/BORA/CARBON/from-Arr/AIRSS/Generating-Clusters/GAP-ML-2020/Higher-Symm/SD-CG/HFTN-CG
REM
REM
REM
REM
REM
REM ./C.cell (b20cbc046b6831c77cfcea5457e17084)
REM AIRSS Version 0.9.1 bugfix July 2018 build 013d7b7c2542+ Fri, 06 Jul 2018 19:26:36 +0100
REM compiler GCC version 9.3.0
REM options -cpp -mtune=generic -march=x86-64 -g -O0
REM seed 761770908 -1370628982 306887976 -1722685325 1926641739 -1558627069 917834216 -678506832 1377716128 625391952 -2115144876 -1296354455 2031228488 -1684160308 -786434999 -168151237 -202529161 -1488218829 -160786307 250270985 1974653234 397935674 -242785352 1633269925 -2003465371 -499476016 232168102 1161560807 -1143488931 914952503 47117596 -1528409363 -1576070324
REM
CELL 1.54180   50.00000   50.00000   50.00000   90.00000   90.00000   90.00000
LATT -1
SFAC C  
C      1  0.4989140000000  0.4456500000000  0.4350130000000 1.0
C      1  0.4984140000000  0.4194300000000  0.5413590000000 1.0
C      1  0.5040600000000  0.5159960000000  0.5878140000000 1.0
C      1  0.4985680000000  0.5932400000000  0.5111210000000 1.0
C      1  0.5005110000000  0.5316530000000  0.4229160000000 1.0
C      1  0.4996720000000  0.4344250000000  0.5636350000000 1.0
C      1  0.4978260000000  0.4283340000000  0.4562760000000 1.0
C      1  0.5006700000000  0.5048810000000  0.4168210000000 1.0
C      1  0.4980220000000  0.5922000000000  0.4839430000000 1.0
C      1  0.5039870000000  0.5412840000000  0.5789390000000 1.0
C      1  0.4432170000000  0.4862220000000  0.4554700000000 1.0
C      1  0.4464640000000  0.4529510000000  0.5014070000000 1.0
C      1  0.4495090000000  0.4865150000000  0.5475600000000 1.0
C      1  0.4497090000000  0.5406770000000  0.5293360000000 1.0
C      1  0.4472370000000  0.5398990000000  0.4719940000000 1.0
C      1  0.5532420000000  0.4815280000000  0.5446250000000 1.0
C      1  0.5530280000000  0.4458910000000  0.4994930000000 1.0
C      1  0.5565290000000  0.4812590000000  0.4541480000000 1.0
C      1  0.5501080000000  0.5428440000000  0.4742440000000 1.0
C      1  0.5499660000000  0.5434410000000  0.5217520000000 1.0
C      1  0.4778130000000  0.4907500000000  0.4256070000000 1.0
C      1  0.4783780000000  0.4269750000000  0.4763910000000 1.0
C      1  0.4807480000000  0.4554480000000  0.5667130000000 1.0
C      1  0.4825170000000  0.5511600000000  0.5630080000000 1.0
C      1  0.4788690000000  0.5757930000000  0.4709630000000 1.0
C      1  0.5235410000000  0.4982530000000  0.5774440000000 1.0
C      1  0.5181550000000  0.4210810000000  0.5213050000000 1.0
C      1  0.5256260000000  0.4550890000000  0.4296980000000 1.0
C      1  0.5206040000000  0.5451890000000  0.4375020000000 1.0
C      1  0.5201250000000  0.5814140000000  0.5260390000000 1.0
C      1  0.4782490000000  0.4235440000000  0.5219480000000 1.0
C      1  0.4829010000000  0.4982700000000  0.5806420000000 1.0
C      1  0.4802350000000  0.5770810000000  0.5257670000000 1.0
C      1  0.4803480000000  0.5462090000000  0.4362980000000 1.0
C      1  0.4769810000000  0.4634960000000  0.4344520000000 1.0
C      1  0.5179200000000  0.4230750000000  0.4754580000000 1.0
C      1  0.5270500000000  0.4932670000000  0.4192460000000 1.0
C      1  0.5190390000000  0.5796930000000  0.4688810000000 1.0
C      1  0.5224970000000  0.5489050000000  0.5589390000000 1.0
C      1  0.5213050000000  0.4526770000000  0.5667520000000 1.0
C      1  0.4592040000000  0.4439240000000  0.5248060000000 1.0
C      1  0.4623530000000  0.5065750000000  0.5628780000000 1.0
C      1  0.4598550000000  0.5622130000000  0.5138580000000 1.0
C      1  0.4584230000000  0.5320540000000  0.4468610000000 1.0
C      1  0.4558520000000  0.4610870000000  0.4537410000000 1.0
C      1  0.5406160000000  0.4392200000000  0.4748530000000 1.0
C      1  0.5443330000000  0.5032960000000  0.4402040000000 1.0
C      1  0.5402650000000  0.5681560000000  0.4827090000000 1.0
C      1  0.5413390000000  0.5319020000000  0.5465890000000 1.0
C      1  0.5408980000000  0.4558300000000  0.5467520000000 1.0
C      1  0.5503920000000  0.5016630000000  0.4988150000000 1.0
C      1  0.5667990000000  0.4857330000000  0.4790550000000 1.0
C      1  0.5714490000000  0.4670720000000  0.4998350000000 1.0
C      1  0.5651830000000  0.4857530000000  0.5203730000000 1.0
C      1  0.5213640000000  0.4931970000000  0.4974740000000 1.0
C      1  0.4352970000000  0.5210830000000  0.5158710000000 1.0
C      1  0.4349680000000  0.4942230000000  0.5250190000000 1.0
C      1  0.4333350000000  0.4774330000000  0.5021970000000 1.0
C      1  0.4969150000000  0.5000240000000  0.4867090000000 1.0
C      1  0.4339760000000  0.5209140000000  0.4874990000000 1.0
C      1  0.4568030000000  0.5049840000000  0.4391050000000 1.0
C      1  0.4567060000000  0.4442100000000  0.4763690000000 1.0
C      1  0.4604470000000  0.4604160000000  0.5479400000000 1.0
C      1  0.4621240000000  0.5337250000000  0.5539820000000 1.0
C      1  0.4590810000000  0.5617460000000  0.4851870000000 1.0
C      1  0.5420240000000  0.5047520000000  0.5571670000000 1.0
C      1  0.5396240000000  0.4389470000000  0.5234460000000 1.0
C      1  0.5436320000000  0.4559430000000  0.4519100000000 1.0
C      1  0.5415690000000  0.5304320000000  0.4498510000000 1.0
C      1  0.5405330000000  0.5686170000000  0.5121420000000 1.0
C      1  0.4976240000000  0.4201580000000  0.4985480000000 1.0
C      1  0.5324820000000  0.4691560000000  0.4070600000000 1.0
C      1  0.5013760000000  0.5659120000000  0.5443070000000 1.0
C      1  0.5000370000000  0.5636980000000  0.4516110000000 1.0
C      1  0.5025490000000  0.4753050000000  0.5755060000000 1.0
C      1  0.5564290000000  0.5290910000000  0.4983170000000 1.0
C      1  0.4318130000000  0.4940140000000  0.4793360000000 1.0
C      1  0.4977680000000  0.4931920000000  0.5122930000000 1.0
END
