TITL C-3532-9246-3 0.0483985649505867 125000 -411.355043448106 0 0 60 (C1) n - 1
REM
REM in /rds/project/t2_vol4/rds-t2-cs072/BORA/CARBON/from-Arr/AIRSS/Generating-Clusters/GAP-ML-2020/Higher-Symm/SD-CG/HFTN-CG
REM
REM
REM
REM
REM
REM ./C.cell (b20cbc046b6831c77cfcea5457e17084)
REM AIRSS Version 0.9.1 bugfix July 2018 build 013d7b7c2542+ Fri, 06 Jul 2018 19:26:36 +0100
REM compiler GCC version 9.3.0
REM options -cpp -mtune=generic -march=x86-64 -g -O0
REM seed 1065819361 1597734475 -2052356551 717962414 862417420 -243288548 -1388996482 -1107846544 1656826452 -1148490341 -136903609 367820698 -39785313 -420189193 142954996 -292202943 747323264 1427644998 -1355191341 1704010455 -306315208 -357420757 -781089244 1292617417 -1579672716 404066615 869962781 -93723773 -63473567 1983868877 23800452 -1379598752 -160172225
REM
CELL 1.54180   50.00000   50.00000   50.00000   90.00000   90.00000   90.00000
LATT -1
SFAC C  
C      1  0.5286410000000  0.4429970000000  0.5190440000000 1.0
C      1  0.5013920000000  0.4437030000000  0.5253370000000 1.0
C      1  0.4788140000000  0.4342920000000  0.5111360000000 1.0
C      1  0.4833530000000  0.4327360000000  0.4833290000000 1.0
C      1  0.5097830000000  0.4398300000000  0.4753940000000 1.0
C      1  0.5335300000000  0.4421950000000  0.4909140000000 1.0
C      1  0.5211790000000  0.5674500000000  0.5213240000000 1.0
C      1  0.4928300000000  0.5630330000000  0.5272990000000 1.0
C      1  0.4675830000000  0.5620490000000  0.5153950000000 1.0
C      1  0.4796420000000  0.5627140000000  0.4907730000000 1.0
C      1  0.5045360000000  0.5687420000000  0.4774100000000 1.0
C      1  0.5276200000000  0.5691650000000  0.4938020000000 1.0
C      1  0.4288210000000  0.4950570000000  0.5021330000000 1.0
C      1  0.4591970000000  0.4886280000000  0.4368800000000 1.0
C      1  0.5305770000000  0.4783540000000  0.4370040000000 1.0
C      1  0.5705420000000  0.4743930000000  0.4970460000000 1.0
C      1  0.5344060000000  0.4749750000000  0.5586930000000 1.0
C      1  0.4625510000000  0.4906470000000  0.5646460000000 1.0
C      1  0.4340680000000  0.5238280000000  0.5020190000000 1.0
C      1  0.4642330000000  0.5172240000000  0.4388110000000 1.0
C      1  0.5344740000000  0.5075560000000  0.4374590000000 1.0
C      1  0.5714830000000  0.5038710000000  0.4973400000000 1.0
C      1  0.5389400000000  0.5040580000000  0.5604040000000 1.0
C      1  0.4689270000000  0.5191880000000  0.5636270000000 1.0
C      1  0.4836200000000  0.4740010000000  0.5558240000000 1.0
C      1  0.4405040000000  0.4781720000000  0.5209970000000 1.0
C      1  0.4493230000000  0.4752930000000  0.4601250000000 1.0
C      1  0.5038400000000  0.4700860000000  0.4398510000000 1.0
C      1  0.5545380000000  0.4596630000000  0.4793600000000 1.0
C      1  0.5446100000000  0.4603990000000  0.5368740000000 1.0
C      1  0.4955820000000  0.5261370000000  0.5584000000000 1.0
C      1  0.4543250000000  0.5343290000000  0.5191430000000 1.0
C      1  0.4615590000000  0.5291800000000  0.4637490000000 1.0
C      1  0.5133500000000  0.5254860000000  0.4421110000000 1.0
C      1  0.5570240000000  0.5198570000000  0.4797940000000 1.0
C      1  0.5480130000000  0.5193970000000  0.5384070000000 1.0
C      1  0.4840880000000  0.5209030000000  0.5098380000000 1.0
C      1  0.4839370000000  0.5341770000000  0.4826760000000 1.0
C      1  0.5106430000000  0.5389690000000  0.4693110000000 1.0
C      1  0.5348400000000  0.5377900000000  0.4897350000000 1.0
C      1  0.5298130000000  0.5372140000000  0.5219870000000 1.0
C      1  0.5007300000000  0.5346960000000  0.5305190000000 1.0
C      1  0.4629650000000  0.4612220000000  0.5100960000000 1.0
C      1  0.4682570000000  0.4600910000000  0.4779010000000 1.0
C      1  0.4979690000000  0.4671610000000  0.4689610000000 1.0
C      1  0.5123950000000  0.4864430000000  0.4862510000000 1.0
C      1  0.4983270000000  0.4944210000000  0.5081840000000 1.0
C      1  0.4879080000000  0.4712550000000  0.5262710000000 1.0
C      1  0.5550670000000  0.5044240000000  0.4564840000000 1.0
C      1  0.5666820000000  0.5036790000000  0.5254020000000 1.0
C      1  0.5129410000000  0.5080370000000  0.5715630000000 1.0
C      1  0.4478960000000  0.5224650000000  0.5443250000000 1.0
C      1  0.4368580000000  0.5218950000000  0.4738340000000 1.0
C      1  0.4908490000000  0.5147570000000  0.4291520000000 1.0
C      1  0.5510050000000  0.4749430000000  0.4564790000000 1.0
C      1  0.5658910000000  0.4744580000000  0.5251970000000 1.0
C      1  0.5078470000000  0.4792460000000  0.5693650000000 1.0
C      1  0.4420050000000  0.4938280000000  0.5446890000000 1.0
C      1  0.4319660000000  0.4931030000000  0.4740110000000 1.0
C      1  0.4857120000000  0.4861400000000  0.4259130000000 1.0
END
