TITL C-35329-8802-2 -4.29211473728133 125000 -987.924535690393 0 0 141 (C1) n - 1
REM
REM in /rds/project/t2_vol4/rds-t2-cs072/BORA/CARBON/from-Arr/AIRSS/Generating-Clusters/GAP-ML-2020/Higher-Symm/SD-CG/HFTN-CG
REM
REM
REM
REM
REM
REM ./C.cell (b20cbc046b6831c77cfcea5457e17084)
REM AIRSS Version 0.9.1 bugfix July 2018 build 013d7b7c2542+ Fri, 06 Jul 2018 19:26:36 +0100
REM compiler GCC version 9.3.0
REM options -cpp -mtune=generic -march=x86-64 -g -O0
REM seed 1606258650 -1099167296 -1474342384 -2004855620 -1214714338 -105293023 1169920319 341925513 1460832316 919583188 -1213870355 -236630169 -1615821552 771458740 708484302 -1207842166 1665425524 189624088 487384889 -1631854179 1926437149 -889874679 -1643864872 -115034888 1499559728 380481309 -1650025721 666816715 -433749923 355916529 708447856 -365714961 442535235
REM
CELL 1.54180   50.00000   50.00000   50.00000   90.00000   90.00000   90.00000
LATT -1
SFAC C  
C      1  0.5425850000000  0.4757830000000  0.4342890000000 1.0
C      1  0.4872910000000  0.4353210000000  0.4297430000000 1.0
C      1  0.4462250000000  0.4918410000000  0.4309230000000 1.0
C      1  0.4766250000000  0.5570830000000  0.4402800000000 1.0
C      1  0.5401440000000  0.5448110000000  0.4340360000000 1.0
C      1  0.5225130000000  0.4937770000000  0.4491260000000 1.0
C      1  0.4946490000000  0.4818990000000  0.4460240000000 1.0
C      1  0.4740520000000  0.5035490000000  0.4458110000000 1.0
C      1  0.4913780000000  0.5306560000000  0.4454730000000 1.0
C      1  0.5186180000000  0.5227520000000  0.4323060000000 1.0
C      1  0.4728890000000  0.5005600000000  0.4761410000000 1.0
C      1  0.4925650000000  0.5257810000000  0.4776630000000 1.0
C      1  0.5168060000000  0.5137040000000  0.4901670000000 1.0
C      1  0.5188480000000  0.4864240000000  0.4805260000000 1.0
C      1  0.4910710000000  0.4760750000000  0.4762990000000 1.0
C      1  0.4868090000000  0.5816510000000  0.4534390000000 1.0
C      1  0.5684280000000  0.5404720000000  0.4423120000000 1.0
C      1  0.5484170000000  0.4512350000000  0.4506380000000 1.0
C      1  0.4631810000000  0.4262050000000  0.4445720000000 1.0
C      1  0.4240490000000  0.5125750000000  0.4406340000000 1.0
C      1  0.4388050000000  0.4405920000000  0.4487000000000 1.0
C      1  0.4267640000000  0.5401380000000  0.4454240000000 1.0
C      1  0.5141320000000  0.5873950000000  0.4556960000000 1.0
C      1  0.5823190000000  0.5158790000000  0.4427090000000 1.0
C      1  0.5355020000000  0.4258500000000  0.4511090000000 1.0
C      1  0.5779900000000  0.5624480000000  0.4598590000000 1.0
C      1  0.5607780000000  0.4617860000000  0.4766550000000 1.0
C      1  0.4712240000000  0.4050400000000  0.4639570000000 1.0
C      1  0.4037420000000  0.4999430000000  0.4580350000000 1.0
C      1  0.4658470000000  0.5926920000000  0.4704290000000 1.0
C      1  0.4482240000000  0.5588120000000  0.4423980000000 1.0
C      1  0.5353470000000  0.5722780000000  0.4431100000000 1.0
C      1  0.5667920000000  0.4924070000000  0.4421160000000 1.0
C      1  0.5090500000000  0.4193790000000  0.4402270000000 1.0
C      1  0.4313460000000  0.4667790000000  0.4390630000000 1.0
C      1  0.4896660000000  0.4464220000000  0.5309810000000 1.0
C      1  0.4647150000000  0.4949180000000  0.5294400000000 1.0
C      1  0.4975460000000  0.5300090000000  0.5378260000000 1.0
C      1  0.5391800000000  0.5273520000000  0.5276530000000 1.0
C      1  0.5330460000000  0.4666940000000  0.5487440000000 1.0
C      1  0.4222710000000  0.4350580000000  0.4730360000000 1.0
C      1  0.4128240000000  0.5504720000000  0.4700420000000 1.0
C      1  0.5245940000000  0.5997270000000  0.4809500000000 1.0
C      1  0.6038560000000  0.5139150000000  0.4638180000000 1.0
C      1  0.5391620000000  0.4086230000000  0.4750340000000 1.0
C      1  0.4689870000000  0.3997610000000  0.4932430000000 1.0
C      1  0.3940710000000  0.5003800000000  0.4873200000000 1.0
C      1  0.4612420000000  0.5962730000000  0.4995040000000 1.0
C      1  0.5884620000000  0.5664310000000  0.4879080000000 1.0
C      1  0.5831590000000  0.4513360000000  0.4945410000000 1.0
C      1  0.4164820000000  0.4757680000000  0.5220090000000 1.0
C      1  0.4374360000000  0.5679640000000  0.5358960000000 1.0
C      1  0.5585370000000  0.5719360000000  0.5233060000000 1.0
C      1  0.5937960000000  0.4825950000000  0.5329610000000 1.0
C      1  0.5001240000000  0.4011830000000  0.5357630000000 1.0
C      1  0.5383140000000  0.4381650000000  0.5372420000000 1.0
C      1  0.4616670000000  0.4457860000000  0.5289030000000 1.0
C      1  0.4529110000000  0.5229850000000  0.5225570000000 1.0
C      1  0.5110060000000  0.5580990000000  0.5371000000000 1.0
C      1  0.5593930000000  0.5062900000000  0.5201350000000 1.0
C      1  0.3996850000000  0.4747740000000  0.4982630000000 1.0
C      1  0.4381970000000  0.5806170000000  0.5087580000000 1.0
C      1  0.5707110000000  0.5852330000000  0.5011180000000 1.0
C      1  0.5982330000000  0.4735960000000  0.5044760000000 1.0
C      1  0.4963500000000  0.4028160000000  0.5052250000000 1.0
C      1  0.4599020000000  0.5769070000000  0.5530010000000 1.0
C      1  0.5708240000000  0.5573070000000  0.5447880000000 1.0
C      1  0.5799080000000  0.4622670000000  0.5478190000000 1.0
C      1  0.4769410000000  0.4073670000000  0.5513520000000 1.0
C      1  0.4128010000000  0.4947510000000  0.5432930000000 1.0
C      1  0.4053630000000  0.5203610000000  0.5340810000000 1.0
C      1  0.4812610000000  0.5931020000000  0.5426810000000 1.0
C      1  0.5901520000000  0.5399010000000  0.5325790000000 1.0
C      1  0.5685940000000  0.4387960000000  0.5355660000000 1.0
C      1  0.4512280000000  0.4084910000000  0.5383090000000 1.0
C      1  0.4346700000000  0.4279480000000  0.4970360000000 1.0
C      1  0.4129570000000  0.5355540000000  0.4930120000000 1.0
C      1  0.5101310000000  0.5938840000000  0.5046430000000 1.0
C      1  0.5949350000000  0.5228860000000  0.4885250000000 1.0
C      1  0.5498540000000  0.4190670000000  0.4981090000000 1.0
C      1  0.4392240000000  0.5218530000000  0.4973620000000 1.0
C      1  0.5130250000000  0.5639060000000  0.5087180000000 1.0
C      1  0.5645150000000  0.5125970000000  0.4908900000000 1.0
C      1  0.5300290000000  0.4399790000000  0.5076830000000 1.0
C      1  0.4550730000000  0.4507840000000  0.5017790000000 1.0
C      1  0.4826710000000  0.4513440000000  0.4883320000000 1.0
C      1  0.4468420000000  0.4970390000000  0.4876570000000 1.0
C      1  0.4882180000000  0.5476000000000  0.4967630000000 1.0
C      1  0.5414770000000  0.5301420000000  0.4865510000000 1.0
C      1  0.5363440000000  0.4685090000000  0.4982140000000 1.0
C      1  0.5678930000000  0.5168930000000  0.5667970000000 1.0
C      1  0.5203890000000  0.4255350000000  0.5715270000000 1.0
C      1  0.4539490000000  0.4474950000000  0.5699860000000 1.0
C      1  0.4390610000000  0.5251150000000  0.5670810000000 1.0
C      1  0.5038820000000  0.5651230000000  0.5759550000000 1.0
C      1  0.5997650000000  0.4907630000000  0.4806170000000 1.0
C      1  0.5138480000000  0.3960530000000  0.4810180000000 1.0
C      1  0.4043590000000  0.4569640000000  0.4762290000000 1.0
C      1  0.4260430000000  0.5727210000000  0.4826930000000 1.0
C      1  0.5527980000000  0.5960290000000  0.4808020000000 1.0
C      1  0.5019780000000  0.4444140000000  0.5783820000000 1.0
C      1  0.4541700000000  0.4767360000000  0.5697730000000 1.0
C      1  0.4647910000000  0.5340150000000  0.5749980000000 1.0
C      1  0.5269030000000  0.5455620000000  0.5791080000000 1.0
C      1  0.5542840000000  0.4950970000000  0.5778880000000 1.0
C      1  0.4982520000000  0.3996560000000  0.4580180000000 1.0
C      1  0.4074080000000  0.4726540000000  0.4529320000000 1.0
C      1  0.4427920000000  0.5801890000000  0.4613280000000 1.0
C      1  0.5584260000000  0.5825050000000  0.4564100000000 1.0
C      1  0.5711360000000  0.4881720000000  0.4704440000000 1.0
C      1  0.5557960000000  0.5433280000000  0.5671270000000 1.0
C      1  0.5582260000000  0.4708080000000  0.5646510000000 1.0
C      1  0.4774080000000  0.4315150000000  0.5719560000000 1.0
C      1  0.4333090000000  0.4969420000000  0.5644050000000 1.0
C      1  0.4741710000000  0.5604440000000  0.5737020000000 1.0
C      1  0.4839950000000  0.6007890000000  0.5156380000000 1.0
C      1  0.5986640000000  0.5454670000000  0.5051730000000 1.0
C      1  0.5744280000000  0.4293990000000  0.5097300000000 1.0
C      1  0.4465030000000  0.4044780000000  0.5098860000000 1.0
C      1  0.3941460000000  0.5212420000000  0.5074010000000 1.0
C      1  0.5052680000000  0.5815750000000  0.5531630000000 1.0
C      1  0.5831750000000  0.5112870000000  0.5404640000000 1.0
C      1  0.5233150000000  0.4139060000000  0.5477790000000 1.0
C      1  0.4426830000000  0.4338600000000  0.5473680000000 1.0
C      1  0.4285600000000  0.5390500000000  0.5426300000000 1.0
C      1  0.5007070000000  0.4366300000000  0.5056710000000 1.0
C      1  0.4465320000000  0.4772070000000  0.5114800000000 1.0
C      1  0.4765500000000  0.5378300000000  0.5202040000000 1.0
C      1  0.5389180000000  0.5501610000000  0.5083010000000 1.0
C      1  0.5368510000000  0.4850430000000  0.5232040000000 1.0
C      1  0.4862500000000  0.5036190000000  0.3993460000000 1.0
C      1  0.5119940000000  0.5044620000000  0.4077740000000 1.0
C      1  0.5202570000000  0.4773880000000  0.4126200000000 1.0
C      1  0.4922690000000  0.4646130000000  0.4214180000000 1.0
C      1  0.4691720000000  0.4850490000000  0.4095010000000 1.0
C      1  0.5136300000000  0.5204600000000  0.5817790000000 1.0
C      1  0.5256030000000  0.4955050000000  0.5824890000000 1.0
C      1  0.5086570000000  0.4736000000000  0.5678120000000 1.0
C      1  0.4803070000000  0.4886310000000  0.5587870000000 1.0
C      1  0.4876940000000  0.5174630000000  0.5660090000000 1.0
C      1  0.5165920000000  0.5108710000000  0.5216350000000 1.0
END
