TITL C-35813-1745-2 -0.190057551437772 125000 -1162.31308033713 0 0 169 (C1) n - 1
REM
REM in /rds/project/t2_vol4/rds-t2-cs072/BORA/CARBON/from-Arr/AIRSS/Generating-Clusters/GAP-ML-2020/Higher-Symm/SD-CG/HFTN-CG/C160-200
REM
REM
REM
REM
REM
REM ./C.cell (6b4489405718ea1b717e0baf1da4c2d9)
REM AIRSS Version 0.9.1 bugfix July 2018 build 013d7b7c2542+ Fri, 06 Jul 2018 19:26:36 +0100
REM compiler GCC version 9.3.0
REM options -cpp -mtune=generic -march=x86-64 -g -O0
REM seed -1508193238 -604108284 -974010923 1687723623 1752386980 -202813363 2135412226 -1668436024 1713451600 -933994038 1497800705 -2002678696 -1592779658 -1341778717 -183823639 -419825495 1633647121 -1282895511 2049432533 -2051625636 -1737578490 1386218056 1910529432 1707593803 -1648124845 1542034269 1541578602 -1630682178 -146810503 2098654817 2099843031 -313410443 619657702
REM
CELL 1.54180   50.00000   50.00000   50.00000   90.00000   90.00000   90.00000
LATT -1
SFAC C  
C      1  0.4326960000000  0.4798450000000  0.4537600000000 1.0
C      1  0.4230500000000  0.4798380000000  0.5250700000000 1.0
C      1  0.4704460000000  0.4796950000000  0.5777610000000 1.0
C      1  0.5415730000000  0.4791750000000  0.5717550000000 1.0
C      1  0.5868260000000  0.4756720000000  0.5139980000000 1.0
C      1  0.5605470000000  0.4804140000000  0.4420300000000 1.0
C      1  0.4932390000000  0.4802440000000  0.4184760000000 1.0
C      1  0.4923490000000  0.4130710000000  0.4709290000000 1.0
C      1  0.4687440000000  0.4072440000000  0.4873600000000 1.0
C      1  0.4721600000000  0.4100490000000  0.5157440000000 1.0
C      1  0.4948100000000  0.4075110000000  0.5333700000000 1.0
C      1  0.5228010000000  0.4082590000000  0.5243050000000 1.0
C      1  0.5337860000000  0.4097980000000  0.4977480000000 1.0
C      1  0.5210670000000  0.4076550000000  0.4721410000000 1.0
C      1  0.4616940000000  0.4078000000000  0.5719050000000 1.0
C      1  0.5222340000000  0.4019660000000  0.5685690000000 1.0
C      1  0.5653220000000  0.4060270000000  0.5415840000000 1.0
C      1  0.5712020000000  0.4084100000000  0.4571060000000 1.0
C      1  0.5223540000000  0.4059520000000  0.4251830000000 1.0
C      1  0.4431600000000  0.4067600000000  0.4416260000000 1.0
C      1  0.4220850000000  0.4049340000000  0.4960790000000 1.0
C      1  0.5038380000000  0.5289630000000  0.4114360000000 1.0
C      1  0.4345290000000  0.5287390000000  0.4425850000000 1.0
C      1  0.4132160000000  0.5283780000000  0.5166260000000 1.0
C      1  0.4571230000000  0.5283300000000  0.5799220000000 1.0
C      1  0.5348680000000  0.5284630000000  0.5825510000000 1.0
C      1  0.5827590000000  0.5269000000000  0.5195440000000 1.0
C      1  0.5739670000000  0.5299060000000  0.4436040000000 1.0
C      1  0.5373970000000  0.4983500000000  0.5468820000000 1.0
C      1  0.5574380000000  0.5013320000000  0.4851220000000 1.0
C      1  0.5418990000000  0.5003450000000  0.4578090000000 1.0
C      1  0.4851270000000  0.5009880000000  0.4424620000000 1.0
C      1  0.4457190000000  0.4976570000000  0.4759580000000 1.0
C      1  0.4480960000000  0.5006130000000  0.5272170000000 1.0
C      1  0.4885830000000  0.4986730000000  0.5598130000000 1.0
C      1  0.5106440000000  0.4936240000000  0.6052230000000 1.0
C      1  0.5872480000000  0.4943240000000  0.5567190000000 1.0
C      1  0.5991200000000  0.4960510000000  0.4655100000000 1.0
C      1  0.5353500000000  0.4940020000000  0.4004470000000 1.0
C      1  0.4462490000000  0.4949010000000  0.4104880000000 1.0
C      1  0.3966380000000  0.4937190000000  0.4874900000000 1.0
C      1  0.4247970000000  0.4937950000000  0.5732620000000 1.0
C      1  0.5079800000000  0.5008680000000  0.4035520000000 1.0
C      1  0.4307070000000  0.5011350000000  0.4336130000000 1.0
C      1  0.4046460000000  0.5002750000000  0.5141380000000 1.0
C      1  0.4501420000000  0.5002220000000  0.5846390000000 1.0
C      1  0.5349090000000  0.5001450000000  0.5918090000000 1.0
C      1  0.5910850000000  0.4998130000000  0.5283910000000 1.0
C      1  0.5823010000000  0.5013570000000  0.4432300000000 1.0
C      1  0.5338110000000  0.3932210000000  0.4467420000000 1.0
C      1  0.4355750000000  0.3851210000000  0.4532430000000 1.0
C      1  0.4410630000000  0.3925230000000  0.4801800000000 1.0
C      1  0.4752040000000  0.3864800000000  0.5767760000000 1.0
C      1  0.4967920000000  0.3918770000000  0.5604570000000 1.0
C      1  0.5410660000000  0.3951270000000  0.5466940000000 1.0
C      1  0.5618900000000  0.3869320000000  0.4464970000000 1.0
C      1  0.4541900000000  0.5716690000000  0.5954090000000 1.0
C      1  0.5479080000000  0.5733770000000  0.5902010000000 1.0
C      1  0.5990330000000  0.5695790000000  0.5239820000000 1.0
C      1  0.5765990000000  0.5735310000000  0.4285780000000 1.0
C      1  0.5014310000000  0.5723300000000  0.3968090000000 1.0
C      1  0.4193220000000  0.5722010000000  0.4370330000000 1.0
C      1  0.3994910000000  0.5711430000000  0.5223060000000 1.0
C      1  0.4931380000000  0.4564500000000  0.5310560000000 1.0
C      1  0.5207730000000  0.4561550000000  0.5230200000000 1.0
C      1  0.5341330000000  0.4562830000000  0.4977400000000 1.0
C      1  0.5187550000000  0.4559800000000  0.4734980000000 1.0
C      1  0.4928480000000  0.4451980000000  0.4732220000000 1.0
C      1  0.4711110000000  0.4552570000000  0.4883050000000 1.0
C      1  0.4715080000000  0.4486740000000  0.5154150000000 1.0
C      1  0.4935200000000  0.4878740000000  0.5329190000000 1.0
C      1  0.5227190000000  0.4881490000000  0.5251420000000 1.0
C      1  0.5336460000000  0.4882030000000  0.4979280000000 1.0
C      1  0.5181670000000  0.4865990000000  0.4716670000000 1.0
C      1  0.4910590000000  0.4947000000000  0.4688170000000 1.0
C      1  0.4702070000000  0.4858630000000  0.4872780000000 1.0
C      1  0.4726240000000  0.4953120000000  0.5148720000000 1.0
C      1  0.5126030000000  0.4323910000000  0.4327620000000 1.0
C      1  0.4553090000000  0.4322010000000  0.4480900000000 1.0
C      1  0.4313210000000  0.4311970000000  0.5039360000000 1.0
C      1  0.4609530000000  0.4320650000000  0.5568070000000 1.0
C      1  0.5183510000000  0.4325270000000  0.5642780000000 1.0
C      1  0.5630030000000  0.4318140000000  0.5277460000000 1.0
C      1  0.5620040000000  0.4330920000000  0.4675950000000 1.0
C      1  0.4573420000000  0.5434100000000  0.4287960000000 1.0
C      1  0.4182340000000  0.5417710000000  0.4899110000000 1.0
C      1  0.4389140000000  0.5428670000000  0.5598990000000 1.0
C      1  0.5080300000000  0.5427740000000  0.5855130000000 1.0
C      1  0.5671050000000  0.5404630000000  0.5426060000000 1.0
C      1  0.5818080000000  0.5449400000000  0.4690060000000 1.0
C      1  0.5293430000000  0.5417590000000  0.4202350000000 1.0
C      1  0.4957450000000  0.5126430000000  0.6182590000000 1.0
C      1  0.5877620000000  0.5130340000000  0.5761700000000 1.0
C      1  0.6168580000000  0.5152460000000  0.4744080000000 1.0
C      1  0.5533020000000  0.5128410000000  0.3920300000000 1.0
C      1  0.4547350000000  0.5137800000000  0.3929480000000 1.0
C      1  0.3874530000000  0.5123310000000  0.4697470000000 1.0
C      1  0.4051800000000  0.5122480000000  0.5688500000000 1.0
C      1  0.5334150000000  0.4352090000000  0.5375020000000 1.0
C      1  0.5532260000000  0.4312820000000  0.4976100000000 1.0
C      1  0.5314000000000  0.4339570000000  0.4582780000000 1.0
C      1  0.4864230000000  0.4301810000000  0.4491850000000 1.0
C      1  0.4524830000000  0.4330010000000  0.4799980000000 1.0
C      1  0.4536520000000  0.4287490000000  0.5257960000000 1.0
C      1  0.4913320000000  0.4339120000000  0.5503330000000 1.0
C      1  0.3985020000000  0.5479390000000  0.5358130000000 1.0
C      1  0.4640120000000  0.5476240000000  0.6031360000000 1.0
C      1  0.5581120000000  0.5484350000000  0.5882790000000 1.0
C      1  0.6053210000000  0.5472310000000  0.5106450000000 1.0
C      1  0.5752180000000  0.5482950000000  0.4188120000000 1.0
C      1  0.4881960000000  0.5492260000000  0.3935150000000 1.0
C      1  0.4098740000000  0.5481120000000  0.4443840000000 1.0
C      1  0.5002840000000  0.5758290000000  0.4453610000000 1.0
C      1  0.4581620000000  0.5754000000000  0.4669450000000 1.0
C      1  0.4477270000000  0.5751120000000  0.5126630000000 1.0
C      1  0.4757040000000  0.5755950000000  0.5508920000000 1.0
C      1  0.5227970000000  0.5746570000000  0.5492140000000 1.0
C      1  0.5521660000000  0.5741260000000  0.5095450000000 1.0
C      1  0.5435320000000  0.5781450000000  0.4630980000000 1.0
C      1  0.4752410000000  0.5954770000000  0.4794590000000 1.0
C      1  0.4681810000000  0.5953660000000  0.5071890000000 1.0
C      1  0.4850720000000  0.5950040000000  0.5301470000000 1.0
C      1  0.5135170000000  0.5947440000000  0.5298550000000 1.0
C      1  0.5314630000000  0.5944390000000  0.5074080000000 1.0
C      1  0.5264360000000  0.5962800000000  0.4791460000000 1.0
C      1  0.5008810000000  0.5960170000000  0.4667820000000 1.0
C      1  0.4981530000000  0.4721930000000  0.5904470000000 1.0
C      1  0.5691570000000  0.4724610000000  0.5581720000000 1.0
C      1  0.5817940000000  0.4792640000000  0.4837530000000 1.0
C      1  0.5413500000000  0.4726340000000  0.4186310000000 1.0
C      1  0.4629920000000  0.4729710000000  0.4178800000000 1.0
C      1  0.4146740000000  0.4732480000000  0.4785340000000 1.0
C      1  0.4292200000000  0.4725640000000  0.5546290000000 1.0
C      1  0.5535610000000  0.5378740000000  0.4021870000000 1.0
C      1  0.4609750000000  0.5396440000000  0.3988110000000 1.0
C      1  0.3971060000000  0.5377100000000  0.4685400000000 1.0
C      1  0.4087600000000  0.5382830000000  0.5616560000000 1.0
C      1  0.4909510000000  0.5382810000000  0.6105720000000 1.0
C      1  0.5787030000000  0.5380630000000  0.5704630000000 1.0
C      1  0.6092740000000  0.5403290000000  0.4822710000000 1.0
C      1  0.5297340000000  0.5488650000000  0.4671600000000 1.0
C      1  0.4971340000000  0.5482560000000  0.4604590000000 1.0
C      1  0.4685400000000  0.5469730000000  0.4800670000000 1.0
C      1  0.4634390000000  0.5478700000000  0.5147140000000 1.0
C      1  0.4847700000000  0.5476370000000  0.5405350000000 1.0
C      1  0.5151660000000  0.5460820000000  0.5365540000000 1.0
C      1  0.5409710000000  0.5463610000000  0.4957150000000 1.0
C      1  0.4479730000000  0.4591000000000  0.4382750000000 1.0
C      1  0.4205010000000  0.4589930000000  0.5032180000000 1.0
C      1  0.4523060000000  0.4590060000000  0.5654430000000 1.0
C      1  0.5207980000000  0.4578020000000  0.5790590000000 1.0
C      1  0.5756220000000  0.4577640000000  0.5335910000000 1.0
C      1  0.5712190000000  0.4608340000000  0.4625400000000 1.0
C      1  0.5156070000000  0.4594580000000  0.4206370000000 1.0
C      1  0.5153240000000  0.5706010000000  0.4215910000000 1.0
C      1  0.4473440000000  0.5708770000000  0.4413360000000 1.0
C      1  0.4210860000000  0.5698960000000  0.5039910000000 1.0
C      1  0.4526740000000  0.5711530000000  0.5674080000000 1.0
C      1  0.5231920000000  0.5708980000000  0.5771870000000 1.0
C      1  0.5709380000000  0.5682880000000  0.5299110000000 1.0
C      1  0.5702900000000  0.5734590000000  0.4555780000000 1.0
C      1  0.4855110000000  0.5303950000000  0.4372260000000 1.0
C      1  0.4434630000000  0.5280510000000  0.4736200000000 1.0
C      1  0.4419840000000  0.5296980000000  0.5299310000000 1.0
C      1  0.4852270000000  0.5285240000000  0.5652210000000 1.0
C      1  0.5382450000000  0.5279050000000  0.5505740000000 1.0
C      1  0.5656700000000  0.5292460000000  0.4928280000000 1.0
C      1  0.5414940000000  0.5294770000000  0.4472280000000 1.0
C      1  0.5179860000000  0.5382250000000  0.5099020000000 1.0
END
