TITL C-35332-8740-2 3.74850911586813 125000 -175.449136931079 0 0 27 (C1) n - 1
REM
REM in /rds/project/t2_vol4/rds-t2-cs072/BORA/CARBON/from-Arr/AIRSS/Generating-Clusters/GAP-ML-2020/Higher-Symm/SD-CG/HFTN-CG
REM
REM
REM
REM
REM
REM ./C.cell (b20cbc046b6831c77cfcea5457e17084)
REM AIRSS Version 0.9.1 bugfix July 2018 build 013d7b7c2542+ Fri, 06 Jul 2018 19:26:36 +0100
REM compiler GCC version 9.3.0
REM options -cpp -mtune=generic -march=x86-64 -g -O0
REM seed 1545897150 179801564 -419949867 -980644016 806259637 1649897711 1688730151 -1459652934 992218372 768666567 -1337563298 1312334823 1350383616 -399219114 2056772733 -834140711 1847214507 -279293811 189489636 1858146015 -196355614 1239429179 -1178787092 -1549636309 378280663 39154082 -2055227593 -1399719366 2011679487 1085034037 1662000821 -2070701977 468372805
REM
CELL 1.54180   50.00000   50.00000   50.00000   90.00000   90.00000   90.00000
LATT -1
SFAC C  
C      1  0.5312100000000  0.5074370000000  0.4445890000000 1.0
C      1  0.4667610000000  0.4773660000000  0.5333970000000 1.0
C      1  0.5185540000000  0.5310720000000  0.5278380000000 1.0
C      1  0.5081210000000  0.4850840000000  0.4808440000000 1.0
C      1  0.5674250000000  0.5185600000000  0.4744360000000 1.0
C      1  0.4963010000000  0.5209890000000  0.5444840000000 1.0
C      1  0.5376070000000  0.4860740000000  0.4301530000000 1.0
C      1  0.5538760000000  0.5225630000000  0.4525630000000 1.0
C      1  0.5291540000000  0.4397500000000  0.5343000000000 1.0
C      1  0.4848830000000  0.4617660000000  0.5176160000000 1.0
C      1  0.4579820000000  0.5026770000000  0.5204770000000 1.0
C      1  0.5046630000000  0.5505220000000  0.5104520000000 1.0
C      1  0.4841160000000  0.5213850000000  0.4609460000000 1.0
C      1  0.4620100000000  0.4725360000000  0.4758550000000 1.0
C      1  0.4399260000000  0.4862120000000  0.4753990000000 1.0
C      1  0.4758700000000  0.4829650000000  0.5594900000000 1.0
C      1  0.5306530000000  0.4897560000000  0.4975950000000 1.0
C      1  0.4727220000000  0.5249410000000  0.5286650000000 1.0
C      1  0.5060250000000  0.4480030000000  0.5286960000000 1.0
C      1  0.5056440000000  0.5057530000000  0.4596170000000 1.0
C      1  0.4939690000000  0.5008170000000  0.5631460000000 1.0
C      1  0.5519060000000  0.5070780000000  0.4938810000000 1.0
C      1  0.4863490000000  0.4692490000000  0.4892970000000 1.0
C      1  0.4678450000000  0.5281530000000  0.4819730000000 1.0
C      1  0.4515130000000  0.5064520000000  0.4927850000000 1.0
C      1  0.4794160000000  0.5417130000000  0.5057010000000 1.0
C      1  0.5354960000000  0.5111250000000  0.5158030000000 1.0
END
