TITL C-3527-9283-1 228.970532795949 125000 -1079.73955226081 0 0 154 (C3) n - 1
REM
REM in /rds/project/t2_vol4/rds-t2-cs072/BORA/CARBON/from-Arr/AIRSS/Generating-Clusters/GAP-ML-2020/Higher-Symm/SD-CG/HFTN-CG
REM
REM
REM
REM
REM
REM ./C.cell (b20cbc046b6831c77cfcea5457e17084)
REM AIRSS Version 0.9.1 bugfix July 2018 build 013d7b7c2542+ Fri, 06 Jul 2018 19:26:36 +0100
REM compiler GCC version 9.3.0
REM options -cpp -mtune=generic -march=x86-64 -g -O0
REM seed -1720296027 2086929931 2033709701 -1416692843 -585417059 -2685089 -535257283 953461898 1985952576 1775473972 -1746566921 -176512078 -2137430951 -607388696 -1322914668 -867827630 -557429945 -1865602834 227319414 -181743510 -1699991758 1495532874 -13970774 -1728147498 1576081442 -859218864 1405106281 -2051867016 -1403338982 -1832566059 -1267728207 -50673230 1124907171
REM
CELL 1.54180   50.00000   50.00000   50.00000   90.00000   90.00000   90.00000
LATT -1
SFAC C  
C      1  0.4649700000000  0.5758810000000  0.4561150000000 1.0
C      1  0.5569840000000  0.5749930000000  0.4922390000000 1.0
C      1  0.4796870000000  0.5749140000000  0.5538630000000 1.0
C      1  0.4454700000000  0.4541580000000  0.4298550000000 1.0
C      1  0.5874070000000  0.4527720000000  0.4874870000000 1.0
C      1  0.4665200000000  0.4526690000000  0.5815920000000 1.0
C      1  0.5316910000000  0.5250560000000  0.4936420000000 1.0
C      1  0.4902700000000  0.5249760000000  0.5308500000000 1.0
C      1  0.4787590000000  0.5255350000000  0.4763770000000 1.0
C      1  0.4165250000000  0.5629430000000  0.4791390000000 1.0
C      1  0.5610480000000  0.5624200000000  0.4386680000000 1.0
C      1  0.5238290000000  0.5613450000000  0.5840590000000 1.0
C      1  0.5283710000000  0.5467240000000  0.5167120000000 1.0
C      1  0.4723220000000  0.5470680000000  0.5166190000000 1.0
C      1  0.5004300000000  0.5473310000000  0.4681260000000 1.0
C      1  0.4977730000000  0.5525170000000  0.5923290000000 1.0
C      1  0.4222410000000  0.5542350000000  0.4523670000000 1.0
C      1  0.5812240000000  0.5532190000000  0.4569300000000 1.0
C      1  0.5974240000000  0.5195110000000  0.5146170000000 1.0
C      1  0.4391520000000  0.5199190000000  0.5772490000000 1.0
C      1  0.4640540000000  0.5212760000000  0.4088710000000 1.0
C      1  0.5111350000000  0.4037100000000  0.5250380000000 1.0
C      1  0.4713040000000  0.4042110000000  0.4963660000000 1.0
C      1  0.5160530000000  0.4041180000000  0.4762070000000 1.0
C      1  0.6009900000000  0.4739210000000  0.5049260000000 1.0
C      1  0.4449870000000  0.4741600000000  0.5848100000000 1.0
C      1  0.4538130000000  0.4756760000000  0.4097730000000 1.0
C      1  0.4082180000000  0.5179310000000  0.5080490000000 1.0
C      1  0.5394050000000  0.5179460000000  0.4166550000000 1.0
C      1  0.5529560000000  0.5164350000000  0.5759570000000 1.0
C      1  0.5258310000000  0.4785290000000  0.6024000000000 1.0
C      1  0.3982380000000  0.4804890000000  0.4710300000000 1.0
C      1  0.5758130000000  0.4798020000000  0.4262130000000 1.0
C      1  0.5045660000000  0.4197540000000  0.4350740000000 1.0
C      1  0.5527600000000  0.4185560000000  0.5357780000000 1.0
C      1  0.4414460000000  0.4193150000000  0.5271670000000 1.0
C      1  0.4833810000000  0.4608900000000  0.4598120000000 1.0
C      1  0.5426280000000  0.4601180000000  0.5054000000000 1.0
C      1  0.4735210000000  0.4602860000000  0.5339160000000 1.0
C      1  0.4485300000000  0.4741800000000  0.5334570000000 1.0
C      1  0.4965080000000  0.4747370000000  0.4385110000000 1.0
C      1  0.5547440000000  0.4735820000000  0.5275290000000 1.0
C      1  0.5149030000000  0.5214610000000  0.3974190000000 1.0
C      1  0.5819210000000  0.5195530000000  0.5643820000000 1.0
C      1  0.4038120000000  0.5208730000000  0.5389460000000 1.0
C      1  0.4647030000000  0.4144860000000  0.5424200000000 1.0
C      1  0.4796490000000  0.4152450000000  0.4475520000000 1.0
C      1  0.5543360000000  0.4142460000000  0.5079250000000 1.0
C      1  0.5157110000000  0.5003290000000  0.4929620000000 1.0
C      1  0.4984290000000  0.5002180000000  0.5171490000000 1.0
C      1  0.4861240000000  0.5005360000000  0.4900910000000 1.0
C      1  0.4075520000000  0.5700260000000  0.5392460000000 1.0
C      1  0.5136080000000  0.5706160000000  0.4009080000000 1.0
C      1  0.5803810000000  0.5687640000000  0.5619160000000 1.0
C      1  0.4831300000000  0.5729220000000  0.5017050000000 1.0
C      1  0.5083780000000  0.5729160000000  0.4851530000000 1.0
C      1  0.5100880000000  0.5726350000000  0.5152930000000 1.0
C      1  0.5269890000000  0.5096710000000  0.4455410000000 1.0
C      1  0.5340110000000  0.5086860000000  0.5506980000000 1.0
C      1  0.4394290000000  0.5096820000000  0.5042050000000 1.0
C      1  0.5120740000000  0.5483870000000  0.3880780000000 1.0
C      1  0.5918810000000  0.5462960000000  0.5668200000000 1.0
C      1  0.3971750000000  0.5476710000000  0.5465700000000 1.0
C      1  0.5559280000000  0.5018900000000  0.5291250000000 1.0
C      1  0.4470360000000  0.5025140000000  0.5339160000000 1.0
C      1  0.4973380000000  0.5030730000000  0.4372190000000 1.0
C      1  0.4591280000000  0.5301410000000  0.4962710000000 1.0
C      1  0.5243580000000  0.5300060000000  0.4667340000000 1.0
C      1  0.5173200000000  0.5294110000000  0.5379900000000 1.0
C      1  0.4094840000000  0.5290140000000  0.4466300000000 1.0
C      1  0.5921420000000  0.5278780000000  0.4485440000000 1.0
C      1  0.4991460000000  0.5270380000000  0.6057700000000 1.0
C      1  0.4883330000000  0.4996300000000  0.5685890000000 1.0
C      1  0.4466200000000  0.5008990000000  0.4556290000000 1.0
C      1  0.5653070000000  0.4999890000000  0.4759790000000 1.0
C      1  0.4430580000000  0.5016310000000  0.4129740000000 1.0
C      1  0.6040350000000  0.4999160000000  0.4942230000000 1.0
C      1  0.4531740000000  0.4999550000000  0.5930090000000 1.0
C      1  0.5773380000000  0.5396830000000  0.5063470000000 1.0
C      1  0.4566960000000  0.5399040000000  0.5641510000000 1.0
C      1  0.4669620000000  0.5410370000000  0.4307750000000 1.0
C      1  0.4820360000000  0.4780250000000  0.4013100000000 1.0
C      1  0.5942480000000  0.4761510000000  0.5336180000000 1.0
C      1  0.4235510000000  0.4769190000000  0.5646460000000 1.0
C      1  0.5285430000000  0.4023600000000  0.5014270000000 1.0
C      1  0.4830240000000  0.4024430000000  0.5232340000000 1.0
C      1  0.4868990000000  0.4028710000000  0.4729110000000 1.0
C      1  0.4715780000000  0.5154760000000  0.5505940000000 1.0
C      1  0.4708470000000  0.5163800000000  0.4502420000000 1.0
C      1  0.5581220000000  0.5154010000000  0.4997800000000 1.0
C      1  0.5347910000000  0.5806770000000  0.4750650000000 1.0
C      1  0.5057490000000  0.5802440000000  0.5432730000000 1.0
C      1  0.4612000000000  0.5810480000000  0.4840230000000 1.0
C      1  0.5340790000000  0.4381280000000  0.5670840000000 1.0
C      1  0.4240100000000  0.4394440000000  0.4954990000000 1.0
C      1  0.5410460000000  0.4392610000000  0.4359670000000 1.0
C      1  0.4003050000000  0.5424730000000  0.4899300000000 1.0
C      1  0.5594660000000  0.5421330000000  0.4190600000000 1.0
C      1  0.5412540000000  0.5406910000000  0.5923260000000 1.0
C      1  0.4515100000000  0.4270930000000  0.4998710000000 1.0
C      1  0.5233020000000  0.4270320000000  0.4574980000000 1.0
C      1  0.5241000000000  0.4262800000000  0.5408550000000 1.0
C      1  0.4192770000000  0.4379520000000  0.5250840000000 1.0
C      1  0.5177690000000  0.4383160000000  0.4170680000000 1.0
C      1  0.5620650000000  0.4367960000000  0.5563650000000 1.0
C      1  0.5869840000000  0.5053760000000  0.5386900000000 1.0
C      1  0.4232870000000  0.5062240000000  0.5560580000000 1.0
C      1  0.4901010000000  0.5071630000000  0.4056130000000 1.0
C      1  0.4567640000000  0.5601510000000  0.5385770000000 1.0
C      1  0.4894170000000  0.5608010000000  0.4437830000000 1.0
C      1  0.5551840000000  0.5597200000000  0.5194530000000 1.0
C      1  0.3915960000000  0.5255400000000  0.4686960000000 1.0
C      1  0.5819190000000  0.5247930000000  0.4219940000000 1.0
C      1  0.5271950000000  0.5234410000000  0.6101640000000 1.0
C      1  0.5132140000000  0.5729780000000  0.4295390000000 1.0
C      1  0.5558260000000  0.5716620000000  0.5472820000000 1.0
C      1  0.4325480000000  0.5726140000000  0.5253180000000 1.0
C      1  0.5368370000000  0.5756260000000  0.4466100000000 1.0
C      1  0.5292800000000  0.5746620000000  0.5592290000000 1.0
C      1  0.4355260000000  0.5758000000000  0.4963800000000 1.0
C      1  0.5121150000000  0.4860320000000  0.5585030000000 1.0
C      1  0.4432330000000  0.4871470000000  0.4811560000000 1.0
C      1  0.5446640000000  0.4867140000000  0.4601740000000 1.0
C      1  0.5940040000000  0.5036840000000  0.4653710000000 1.0
C      1  0.4832350000000  0.5031670000000  0.5987750000000 1.0
C      1  0.4230910000000  0.5049940000000  0.4361520000000 1.0
C      1  0.5588880000000  0.4616190000000  0.4438880000000 1.0
C      1  0.5186800000000  0.4606560000000  0.5787590000000 1.0
C      1  0.4219810000000  0.4621650000000  0.4765100000000 1.0
C      1  0.4701190000000  0.4390180000000  0.5563220000000 1.0
C      1  0.4653200000000  0.4400410000000  0.4454930000000 1.0
C      1  0.5637020000000  0.4389780000000  0.4967460000000 1.0
C      1  0.5009350000000  0.4751570000000  0.5335700000000 1.0
C      1  0.4702280000000  0.4757910000000  0.4838480000000 1.0
C      1  0.5286440000000  0.4754480000000  0.4821140000000 1.0
C      1  0.3912550000000  0.5023040000000  0.4859250000000 1.0
C      1  0.5667770000000  0.5018830000000  0.4128970000000 1.0
C      1  0.5422530000000  0.5003440000000  0.6014110000000 1.0
C      1  0.4061020000000  0.4814790000000  0.4426520000000 1.0
C      1  0.5964710000000  0.4802720000000  0.4472170000000 1.0
C      1  0.4973240000000  0.4794220000000  0.6097960000000 1.0
C      1  0.4756860000000  0.5587870000000  0.5767250000000 1.0
C      1  0.4469010000000  0.5601790000000  0.4410900000000 1.0
C      1  0.5787610000000  0.5589860000000  0.4839720000000 1.0
C      1  0.4911660000000  0.4570860000000  0.5933940000000 1.0
C      1  0.4230040000000  0.4588310000000  0.4453360000000 1.0
C      1  0.5853130000000  0.4577020000000  0.4603290000000 1.0
C      1  0.5179950000000  0.4511000000000  0.5207460000000 1.0
C      1  0.4723950000000  0.4515220000000  0.5048380000000 1.0
C      1  0.5089740000000  0.4515810000000  0.4733010000000 1.0
C      1  0.5735320000000  0.4593980000000  0.5440240000000 1.0
C      1  0.4246140000000  0.4603350000000  0.5413680000000 1.0
C      1  0.5013800000000  0.4610090000000  0.4137320000000 1.0
C      1  0.4997320000000  0.4423520000000  0.4995470000000 1.0
END
