TITL C-35323-8745-3 3.0445090158021 125000 -524.342691585639 0 0 78 (C2h) n - 1
REM
REM in /rds/project/t2_vol4/rds-t2-cs072/BORA/CARBON/from-Arr/AIRSS/Generating-Clusters/GAP-ML-2020/Higher-Symm/SD-CG/HFTN-CG
REM
REM
REM
REM
REM
REM ./C.cell (b20cbc046b6831c77cfcea5457e17084)
REM AIRSS Version 0.9.1 bugfix July 2018 build 013d7b7c2542+ Fri, 06 Jul 2018 19:26:36 +0100
REM compiler GCC version 9.3.0
REM options -cpp -mtune=generic -march=x86-64 -g -O0
REM seed 948782699 -1247393487 -791606932 -2028346732 -1629244972 1282819712 -108018128 -1450586805 -2106760531 -1396352302 1452097654 -1723170467 -1017128294 -49978911 -1865342081 -1273139096 -538129246 -671213585 -1367834972 -1943710301 -545500090 1617572981 615247013 1801493227 464840043 -269698290 -847956065 -1137841913 271299014 1210330730 -18209090 1709853210 468868171
REM
CELL 1.54180   50.00000   50.00000   50.00000   90.00000   90.00000   90.00000
LATT -1
SFAC C  
C      1  0.5788610000000  0.5400820000000  0.5145940000000 1.0
C      1  0.5788520000000  0.4598760000000  0.4854700000000 1.0
C      1  0.4232140000000  0.5401240000000  0.5145300000000 1.0
C      1  0.4232050000000  0.4599180000000  0.4854060000000 1.0
C      1  0.5536840000000  0.5246940000000  0.4596610000000 1.0
C      1  0.5536370000000  0.4752780000000  0.5403830000000 1.0
C      1  0.4484290000000  0.5247220000000  0.4596170000000 1.0
C      1  0.4483820000000  0.4753060000000  0.5403390000000 1.0
C      1  0.5390990000000  0.4746030000000  0.4253880000000 1.0
C      1  0.5390510000000  0.5253760000000  0.5746430000000 1.0
C      1  0.4630150000000  0.4746240000000  0.4253570000000 1.0
C      1  0.4629670000000  0.5253970000000  0.5746120000000 1.0
C      1  0.5400800000000  0.5253870000000  0.4291170000000 1.0
C      1  0.5400070000000  0.4745920000000  0.5709150000000 1.0
C      1  0.4620590000000  0.5254070000000  0.4290850000000 1.0
C      1  0.4619860000000  0.4746130000000  0.5708830000000 1.0
C      1  0.5794800000000  0.4486710000000  0.5088120000000 1.0
C      1  0.5795150000000  0.5512870000000  0.4912530000000 1.0
C      1  0.4225510000000  0.4487130000000  0.5087470000000 1.0
C      1  0.4225860000000  0.5513290000000  0.4911880000000 1.0
C      1  0.5248930000000  0.5131410000000  0.5055610000000 1.0
C      1  0.5248910000000  0.4868460000000  0.4944590000000 1.0
C      1  0.4771750000000  0.5131540000000  0.5055410000000 1.0
C      1  0.4771730000000  0.4868590000000  0.4944390000000 1.0
C      1  0.4871010000000  0.5635570000000  0.4565430000000 1.0
C      1  0.4870310000000  0.4364510000000  0.5434450000000 1.0
C      1  0.5150350000000  0.5635490000000  0.4565550000000 1.0
C      1  0.5149650000000  0.4364430000000  0.5434570000000 1.0
C      1  0.5152140000000  0.4682750000000  0.5144260000000 1.0
C      1  0.5152430000000  0.5317170000000  0.4855860000000 1.0
C      1  0.4868230000000  0.4682830000000  0.5144140000000 1.0
C      1  0.4868520000000  0.5317250000000  0.4855740000000 1.0
C      1  0.5158800000000  0.5390550000000  0.4389050000000 1.0
C      1  0.5158080000000  0.4609380000000  0.5611080000000 1.0
C      1  0.4862580000000  0.5390630000000  0.4388920000000 1.0
C      1  0.4861860000000  0.4609450000000  0.5610950000000 1.0
C      1  0.5640150000000  0.5021070000000  0.4737670000000 1.0
C      1  0.5639920000000  0.4978590000000  0.5262850000000 1.0
C      1  0.4380740000000  0.5021410000000  0.4737150000000 1.0
C      1  0.4380510000000  0.4978930000000  0.5262330000000 1.0
C      1  0.4737750000000  0.5593960000000  0.4822310000000 1.0
C      1  0.4737280000000  0.4406190000000  0.5177470000000 1.0
C      1  0.5283380000000  0.5593810000000  0.4822530000000 1.0
C      1  0.5282910000000  0.4406040000000  0.5177690000000 1.0
C      1  0.4454660000000  0.5490840000000  0.4754800000000 1.0
C      1  0.4454190000000  0.4509460000000  0.5244740000000 1.0
C      1  0.5566470000000  0.5490540000000  0.4755260000000 1.0
C      1  0.5566000000000  0.4509160000000  0.5245200000000 1.0
C      1  0.5338750000000  0.4668340000000  0.4534570000000 1.0
C      1  0.5338540000000  0.5331480000000  0.5465710000000 1.0
C      1  0.4682120000000  0.4668520000000  0.4534290000000 1.0
C      1  0.4681910000000  0.5331660000000  0.5465430000000 1.0
C      1  0.5163840000000  0.4891140000000  0.4658200000000 1.0
C      1  0.5163610000000  0.5108770000000  0.5341930000000 1.0
C      1  0.4857050000000  0.4891230000000  0.4658070000000 1.0
C      1  0.4856820000000  0.5108860000000  0.5341800000000 1.0
C      1  0.5250110000000  0.4822730000000  0.5383200000000 1.0
C      1  0.5250520000000  0.5177140000000  0.4617000000000 1.0
C      1  0.4770140000000  0.4822860000000  0.5383000000000 1.0
C      1  0.4770550000000  0.5177270000000  0.4616800000000 1.0
C      1  0.5627930000000  0.4745120000000  0.4679930000000 1.0
C      1  0.5627800000000  0.5254550000000  0.5320590000000 1.0
C      1  0.4392860000000  0.4745450000000  0.4679410000000 1.0
C      1  0.4392730000000  0.5254880000000  0.5320070000000 1.0
C      1  0.5153520000000  0.5695860000000  0.5082920000000 1.0
C      1  0.5153220000000  0.4304070000000  0.4917200000000 1.0
C      1  0.4867440000000  0.5695930000000  0.5082800000000 1.0
C      1  0.4867140000000  0.4304140000000  0.4917080000000 1.0
C      1  0.4864950000000  0.5562360000000  0.5348630000000 1.0
C      1  0.4864940000000  0.4437720000000  0.4651250000000 1.0
C      1  0.5155720000000  0.5562280000000  0.5348750000000 1.0
C      1  0.5155710000000  0.4437640000000  0.4651370000000 1.0
C      1  0.5403990000000  0.4995410000000  0.4203750000000 1.0
C      1  0.5403330000000  0.5004380000000  0.5796580000000 1.0
C      1  0.4617330000000  0.4995620000000  0.4203420000000 1.0
C      1  0.4616670000000  0.5004590000000  0.5796250000000 1.0
C      1  0.5519580000000  0.4999860000000  0.5000210000000 1.0
C      1  0.4501080000000  0.5000140000000  0.4999790000000 1.0
END
