TITL C-3512-9249-3 -90.8774314115186 125000 -788.426702866402 0 0 113 (C1) n - 1
REM
REM in /rds/project/t2_vol4/rds-t2-cs072/BORA/CARBON/from-Arr/AIRSS/Generating-Clusters/GAP-ML-2020/Higher-Symm/SD-CG/HFTN-CG
REM
REM
REM
REM
REM
REM ./C.cell (b20cbc046b6831c77cfcea5457e17084)
REM AIRSS Version 0.9.1 bugfix July 2018 build 013d7b7c2542+ Fri, 06 Jul 2018 19:26:36 +0100
REM compiler GCC version 9.3.0
REM options -cpp -mtune=generic -march=x86-64 -g -O0
REM seed -1373844926 -855604660 2142951029 -865224339 1347950993 610924682 -1274036351 -1983896386 -1691022678 423383647 953756030 949959478 -26863040 -735748632 1950416303 1218081887 -417440110 1348987162 -544031184 1789037922 -1238277069 -817109848 -1549239551 -2121461518 591408939 -1464170944 675703936 -1500055347 451384367 1409498707 -1390463349 2028474018 -269868776
REM
CELL 1.54180   50.00000   50.00000   50.00000   90.00000   90.00000   90.00000
LATT -1
SFAC C  
C      1  0.4521560000000  0.4664270000000  0.4590820000000 1.0
C      1  0.5616750000000  0.4603050000000  0.4747430000000 1.0
C      1  0.4817610000000  0.4654080000000  0.5537600000000 1.0
C      1  0.4578700000000  0.5399200000000  0.4583490000000 1.0
C      1  0.5592500000000  0.5312800000000  0.4784100000000 1.0
C      1  0.4816020000000  0.5364920000000  0.5549680000000 1.0
C      1  0.5297270000000  0.5325410000000  0.4262990000000 1.0
C      1  0.5532810000000  0.5348050000000  0.5596200000000 1.0
C      1  0.4157260000000  0.5325360000000  0.5150680000000 1.0
C      1  0.5288130000000  0.4643340000000  0.4246800000000 1.0
C      1  0.5540190000000  0.4648010000000  0.5594090000000 1.0
C      1  0.4180080000000  0.4639210000000  0.5126810000000 1.0
C      1  0.5857340000000  0.5140780000000  0.5184750000000 1.0
C      1  0.4380680000000  0.5132210000000  0.5630500000000 1.0
C      1  0.4775370000000  0.5143580000000  0.4206770000000 1.0
C      1  0.5844620000000  0.4840370000000  0.5172730000000 1.0
C      1  0.4384400000000  0.4834930000000  0.5626470000000 1.0
C      1  0.4768250000000  0.4845100000000  0.4189610000000 1.0
C      1  0.4392430000000  0.4372820000000  0.5370380000000 1.0
C      1  0.4971490000000  0.4387030000000  0.4347080000000 1.0
C      1  0.5627900000000  0.4375300000000  0.5280570000000 1.0
C      1  0.4375720000000  0.5589400000000  0.5386270000000 1.0
C      1  0.4997690000000  0.5603890000000  0.4368590000000 1.0
C      1  0.5627170000000  0.5604370000000  0.5282060000000 1.0
C      1  0.5193040000000  0.5233760000000  0.5276010000000 1.0
C      1  0.4645570000000  0.5247680000000  0.5057630000000 1.0
C      1  0.5086520000000  0.5177540000000  0.4791290000000 1.0
C      1  0.5179440000000  0.4795300000000  0.5247560000000 1.0
C      1  0.4676830000000  0.4797550000000  0.5035830000000 1.0
C      1  0.5105750000000  0.4711780000000  0.4747400000000 1.0
C      1  0.4805400000000  0.4255480000000  0.4539070000000 1.0
C      1  0.5556800000000  0.4220080000000  0.5042160000000 1.0
C      1  0.4628620000000  0.4223680000000  0.5415760000000 1.0
C      1  0.4843990000000  0.5771730000000  0.4552250000000 1.0
C      1  0.5584550000000  0.5745230000000  0.5039330000000 1.0
C      1  0.4596310000000  0.5766720000000  0.5442960000000 1.0
C      1  0.5922560000000  0.5146090000000  0.4648970000000 1.0
C      1  0.4856820000000  0.5126700000000  0.5902520000000 1.0
C      1  0.4300500000000  0.5113720000000  0.4428800000000 1.0
C      1  0.5891160000000  0.4873490000000  0.4649400000000 1.0
C      1  0.4859940000000  0.4853230000000  0.5903840000000 1.0
C      1  0.4256510000000  0.4846040000000  0.4379540000000 1.0
C      1  0.5373600000000  0.5936370000000  0.5013380000000 1.0
C      1  0.4560880000000  0.6018460000000  0.5341440000000 1.0
C      1  0.4991410000000  0.5941310000000  0.4735130000000 1.0
C      1  0.5324410000000  0.4055840000000  0.5037280000000 1.0
C      1  0.4712800000000  0.4003610000000  0.5236610000000 1.0
C      1  0.4906370000000  0.4078930000000  0.4745760000000 1.0
C      1  0.4536220000000  0.5705330000000  0.4947470000000 1.0
C      1  0.5418160000000  0.5730670000000  0.4596900000000 1.0
C      1  0.5136480000000  0.5696620000000  0.5356440000000 1.0
C      1  0.4545760000000  0.4318180000000  0.4923100000000 1.0
C      1  0.5361960000000  0.4227790000000  0.4604700000000 1.0
C      1  0.5157750000000  0.4327290000000  0.5385500000000 1.0
C      1  0.4639970000000  0.5241630000000  0.5733480000000 1.0
C      1  0.4542960000000  0.5246590000000  0.4344720000000 1.0
C      1  0.5854650000000  0.5237530000000  0.4916090000000 1.0
C      1  0.4642970000000  0.4741700000000  0.5735910000000 1.0
C      1  0.4522060000000  0.4746200000000  0.4305990000000 1.0
C      1  0.5836250000000  0.4745850000000  0.4899170000000 1.0
C      1  0.4847190000000  0.4416880000000  0.5397590000000 1.0
C      1  0.4579080000000  0.4390850000000  0.4644170000000 1.0
C      1  0.5574710000000  0.4320160000000  0.4773740000000 1.0
C      1  0.4842750000000  0.5603460000000  0.5399410000000 1.0
C      1  0.4602300000000  0.5667620000000  0.4661170000000 1.0
C      1  0.5589540000000  0.5605480000000  0.4787830000000 1.0
C      1  0.5146600000000  0.5937910000000  0.5183970000000 1.0
C      1  0.4638120000000  0.5956120000000  0.5085300000000 1.0
C      1  0.5275740000000  0.5929800000000  0.4740570000000 1.0
C      1  0.5167880000000  0.4052350000000  0.5274140000000 1.0
C      1  0.4701970000000  0.4074950000000  0.4958360000000 1.0
C      1  0.5190990000000  0.4065620000000  0.4775170000000 1.0
C      1  0.4656980000000  0.4898050000000  0.4757330000000 1.0
C      1  0.5378850000000  0.4800400000000  0.4749590000000 1.0
C      1  0.5023230000000  0.4854000000000  0.5483410000000 1.0
C      1  0.4542080000000  0.5189260000000  0.4789630000000 1.0
C      1  0.5362980000000  0.5079050000000  0.4848680000000 1.0
C      1  0.5024770000000  0.5166490000000  0.5498870000000 1.0
C      1  0.5426920000000  0.4391730000000  0.5508300000000 1.0
C      1  0.4308130000000  0.4381730000000  0.5087440000000 1.0
C      1  0.5266200000000  0.4379880000000  0.4381080000000 1.0
C      1  0.5412900000000  0.5602400000000  0.5487960000000 1.0
C      1  0.4298300000000  0.5583620000000  0.5102200000000 1.0
C      1  0.5289800000000  0.5590130000000  0.4388100000000 1.0
C      1  0.4996810000000  0.5337380000000  0.4235570000000 1.0
C      1  0.5731490000000  0.5344590000000  0.5364560000000 1.0
C      1  0.4257990000000  0.5328690000000  0.5441830000000 1.0
C      1  0.4987290000000  0.4648750000000  0.4212230000000 1.0
C      1  0.5728770000000  0.4639880000000  0.5355120000000 1.0
C      1  0.4284310000000  0.4636940000000  0.5420020000000 1.0
C      1  0.4261550000000  0.5214200000000  0.4703060000000 1.0
C      1  0.5692690000000  0.5241210000000  0.4499750000000 1.0
C      1  0.5111610000000  0.5227650000000  0.5779170000000 1.0
C      1  0.4225040000000  0.4734200000000  0.4651580000000 1.0
C      1  0.5706720000000  0.4729660000000  0.4482340000000 1.0
C      1  0.5115600000000  0.4766910000000  0.5767470000000 1.0
C      1  0.4772080000000  0.4522850000000  0.5078870000000 1.0
C      1  0.5033270000000  0.4552470000000  0.4963960000000 1.0
C      1  0.5216700000000  0.4533160000000  0.5166070000000 1.0
C      1  0.4769340000000  0.5500560000000  0.5080100000000 1.0
C      1  0.5013980000000  0.5420170000000  0.4931440000000 1.0
C      1  0.5186930000000  0.5477010000000  0.5145490000000 1.0
C      1  0.4110780000000  0.5126920000000  0.4936460000000 1.0
C      1  0.5512030000000  0.5130800000000  0.4302610000000 1.0
C      1  0.5393220000000  0.5147380000000  0.5765190000000 1.0
C      1  0.4129400000000  0.4831040000000  0.4910790000000 1.0
C      1  0.5508840000000  0.4834270000000  0.4289370000000 1.0
C      1  0.5395990000000  0.4848810000000  0.5762670000000 1.0
C      1  0.4937200000000  0.4942290000000  0.4716290000000 1.0
C      1  0.4715640000000  0.5018120000000  0.5194280000000 1.0
C      1  0.5289460000000  0.5022170000000  0.5128530000000 1.0
C      1  0.4951400000000  0.3889560000000  0.5304130000000 1.0
C      1  0.4912180000000  0.5990540000000  0.5007370000000 1.0
END
