TITL C-3510-9349-10 39.4274617123838 125000 -610.635829847908 0 0 90 (C2) n - 1
REM
REM in /rds/project/t2_vol4/rds-t2-cs072/BORA/CARBON/from-Arr/AIRSS/Generating-Clusters/GAP-ML-2020/Higher-Symm/SD-CG/HFTN-CG
REM
REM
REM
REM
REM
REM ./C.cell (b20cbc046b6831c77cfcea5457e17084)
REM AIRSS Version 0.9.1 bugfix July 2018 build 013d7b7c2542+ Fri, 06 Jul 2018 19:26:36 +0100
REM compiler GCC version 9.3.0
REM options -cpp -mtune=generic -march=x86-64 -g -O0
REM seed 113326064 1923092319 -1689565744 -1595571497 -1602241752 738949764 -1359642895 1511923127 -1609866051 330820705 479913962 -312697956 -1041708613 500365759 1236074157 -321532120 -1974305006 -221772858 1034294301 8711790 259198764 1771367642 655793612 2059973577 -1428027619 1406279940 -1573531839 -129440779 720659814 -442670793 186120303 238046005 46410535
REM
CELL 1.54180   50.00000   50.00000   50.00000   90.00000   90.00000   90.00000
LATT -1
SFAC C  
C      1  0.4939150000000  0.4646350000000  0.4823200000000 1.0
C      1  0.5239030000000  0.4671630000000  0.5140310000000 1.0
C      1  0.4758560000000  0.5363410000000  0.4839510000000 1.0
C      1  0.5068230000000  0.5329470000000  0.5151490000000 1.0
C      1  0.5241790000000  0.4651170000000  0.4827910000000 1.0
C      1  0.4931460000000  0.4674490000000  0.5140210000000 1.0
C      1  0.5061210000000  0.5368370000000  0.4835610000000 1.0
C      1  0.4760650000000  0.5332340000000  0.5151030000000 1.0
C      1  0.4846070000000  0.5165510000000  0.4203030000000 1.0
C      1  0.5133240000000  0.5146700000000  0.5931030000000 1.0
C      1  0.4870910000000  0.4868020000000  0.4198510000000 1.0
C      1  0.5151070000000  0.4847290000000  0.5920140000000 1.0
C      1  0.5130790000000  0.5168060000000  0.4203880000000 1.0
C      1  0.4846970000000  0.5130260000000  0.5924630000000 1.0
C      1  0.5155630000000  0.4870590000000  0.4198340000000 1.0
C      1  0.4864780000000  0.4830650000000  0.5925370000000 1.0
C      1  0.4438230000000  0.5346740000000  0.4420870000000 1.0
C      1  0.5512450000000  0.5176460000000  0.5656380000000 1.0
C      1  0.4486430000000  0.4709520000000  0.4410370000000 1.0
C      1  0.5480110000000  0.4886160000000  0.5557550000000 1.0
C      1  0.5514820000000  0.5319250000000  0.4421830000000 1.0
C      1  0.4518700000000  0.5103750000000  0.5560220000000 1.0
C      1  0.5563020000000  0.4682050000000  0.4410770000000 1.0
C      1  0.4486160000000  0.4810260000000  0.5649060000000 1.0
C      1  0.5728710000000  0.5253580000000  0.4828940000000 1.0
C      1  0.4294080000000  0.5138130000000  0.5110750000000 1.0
C      1  0.5724830000000  0.4748820000000  0.4843750000000 1.0
C      1  0.4218850000000  0.4846380000000  0.5075280000000 1.0
C      1  0.4275490000000  0.5265290000000  0.4850990000000 1.0
C      1  0.5780980000000  0.5159860000000  0.5082280000000 1.0
C      1  0.4271660000000  0.4761330000000  0.4819010000000 1.0
C      1  0.5705690000000  0.4867070000000  0.5107640000000 1.0
C      1  0.4688830000000  0.5627300000000  0.4745550000000 1.0
C      1  0.5219010000000  0.5526450000000  0.5309070000000 1.0
C      1  0.4788430000000  0.4410300000000  0.4736560000000 1.0
C      1  0.5305640000000  0.4438660000000  0.5307310000000 1.0
C      1  0.5212110000000  0.5607230000000  0.4757360000000 1.0
C      1  0.4693680000000  0.5559490000000  0.5325720000000 1.0
C      1  0.5311730000000  0.4390620000000  0.4725180000000 1.0
C      1  0.4780350000000  0.4472270000000  0.5290680000000 1.0
C      1  0.5259570000000  0.5390200000000  0.4316480000000 1.0
C      1  0.4707380000000  0.5267840000000  0.5725550000000 1.0
C      1  0.5304580000000  0.4645010000000  0.4296610000000 1.0
C      1  0.4729660000000  0.4673670000000  0.5741850000000 1.0
C      1  0.4696900000000  0.5387630000000  0.4308590000000 1.0
C      1  0.5268750000000  0.5309820000000  0.5753240000000 1.0
C      1  0.4741900000000  0.4642190000000  0.4303210000000 1.0
C      1  0.5291090000000  0.4716550000000  0.5716800000000 1.0
C      1  0.4280860000000  0.5268590000000  0.5518340000000 1.0
C      1  0.5695860000000  0.5509240000000  0.4480940000000 1.0
C      1  0.4294520000000  0.4678310000000  0.5512200000000 1.0
C      1  0.5762720000000  0.4510530000000  0.4467510000000 1.0
C      1  0.5704380000000  0.5312980000000  0.5524500000000 1.0
C      1  0.4238400000000  0.5516230000000  0.4482990000000 1.0
C      1  0.5718050000000  0.4722830000000  0.5510590000000 1.0
C      1  0.4305260000000  0.4517640000000  0.4462600000000 1.0
C      1  0.4894180000000  0.4447050000000  0.4469950000000 1.0
C      1  0.5174040000000  0.4502690000000  0.5562230000000 1.0
C      1  0.4822810000000  0.5585290000000  0.4477940000000 1.0
C      1  0.5114240000000  0.5489580000000  0.5572220000000 1.0
C      1  0.5178320000000  0.4441710000000  0.4458870000000 1.0
C      1  0.4884560000000  0.4500170000000  0.5555150000000 1.0
C      1  0.5106930000000  0.5579570000000  0.4489440000000 1.0
C      1  0.4824750000000  0.5486830000000  0.5578590000000 1.0
C      1  0.4258250000000  0.5392920000000  0.5285130000000 1.0
C      1  0.5698190000000  0.5530450000000  0.4755270000000 1.0
C      1  0.4305630000000  0.4629410000000  0.5248500000000 1.0
C      1  0.5771250000000  0.4474930000000  0.4750790000000 1.0
C      1  0.5693820000000  0.5370810000000  0.5262590000000 1.0
C      1  0.4229260000000  0.5542180000000  0.4767300000000 1.0
C      1  0.5741160000000  0.4606500000000  0.5273330000000 1.0
C      1  0.4302350000000  0.4487120000000  0.4736040000000 1.0
C      1  0.5467510000000  0.5632760000000  0.4900820000000 1.0
C      1  0.4449410000000  0.5605220000000  0.5188900000000 1.0
C      1  0.5552260000000  0.4343740000000  0.4883840000000 1.0
C      1  0.4524470000000  0.4441050000000  0.5155310000000 1.0
C      1  0.4447960000000  0.5668770000000  0.4905200000000 1.0
C      1  0.5475180000000  0.5562250000000  0.5175380000000 1.0
C      1  0.4532720000000  0.4379910000000  0.4878520000000 1.0
C      1  0.5550210000000  0.4397610000000  0.5169530000000 1.0
C      1  0.4601280000000  0.5096370000000  0.5237390000000 1.0
C      1  0.5496380000000  0.5125170000000  0.4667680000000 1.0
C      1  0.4766990000000  0.4918840000000  0.5094430000000 1.0
C      1  0.5508960000000  0.4830360000000  0.4667390000000 1.0
C      1  0.5232800000000  0.5086810000000  0.5097780000000 1.0
C      1  0.4491750000000  0.5189780000000  0.4672420000000 1.0
C      1  0.5398210000000  0.4904520000000  0.5234980000000 1.0
C      1  0.4504330000000  0.4895130000000  0.4662710000000 1.0
C      1  0.5232070000000  0.5125650000000  0.4814800000000 1.0
C      1  0.4768330000000  0.4889650000000  0.4810300000000 1.0
END
