TITL C-35325-8846-1 104.420173834514 125000 -500.584225308919 0 0 74 (Cs) n - 1
REM
REM in /rds/project/t2_vol4/rds-t2-cs072/BORA/CARBON/from-Arr/AIRSS/Generating-Clusters/GAP-ML-2020/Higher-Symm/SD-CG/HFTN-CG
REM
REM
REM
REM
REM
REM ./C.cell (b20cbc046b6831c77cfcea5457e17084)
REM AIRSS Version 0.9.1 bugfix July 2018 build 013d7b7c2542+ Fri, 06 Jul 2018 19:26:36 +0100
REM compiler GCC version 9.3.0
REM options -cpp -mtune=generic -march=x86-64 -g -O0
REM seed -1184487126 2048456868 -458662944 -1406471036 1182434846 -1483353949 969715031 -1387394806 1689359455 1293623992 -768276370 1010659043 493219222 -1234540112 1495491060 -916808085 -1558806104 -2000221302 -1345647695 -2047839308 2046470054 -1939474912 2016890199 293848486 2002679785 -1350119559 2147298935 -1347784840 -1823050123 -156069989 -31294365 1174579634 1616649591
REM
CELL 1.54180   50.00000   50.00000   50.00000   90.00000   90.00000   90.00000
LATT -1
SFAC C  
C      1  0.4377890000000  0.4693290000000  0.4909190000000 1.0
C      1  0.5585050000000  0.5310130000000  0.4870550000000 1.0
C      1  0.4377890000000  0.5306710000000  0.4909200000000 1.0
C      1  0.5585050000000  0.4689880000000  0.4870540000000 1.0
C      1  0.5413250000000  0.5140270000000  0.4436160000000 1.0
C      1  0.4647950000000  0.4857620000000  0.4517370000000 1.0
C      1  0.5413250000000  0.4859760000000  0.4436150000000 1.0
C      1  0.4647940000000  0.5142390000000  0.4517370000000 1.0
C      1  0.5204760000000  0.5640290000000  0.4963830000000 1.0
C      1  0.4745280000000  0.4362510000000  0.4978640000000 1.0
C      1  0.5204760000000  0.4359710000000  0.4963800000000 1.0
C      1  0.4745280000000  0.5637490000000  0.4978660000000 1.0
C      1  0.5709470000000  0.4860630000000  0.5076650000000 1.0
C      1  0.4249810000000  0.5138970000000  0.5115140000000 1.0
C      1  0.5709470000000  0.5139370000000  0.5076650000000 1.0
C      1  0.4249810000000  0.4861020000000  0.5115140000000 1.0
C      1  0.5321230000000  0.4690700000000  0.4231480000000 1.0
C      1  0.4806060000000  0.5307900000000  0.4367070000000 1.0
C      1  0.5321230000000  0.5309330000000  0.4231490000000 1.0
C      1  0.4806070000000  0.4692130000000  0.4367050000000 1.0
C      1  0.5597630000000  0.5594680000000  0.5229750000000 1.0
C      1  0.4368170000000  0.4405550000000  0.5265270000000 1.0
C      1  0.5597630000000  0.4405320000000  0.5229730000000 1.0
C      1  0.4368170000000  0.5594440000000  0.5265290000000 1.0
C      1  0.5163030000000  0.4848640000000  0.4052550000000 1.0
C      1  0.4889580000000  0.5149800000000  0.4142360000000 1.0
C      1  0.5163030000000  0.5151400000000  0.4052560000000 1.0
C      1  0.4889580000000  0.4850230000000  0.4142360000000 1.0
C      1  0.4975950000000  0.4477150000000  0.4510190000000 1.0
C      1  0.5198310000000  0.5532720000000  0.4354650000000 1.0
C      1  0.4975950000000  0.5522870000000  0.4510210000000 1.0
C      1  0.5198320000000  0.4467310000000  0.4354630000000 1.0
C      1  0.5504110000000  0.5726430000000  0.5458830000000 1.0
C      1  0.4481920000000  0.4276660000000  0.5486980000000 1.0
C      1  0.5504110000000  0.4273550000000  0.5458800000000 1.0
C      1  0.4481910000000  0.5723320000000  0.5487000000000 1.0
C      1  0.5124630000000  0.4459400000000  0.5234610000000 1.0
C      1  0.4843280000000  0.5541990000000  0.5247210000000 1.0
C      1  0.5124630000000  0.5540600000000  0.5234630000000 1.0
C      1  0.4843280000000  0.4458000000000  0.5247190000000 1.0
C      1  0.5152730000000  0.4851290000000  0.5495290000000 1.0
C      1  0.4833620000000  0.5149460000000  0.5514850000000 1.0
C      1  0.5152730000000  0.5148690000000  0.5495300000000 1.0
C      1  0.4833620000000  0.4850520000000  0.5514840000000 1.0
C      1  0.4726160000000  0.5619080000000  0.5525920000000 1.0
C      1  0.5262850000000  0.4383830000000  0.5504480000000 1.0
C      1  0.4726170000000  0.4380900000000  0.5525890000000 1.0
C      1  0.5262840000000  0.5616160000000  0.5504500000000 1.0
C      1  0.4602690000000  0.4840630000000  0.4802750000000 1.0
C      1  0.5382050000000  0.5158440000000  0.4733970000000 1.0
C      1  0.4602690000000  0.5159370000000  0.4802760000000 1.0
C      1  0.5382050000000  0.4841570000000  0.4733960000000 1.0
C      1  0.5491560000000  0.5579520000000  0.4961910000000 1.0
C      1  0.4461160000000  0.4421870000000  0.4989880000000 1.0
C      1  0.5491560000000  0.4420480000000  0.4961890000000 1.0
C      1  0.4461150000000  0.5578130000000  0.4989900000000 1.0
C      1  0.4414150000000  0.5304010000000  0.5283280000000 1.0
C      1  0.5552400000000  0.4696500000000  0.5249840000000 1.0
C      1  0.4414150000000  0.4695970000000  0.5283270000000 1.0
C      1  0.5552400000000  0.5303490000000  0.5249850000000 1.0
C      1  0.5251100000000  0.5260010000000  0.5234810000000 1.0
C      1  0.4719470000000  0.4738820000000  0.5264270000000 1.0
C      1  0.5251100000000  0.4739990000000  0.5234800000000 1.0
C      1  0.4719470000000  0.5261170000000  0.5264280000000 1.0
C      1  0.5138330000000  0.5148030000000  0.4966660000000 1.0
C      1  0.4833090000000  0.4850890000000  0.5000360000000 1.0
C      1  0.5138330000000  0.4851970000000  0.4966660000000 1.0
C      1  0.4833090000000  0.5149110000000  0.5000370000000 1.0
C      1  0.5144450000000  0.4599560000000  0.5662560000000 1.0
C      1  0.4859090000000  0.5401600000000  0.5679130000000 1.0
C      1  0.5144440000000  0.5400420000000  0.5662570000000 1.0
C      1  0.4859090000000  0.4598380000000  0.5679120000000 1.0
C      1  0.4967760000000  0.5629820000000  0.4795100000000 1.0
C      1  0.4967770000000  0.4370190000000  0.4795080000000 1.0
END
