TITL C-35908-4231-4 -84.7968297222467 125000 -1306.57687957773 0 0 188 (C1) n - 1
REM
REM in /rds/project/t2_vol4/rds-t2-cs072/BORA/CARBON/from-Arr/AIRSS/Generating-Clusters/GAP-ML-2020/Higher-Symm/SD-CG/HFTN-CG/C160-200
REM
REM
REM
REM
REM
REM ./C.cell (6b4489405718ea1b717e0baf1da4c2d9)
REM AIRSS Version 0.9.1 bugfix July 2018 build 013d7b7c2542+ Fri, 06 Jul 2018 19:26:36 +0100
REM compiler GCC version 9.3.0
REM options -cpp -mtune=generic -march=x86-64 -g -O0
REM seed 65511696 -884135949 -109254246 -2137237184 653546737 -1880459602 474148857 940790769 802447444 597925345 368443954 -1242382595 1507600146 -1694058702 10185974 920078748 70343976 -185365821 1610404877 1295815368 -1906752682 1981737041 -1285480010 -292646060 709941002 108340845 263851691 -288285646 -1256709509 -593223974 -1736685427 1539360041 -509091106
REM
CELL 1.54180   50.00000   50.00000   50.00000   90.00000   90.00000   90.00000
LATT -1
SFAC C  
C      1  0.5461550000000  0.4289350000000  0.5762050000000 1.0
C      1  0.5568000000000  0.4421300000000  0.4237180000000 1.0
C      1  0.5358990000000  0.5424620000000  0.4149240000000 1.0
C      1  0.5333650000000  0.5390580000000  0.5836130000000 1.0
C      1  0.5058790000000  0.5827830000000  0.5542510000000 1.0
C      1  0.5124620000000  0.5928490000000  0.4324620000000 1.0
C      1  0.4677850000000  0.5449880000000  0.4743030000000 1.0
C      1  0.4683120000000  0.5372090000000  0.5217420000000 1.0
C      1  0.5970180000000  0.5475910000000  0.5778620000000 1.0
C      1  0.5923740000000  0.5056660000000  0.4375300000000 1.0
C      1  0.4172940000000  0.4953710000000  0.4631190000000 1.0
C      1  0.4223510000000  0.4853370000000  0.5490550000000 1.0
C      1  0.4808450000000  0.5036570000000  0.4077310000000 1.0
C      1  0.4771970000000  0.5006200000000  0.6018670000000 1.0
C      1  0.4511920000000  0.4785320000000  0.5502750000000 1.0
C      1  0.4461920000000  0.4882380000000  0.4713430000000 1.0
C      1  0.4120480000000  0.4703720000000  0.5700160000000 1.0
C      1  0.4130210000000  0.4830740000000  0.4375310000000 1.0
C      1  0.4706170000000  0.4489360000000  0.4246720000000 1.0
C      1  0.4641030000000  0.4374930000000  0.5940540000000 1.0
C      1  0.5341160000000  0.5807970000000  0.5538000000000 1.0
C      1  0.5446830000000  0.5684350000000  0.4603830000000 1.0
C      1  0.4720880000000  0.4639530000000  0.4535290000000 1.0
C      1  0.4854990000000  0.4529040000000  0.5521000000000 1.0
C      1  0.5712930000000  0.5100760000000  0.5308320000000 1.0
C      1  0.5586620000000  0.5076390000000  0.4620620000000 1.0
C      1  0.5071850000000  0.5483930000000  0.4129260000000 1.0
C      1  0.5045080000000  0.5445700000000  0.5874080000000 1.0
C      1  0.4939100000000  0.4567660000000  0.4060930000000 1.0
C      1  0.4764400000000  0.4526560000000  0.6135230000000 1.0
C      1  0.4466150000000  0.4983900000000  0.5960460000000 1.0
C      1  0.4503790000000  0.5016570000000  0.4115020000000 1.0
C      1  0.5839640000000  0.5258440000000  0.5814470000000 1.0
C      1  0.5834820000000  0.5228740000000  0.4166630000000 1.0
C      1  0.5278530000000  0.4069030000000  0.5727360000000 1.0
C      1  0.5335470000000  0.4245600000000  0.4221790000000 1.0
C      1  0.5390350000000  0.5066090000000  0.5315170000000 1.0
C      1  0.5309800000000  0.5138630000000  0.4602060000000 1.0
C      1  0.4649080000000  0.5660870000000  0.5747840000000 1.0
C      1  0.4691420000000  0.5733120000000  0.4228040000000 1.0
C      1  0.5121120000000  0.3996170000000  0.4609800000000 1.0
C      1  0.4963170000000  0.3929940000000  0.5377060000000 1.0
C      1  0.5437620000000  0.5929940000000  0.5316710000000 1.0
C      1  0.5228400000000  0.5863500000000  0.4575110000000 1.0
C      1  0.4959170000000  0.5280350000000  0.5372640000000 1.0
C      1  0.4945280000000  0.5479520000000  0.4632290000000 1.0
C      1  0.5583460000000  0.4346900000000  0.5490120000000 1.0
C      1  0.5739350000000  0.4289590000000  0.4429750000000 1.0
C      1  0.5764880000000  0.4867500000000  0.5532950000000 1.0
C      1  0.5732260000000  0.4837890000000  0.4457660000000 1.0
C      1  0.5108230000000  0.4556070000000  0.5393030000000 1.0
C      1  0.4942570000000  0.4598210000000  0.4694940000000 1.0
C      1  0.5743940000000  0.5521560000000  0.5569390000000 1.0
C      1  0.5788130000000  0.5436700000000  0.4368380000000 1.0
C      1  0.5854700000000  0.4675830000000  0.4679400000000 1.0
C      1  0.5959110000000  0.4656820000000  0.5503380000000 1.0
C      1  0.5117760000000  0.5287740000000  0.4778840000000 1.0
C      1  0.5231150000000  0.5313760000000  0.5269850000000 1.0
C      1  0.5777280000000  0.5393740000000  0.5309240000000 1.0
C      1  0.5843440000000  0.5252280000000  0.4592000000000 1.0
C      1  0.4578780000000  0.5819370000000  0.4480100000000 1.0
C      1  0.4529360000000  0.5715910000000  0.5493690000000 1.0
C      1  0.4976520000000  0.5761970000000  0.4180280000000 1.0
C      1  0.4931720000000  0.5700750000000  0.5761080000000 1.0
C      1  0.4928110000000  0.4995350000000  0.5754620000000 1.0
C      1  0.4905540000000  0.5064980000000  0.4377440000000 1.0
C      1  0.4632910000000  0.4032970000000  0.4683770000000 1.0
C      1  0.4476240000000  0.4071820000000  0.5368160000000 1.0
C      1  0.4353350000000  0.4127030000000  0.4645560000000 1.0
C      1  0.4337390000000  0.4333850000000  0.5384270000000 1.0
C      1  0.4893740000000  0.4997620000000  0.5287760000000 1.0
C      1  0.4911340000000  0.5078440000000  0.4854230000000 1.0
C      1  0.4585090000000  0.5434700000000  0.5916780000000 1.0
C      1  0.4613120000000  0.5484090000000  0.4090920000000 1.0
C      1  0.5721530000000  0.5168630000000  0.3932220000000 1.0
C      1  0.5692620000000  0.5028490000000  0.5787830000000 1.0
C      1  0.4307750000000  0.4748050000000  0.5926700000000 1.0
C      1  0.4327630000000  0.4783540000000  0.4193660000000 1.0
C      1  0.5475230000000  0.5588720000000  0.5680370000000 1.0
C      1  0.5529340000000  0.5554240000000  0.4355930000000 1.0
C      1  0.5287980000000  0.4791110000000  0.5495240000000 1.0
C      1  0.5188380000000  0.4669370000000  0.4586400000000 1.0
C      1  0.5602030000000  0.4083180000000  0.4557610000000 1.0
C      1  0.5438280000000  0.4131090000000  0.5315340000000 1.0
C      1  0.4436930000000  0.5594600000000  0.4604640000000 1.0
C      1  0.4446470000000  0.5462880000000  0.5391320000000 1.0
C      1  0.4946390000000  0.5263030000000  0.5655000000000 1.0
C      1  0.4950690000000  0.5352820000000  0.4380960000000 1.0
C      1  0.4178560000000  0.5235270000000  0.4634340000000 1.0
C      1  0.4181530000000  0.5094280000000  0.5374500000000 1.0
C      1  0.5454440000000  0.5161550000000  0.4038510000000 1.0
C      1  0.5422590000000  0.5111290000000  0.5834430000000 1.0
C      1  0.4814370000000  0.4267010000000  0.5718360000000 1.0
C      1  0.4847380000000  0.4219250000000  0.4278180000000 1.0
C      1  0.4999880000000  0.5782030000000  0.4740910000000 1.0
C      1  0.4930880000000  0.5862430000000  0.5285360000000 1.0
C      1  0.4640280000000  0.5875280000000  0.5279430000000 1.0
C      1  0.4734800000000  0.5923470000000  0.4727300000000 1.0
C      1  0.5327300000000  0.4896110000000  0.4142000000000 1.0
C      1  0.5169870000000  0.4680860000000  0.5993110000000 1.0
C      1  0.4747290000000  0.4946720000000  0.4605370000000 1.0
C      1  0.4795730000000  0.4846140000000  0.5533770000000 1.0
C      1  0.4734520000000  0.4048050000000  0.5510660000000 1.0
C      1  0.4858890000000  0.4044200000000  0.4500290000000 1.0
C      1  0.5563150000000  0.4705020000000  0.4227520000000 1.0
C      1  0.5266130000000  0.4421970000000  0.5938350000000 1.0
C      1  0.4465570000000  0.4568100000000  0.4672720000000 1.0
C      1  0.4583020000000  0.4541000000000  0.5364180000000 1.0
C      1  0.4305050000000  0.5277240000000  0.5552770000000 1.0
C      1  0.4307730000000  0.5386200000000  0.4441240000000 1.0
C      1  0.5188400000000  0.4941540000000  0.4430000000000 1.0
C      1  0.5217900000000  0.4894280000000  0.5788630000000 1.0
C      1  0.5895540000000  0.4402860000000  0.4636920000000 1.0
C      1  0.5880470000000  0.4418790000000  0.5387590000000 1.0
C      1  0.5033490000000  0.4824550000000  0.4011890000000 1.0
C      1  0.4912650000000  0.4747600000000  0.6121500000000 1.0
C      1  0.5544030000000  0.4657670000000  0.5429470000000 1.0
C      1  0.5389020000000  0.4524450000000  0.4702210000000 1.0
C      1  0.5073490000000  0.4208480000000  0.5862450000000 1.0
C      1  0.5074050000000  0.4317530000000  0.4134250000000 1.0
C      1  0.4382760000000  0.4468550000000  0.5881670000000 1.0
C      1  0.4406930000000  0.4506610000000  0.4235940000000 1.0
C      1  0.4216660000000  0.4431670000000  0.5648230000000 1.0
C      1  0.4330980000000  0.4379870000000  0.4495700000000 1.0
C      1  0.4426640000000  0.5292290000000  0.4197770000000 1.0
C      1  0.4400640000000  0.5232290000000  0.5826480000000 1.0
C      1  0.4840810000000  0.5335280000000  0.4006260000000 1.0
C      1  0.4816510000000  0.5317460000000  0.6040520000000 1.0
C      1  0.5232560000000  0.3995240000000  0.5461930000000 1.0
C      1  0.5347380000000  0.4056570000000  0.4443570000000 1.0
C      1  0.5709870000000  0.3772240000000  0.4934520000000 1.0
C      1  0.3769510000000  0.4701600000000  0.5059660000000 1.0
C      1  0.4662490000000  0.3906280000000  0.4965230000000 1.0
C      1  0.4558820000000  0.5798500000000  0.4990450000000 1.0
C      1  0.4700870000000  0.5112180000000  0.5073890000000 1.0
C      1  0.4492170000000  0.4925810000000  0.5004630000000 1.0
C      1  0.5553070000000  0.5052330000000  0.4897760000000 1.0
C      1  0.5673820000000  0.4043380000000  0.4852520000000 1.0
C      1  0.5584860000000  0.6234550000000  0.4856570000000 1.0
C      1  0.6309880000000  0.5570280000000  0.4959140000000 1.0
C      1  0.5161270000000  0.4017190000000  0.4899050000000 1.0
C      1  0.5810630000000  0.5026120000000  0.5033090000000 1.0
C      1  0.4070950000000  0.4879590000000  0.4913800000000 1.0
C      1  0.4628070000000  0.4642750000000  0.5090530000000 1.0
C      1  0.4307720000000  0.5638680000000  0.4879540000000 1.0
C      1  0.5427300000000  0.4134100000000  0.5018130000000 1.0
C      1  0.3939060000000  0.5429690000000  0.5004720000000 1.0
C      1  0.4012370000000  0.4586170000000  0.5003630000000 1.0
C      1  0.5237310000000  0.5467250000000  0.5016380000000 1.0
C      1  0.5359170000000  0.4913550000000  0.5064770000000 1.0
C      1  0.5769180000000  0.5516230000000  0.5024880000000 1.0
C      1  0.4238200000000  0.5065410000000  0.5082250000000 1.0
C      1  0.4498040000000  0.4441290000000  0.4937320000000 1.0
C      1  0.4120550000000  0.6177220000000  0.5000530000000 1.0
C      1  0.4809950000000  0.6220610000000  0.4775340000000 1.0
C      1  0.4341660000000  0.6316900000000  0.4955850000000 1.0
C      1  0.5082040000000  0.6290300000000  0.4806260000000 1.0
C      1  0.4244150000000  0.4114950000000  0.4924670000000 1.0
C      1  0.4729110000000  0.5563100000000  0.5009070000000 1.0
C      1  0.3970570000000  0.5970340000000  0.5019020000000 1.0
C      1  0.4699570000000  0.4218330000000  0.4906510000000 1.0
C      1  0.3783880000000  0.4974690000000  0.4994100000000 1.0
C      1  0.5905960000000  0.5799600000000  0.4964030000000 1.0
C      1  0.5481830000000  0.5874050000000  0.5059200000000 1.0
C      1  0.3743810000000  0.5243200000000  0.5030090000000 1.0
C      1  0.5820830000000  0.4723470000000  0.4974030000000 1.0
C      1  0.5335060000000  0.6328820000000  0.4839840000000 1.0
C      1  0.4426930000000  0.3961670000000  0.5107070000000 1.0
C      1  0.5099060000000  0.4450660000000  0.5120800000000 1.0
C      1  0.4203450000000  0.5321010000000  0.4912360000000 1.0
C      1  0.5530910000000  0.4666940000000  0.5117590000000 1.0
C      1  0.5888120000000  0.4263380000000  0.4884230000000 1.0
C      1  0.4214950000000  0.4372230000000  0.5076750000000 1.0
C      1  0.4577240000000  0.6346850000000  0.4867310000000 1.0
C      1  0.4933070000000  0.3905540000000  0.5094770000000 1.0
C      1  0.4923820000000  0.4641770000000  0.4986920000000 1.0
C      1  0.5053010000000  0.4894820000000  0.5044970000000 1.0
C      1  0.5942510000000  0.5272290000000  0.4887040000000 1.0
C      1  0.4027370000000  0.5706310000000  0.4971140000000 1.0
C      1  0.5377620000000  0.4443470000000  0.4979710000000 1.0
C      1  0.5633320000000  0.3538310000000  0.4971200000000 1.0
C      1  0.5908680000000  0.4443910000000  0.5098820000000 1.0
C      1  0.5012980000000  0.5692450000000  0.5031470000000 1.0
C      1  0.6228750000000  0.5328150000000  0.4929270000000 1.0
C      1  0.6178960000000  0.5804470000000  0.4962810000000 1.0
C      1  0.4966030000000  0.4209010000000  0.5010970000000 1.0
C      1  0.5490030000000  0.5603640000000  0.4911560000000 1.0
C      1  0.5709810000000  0.6013470000000  0.4943060000000 1.0
END
