TITL C-35334-8789-8 -0.107239139293854 125000 -704.691689721979 0 0 102 (C1) n - 1
REM
REM in /rds/project/t2_vol4/rds-t2-cs072/BORA/CARBON/from-Arr/AIRSS/Generating-Clusters/GAP-ML-2020/Higher-Symm/SD-CG/HFTN-CG
REM
REM
REM
REM
REM
REM ./C.cell (b20cbc046b6831c77cfcea5457e17084)
REM AIRSS Version 0.9.1 bugfix July 2018 build 013d7b7c2542+ Fri, 06 Jul 2018 19:26:36 +0100
REM compiler GCC version 9.3.0
REM options -cpp -mtune=generic -march=x86-64 -g -O0
REM seed -1378105510 -2095205832 294246506 1041359288 1767927788 479529175 -926145961 -1783508243 -1606507832 515614442 -1142270442 583737878 18619968 396994810 -1043596317 -1902611330 1204745770 -905002598 -1517066888 1238624603 1626536498 -1521114387 -1554850500 1587949506 627065096 -648389294 876823122 1389429819 846197920 1087169070 -1590911287 -641794222 -1025983829
REM
CELL 1.54180   50.00000   50.00000   50.00000   90.00000   90.00000   90.00000
LATT -1
SFAC C  
C      1  0.5104680000000  0.5763280000000  0.5308010000000 1.0
C      1  0.5229510000000  0.4368900000000  0.5617210000000 1.0
C      1  0.5079310000000  0.4846980000000  0.4157400000000 1.0
C      1  0.4307110000000  0.5057850000000  0.5314270000000 1.0
C      1  0.4219360000000  0.4608330000000  0.4891210000000 1.0
C      1  0.4217130000000  0.5179830000000  0.4701110000000 1.0
C      1  0.5292940000000  0.4750170000000  0.5859410000000 1.0
C      1  0.5204650000000  0.4474110000000  0.4399640000000 1.0
C      1  0.5183670000000  0.5836440000000  0.4797600000000 1.0
C      1  0.4974940000000  0.4752750000000  0.5185540000000 1.0
C      1  0.5001090000000  0.4924430000000  0.4742860000000 1.0
C      1  0.5106590000000  0.5354170000000  0.4994390000000 1.0
C      1  0.5874570000000  0.4892890000000  0.4709240000000 1.0
C      1  0.5831520000000  0.5321110000000  0.4943990000000 1.0
C      1  0.5834990000000  0.4851010000000  0.5280700000000 1.0
C      1  0.5718850000000  0.5055390000000  0.5464780000000 1.0
C      1  0.5731330000000  0.4658850000000  0.4802890000000 1.0
C      1  0.5766690000000  0.5415730000000  0.4685060000000 1.0
C      1  0.5097930000000  0.4563150000000  0.5783070000000 1.0
C      1  0.4978110000000  0.4595340000000  0.4263350000000 1.0
C      1  0.4926020000000  0.5842020000000  0.4901950000000 1.0
C      1  0.4221780000000  0.5045500000000  0.4434890000000 1.0
C      1  0.4318960000000  0.5359380000000  0.5285760000000 1.0
C      1  0.4423900000000  0.4453150000000  0.5326090000000 1.0
C      1  0.5444860000000  0.5497790000000  0.5432200000000 1.0
C      1  0.5512290000000  0.4451180000000  0.5249490000000 1.0
C      1  0.5355790000000  0.5154220000000  0.4349610000000 1.0
C      1  0.4295140000000  0.5464070000000  0.4755690000000 1.0
C      1  0.4430820000000  0.4900540000000  0.5563700000000 1.0
C      1  0.4301290000000  0.4581660000000  0.4624740000000 1.0
C      1  0.5434800000000  0.4652350000000  0.4375050000000 1.0
C      1  0.5417210000000  0.5749720000000  0.4956120000000 1.0
C      1  0.5544830000000  0.4681480000000  0.5720440000000 1.0
C      1  0.4426510000000  0.5060260000000  0.4223800000000 1.0
C      1  0.4506710000000  0.5568220000000  0.5374390000000 1.0
C      1  0.4596960000000  0.4261300000000  0.5458780000000 1.0
C      1  0.4572060000000  0.4518210000000  0.4604810000000 1.0
C      1  0.4587340000000  0.5551020000000  0.4690940000000 1.0
C      1  0.4735090000000  0.4929520000000  0.5595360000000 1.0
C      1  0.5009000000000  0.5642810000000  0.5545230000000 1.0
C      1  0.5083600000000  0.4286310000000  0.5380100000000 1.0
C      1  0.4912560000000  0.5096920000000  0.4240650000000 1.0
C      1  0.4608890000000  0.4456780000000  0.5676580000000 1.0
C      1  0.4468610000000  0.4774410000000  0.4245680000000 1.0
C      1  0.4479670000000  0.5703110000000  0.5114320000000 1.0
C      1  0.5174710000000  0.4270790000000  0.4890350000000 1.0
C      1  0.5054670000000  0.5546680000000  0.4412550000000 1.0
C      1  0.5145930000000  0.5230760000000  0.5766890000000 1.0
C      1  0.4697270000000  0.5365560000000  0.5743870000000 1.0
C      1  0.4797400000000  0.4050240000000  0.5091170000000 1.0
C      1  0.4642540000000  0.5493630000000  0.4187800000000 1.0
C      1  0.4695410000000  0.4496650000000  0.4873490000000 1.0
C      1  0.4675130000000  0.5268350000000  0.4799490000000 1.0
C      1  0.4781130000000  0.4980020000000  0.5272000000000 1.0
C      1  0.4753580000000  0.5583880000000  0.4421720000000 1.0
C      1  0.4861290000000  0.5154910000000  0.5766500000000 1.0
C      1  0.4876700000000  0.4244210000000  0.4918160000000 1.0
C      1  0.5296160000000  0.4911920000000  0.4773710000000 1.0
C      1  0.5382600000000  0.5334580000000  0.4865010000000 1.0
C      1  0.5208260000000  0.4936240000000  0.5231990000000 1.0
C      1  0.5730000000000  0.5136850000000  0.4618830000000 1.0
C      1  0.5606970000000  0.5286780000000  0.5345720000000 1.0
C      1  0.5641680000000  0.4684710000000  0.5106390000000 1.0
C      1  0.4495880000000  0.5064920000000  0.4853950000000 1.0
C      1  0.4519740000000  0.4928340000000  0.5114950000000 1.0
C      1  0.4460870000000  0.4590110000000  0.5066350000000 1.0
C      1  0.4654570000000  0.5756960000000  0.4890900000000 1.0
C      1  0.4837850000000  0.4631540000000  0.5655220000000 1.0
C      1  0.4703190000000  0.4655630000000  0.4382890000000 1.0
C      1  0.5342750000000  0.4889790000000  0.4236940000000 1.0
C      1  0.5372130000000  0.5704340000000  0.5238910000000 1.0
C      1  0.5484220000000  0.4468400000000  0.5538340000000 1.0
C      1  0.4723960000000  0.5567760000000  0.5568740000000 1.0
C      1  0.4826110000000  0.4126400000000  0.5356580000000 1.0
C      1  0.4649890000000  0.5220010000000  0.4157570000000 1.0
C      1  0.4910280000000  0.4703120000000  0.4910970000000 1.0
C      1  0.4936600000000  0.5196130000000  0.4836520000000 1.0
C      1  0.5028610000000  0.5162740000000  0.5202480000000 1.0
C      1  0.4031170000000  0.4800980000000  0.4957110000000 1.0
C      1  0.4021370000000  0.5070000000000  0.4886950000000 1.0
C      1  0.4060750000000  0.4997670000000  0.5157480000000 1.0
C      1  0.5120220000000  0.5299180000000  0.4294190000000 1.0
C      1  0.5218050000000  0.5470880000000  0.5627260000000 1.0
C      1  0.5285780000000  0.4296410000000  0.5153430000000 1.0
C      1  0.5311950000000  0.4363280000000  0.4653170000000 1.0
C      1  0.5257340000000  0.5677860000000  0.4567610000000 1.0
C      1  0.5338810000000  0.5033680000000  0.5820780000000 1.0
C      1  0.5427880000000  0.4922340000000  0.5048000000000 1.0
C      1  0.5434700000000  0.5128650000000  0.4629720000000 1.0
C      1  0.5579380000000  0.5216570000000  0.5062430000000 1.0
C      1  0.6074390000000  0.5195480000000  0.5016140000000 1.0
C      1  0.6064180000000  0.4931810000000  0.5146660000000 1.0
C      1  0.6106760000000  0.4952370000000  0.4866340000000 1.0
C      1  0.4275990000000  0.5513670000000  0.5033840000000 1.0
C      1  0.4398290000000  0.4622840000000  0.5564960000000 1.0
C      1  0.4234350000000  0.4754680000000  0.4415860000000 1.0
C      1  0.4992790000000  0.5633440000000  0.5080480000000 1.0
C      1  0.4920750000000  0.4545210000000  0.5371030000000 1.0
C      1  0.4856720000000  0.4907500000000  0.4474210000000 1.0
C      1  0.5551680000000  0.4535840000000  0.4623390000000 1.0
C      1  0.5499000000000  0.5568200000000  0.4727780000000 1.0
C      1  0.5599930000000  0.4965860000000  0.5696180000000 1.0
END
