TITL C-3520-9319-7 -531.591899145702 125000 -638.094222758696 0 0 94 (C1) n - 1
REM
REM in /rds/project/t2_vol4/rds-t2-cs072/BORA/CARBON/from-Arr/AIRSS/Generating-Clusters/GAP-ML-2020/Higher-Symm/SD-CG/HFTN-CG
REM
REM
REM
REM
REM
REM ./C.cell (b20cbc046b6831c77cfcea5457e17084)
REM AIRSS Version 0.9.1 bugfix July 2018 build 013d7b7c2542+ Fri, 06 Jul 2018 19:26:36 +0100
REM compiler GCC version 9.3.0
REM options -cpp -mtune=generic -march=x86-64 -g -O0
REM seed 947560327 1493237345 -1395063850 -523742636 385877655 -1002407690 535203222 -1681349979 1096991760 -561547908 -434318434 771034037 -1277379005 -1164974019 1325315982 931294591 236790871 -1660790642 1503251080 -41453669 -1729640238 307811861 994443907 1297790746 -785343178 479866353 722152767 -1189201414 1300997438 652238793 -735764544 -496162726 1661992481
REM
CELL 1.54180   50.00000   50.00000   50.00000   90.00000   90.00000   90.00000
LATT -1
SFAC C  
C      1  0.4343850000000  0.4403850000000  0.4906120000000 1.0
C      1  0.4349720000000  0.5381000000000  0.4512280000000 1.0
C      1  0.4349350000000  0.5223960000000  0.5548870000000 1.0
C      1  0.5649960000000  0.5590570000000  0.4917140000000 1.0
C      1  0.5646180000000  0.4615300000000  0.4525050000000 1.0
C      1  0.5647150000000  0.4753850000000  0.5547680000000 1.0
C      1  0.4401610000000  0.5605560000000  0.4685690000000 1.0
C      1  0.4462650000000  0.4962200000000  0.5644860000000 1.0
C      1  0.4456080000000  0.4455240000000  0.4633640000000 1.0
C      1  0.5593300000000  0.4385320000000  0.4690740000000 1.0
C      1  0.5587110000000  0.5017310000000  0.5648900000000 1.0
C      1  0.5540180000000  0.5541980000000  0.4645150000000 1.0
C      1  0.5253460000000  0.4260330000000  0.4900810000000 1.0
C      1  0.5127680000000  0.5339400000000  0.4547100000000 1.0
C      1  0.5269850000000  0.5276850000000  0.5698260000000 1.0
C      1  0.4733210000000  0.5731880000000  0.4899780000000 1.0
C      1  0.4871020000000  0.4658910000000  0.4543980000000 1.0
C      1  0.4856450000000  0.4793000000000  0.5496790000000 1.0
C      1  0.5374430000000  0.4339010000000  0.4470670000000 1.0
C      1  0.5332500000000  0.5719050000000  0.4728080000000 1.0
C      1  0.5367980000000  0.4847150000000  0.5796430000000 1.0
C      1  0.4622880000000  0.5657100000000  0.4468390000000 1.0
C      1  0.4663430000000  0.4277580000000  0.4716320000000 1.0
C      1  0.4667180000000  0.5133990000000  0.5753900000000 1.0
C      1  0.4471920000000  0.4515070000000  0.5366580000000 1.0
C      1  0.4484100000000  0.4937050000000  0.4388500000000 1.0
C      1  0.4442730000000  0.5571860000000  0.5225440000000 1.0
C      1  0.5546290000000  0.5477510000000  0.5375290000000 1.0
C      1  0.5515260000000  0.5059890000000  0.4401100000000 1.0
C      1  0.5523360000000  0.4427090000000  0.5224900000000 1.0
C      1  0.5609540000000  0.4699840000000  0.5269790000000 1.0
C      1  0.5623050000000  0.4885590000000  0.4607410000000 1.0
C      1  0.5623490000000  0.5379080000000  0.5113290000000 1.0
C      1  0.4362450000000  0.5295050000000  0.5267290000000 1.0
C      1  0.4374770000000  0.5110820000000  0.4594690000000 1.0
C      1  0.4371350000000  0.4613490000000  0.5103250000000 1.0
C      1  0.5521720000000  0.4308820000000  0.4963670000000 1.0
C      1  0.5422010000000  0.5305990000000  0.4523980000000 1.0
C      1  0.5530640000000  0.5296740000000  0.5596100000000 1.0
C      1  0.4465960000000  0.5676970000000  0.4960980000000 1.0
C      1  0.4575030000000  0.4691370000000  0.4514880000000 1.0
C      1  0.4567580000000  0.4710840000000  0.5548110000000 1.0
C      1  0.4877970000000  0.4506920000000  0.5147500000000 1.0
C      1  0.4916250000000  0.5129150000000  0.4495220000000 1.0
C      1  0.4884770000000  0.5394530000000  0.5346940000000 1.0
C      1  0.5106540000000  0.5498890000000  0.5151520000000 1.0
C      1  0.5083040000000  0.4869640000000  0.4498640000000 1.0
C      1  0.5073100000000  0.4622670000000  0.5364310000000 1.0
C      1  0.4920970000000  0.4397930000000  0.4662040000000 1.0
C      1  0.4827570000000  0.5758770000000  0.4625870000000 1.0
C      1  0.4921930000000  0.5020080000000  0.5675970000000 1.0
C      1  0.5075830000000  0.5602430000000  0.4662100000000 1.0
C      1  0.5166430000000  0.4237700000000  0.4624570000000 1.0
C      1  0.5173580000000  0.5038710000000  0.5831980000000 1.0
C      1  0.5279670000000  0.4900520000000  0.4725370000000 1.0
C      1  0.5306330000000  0.5290330000000  0.5059380000000 1.0
C      1  0.5286040000000  0.4795750000000  0.5235490000000 1.0
C      1  0.4713050000000  0.5098000000000  0.4714390000000 1.0
C      1  0.4678100000000  0.4710080000000  0.5044500000000 1.0
C      1  0.4680310000000  0.5214690000000  0.5213330000000 1.0
C      1  0.5778820000000  0.4964090000000  0.4839150000000 1.0
C      1  0.5781910000000  0.5140750000000  0.5050900000000 1.0
C      1  0.5778010000000  0.4869120000000  0.5100740000000 1.0
C      1  0.4216370000000  0.5029320000000  0.4826020000000 1.0
C      1  0.4206320000000  0.4850190000000  0.5035310000000 1.0
C      1  0.4201260000000  0.5122680000000  0.5088480000000 1.0
C      1  0.4674060000000  0.5583970000000  0.5451130000000 1.0
C      1  0.4681510000000  0.4306300000000  0.5250880000000 1.0
C      1  0.4707250000000  0.5136440000000  0.4271110000000 1.0
C      1  0.5289960000000  0.4419280000000  0.5453180000000 1.0
C      1  0.5314800000000  0.5684360000000  0.5267760000000 1.0
C      1  0.5296420000000  0.4863280000000  0.4278350000000 1.0
C      1  0.5428430000000  0.4603360000000  0.5664200000000 1.0
C      1  0.5428520000000  0.4583460000000  0.4332480000000 1.0
C      1  0.5438590000000  0.5767350000000  0.4995250000000 1.0
C      1  0.4557540000000  0.5384420000000  0.5659210000000 1.0
C      1  0.4571810000000  0.5415210000000  0.4324470000000 1.0
C      1  0.4555380000000  0.4224700000000  0.4980340000000 1.0
C      1  0.5120230000000  0.4943760000000  0.4061890000000 1.0
C      1  0.5114140000000  0.5840490000000  0.5418400000000 1.0
C      1  0.5112650000000  0.4190560000000  0.5493460000000 1.0
C      1  0.4890440000000  0.5058900000000  0.4060370000000 1.0
C      1  0.4876220000000  0.4146970000000  0.5402750000000 1.0
C      1  0.4875750000000  0.5792640000000  0.5500290000000 1.0
C      1  0.5176250000000  0.4765490000000  0.4955720000000 1.0
C      1  0.5277220000000  0.5190920000000  0.4775680000000 1.0
C      1  0.5204390000000  0.5088230000000  0.5246420000000 1.0
C      1  0.4809780000000  0.5236630000000  0.4944700000000 1.0
C      1  0.4714020000000  0.4807690000000  0.4764690000000 1.0
C      1  0.4763360000000  0.4920240000000  0.5228050000000 1.0
C      1  0.5068090000000  0.5216070000000  0.5488370000000 1.0
C      1  0.4930860000000  0.5516440000000  0.4924560000000 1.0
C      1  0.5061550000000  0.4483880000000  0.4928040000000 1.0
C      1  0.4990690000000  0.5004530000000  0.5061800000000 1.0
END
