TITL C-3508-9261-4 -64.0390083432521 125000 -311.853878133657 0 0 47 (C3h) n - 1
REM
REM in /rds/project/t2_vol4/rds-t2-cs072/BORA/CARBON/from-Arr/AIRSS/Generating-Clusters/GAP-ML-2020/Higher-Symm/SD-CG/HFTN-CG
REM
REM
REM
REM
REM
REM ./C.cell (b20cbc046b6831c77cfcea5457e17084)
REM AIRSS Version 0.9.1 bugfix July 2018 build 013d7b7c2542+ Fri, 06 Jul 2018 19:26:36 +0100
REM compiler GCC version 9.3.0
REM options -cpp -mtune=generic -march=x86-64 -g -O0
REM seed -1399512221 -1449397024 359372248 1898289431 -142087991 -526166971 -1755401364 -1121640000 1409663607 2028216635 -1583084691 815150144 1267182545 -1900179266 697007858 -1685796567 -1473740917 1769725417 -1079179841 -332168593 700703803 843671341 -1826588309 412998837 403248640 -1369399165 1629451105 -1062869366 44250117 1005083166 773604984 -1155122600 -1004006035
REM
CELL 1.54180   50.00000   50.00000   50.00000   90.00000   90.00000   90.00000
LATT -1
SFAC C  
C      1  0.5141920000000  0.5578600000000  0.5114290000000 1.0
C      1  0.5142700000000  0.4807660000000  0.4447420000000 1.0
C      1  0.5142620000000  0.4615600000000  0.5448510000000 1.0
C      1  0.4849810000000  0.5578370000000  0.5114220000000 1.0
C      1  0.4850590000000  0.4807420000000  0.4447350000000 1.0
C      1  0.4850510000000  0.4615360000000  0.5448440000000 1.0
C      1  0.4509340000000  0.5366470000000  0.4810350000000 1.0
C      1  0.4509920000000  0.4649870000000  0.4782430000000 1.0
C      1  0.4509500000000  0.4983990000000  0.5416980000000 1.0
C      1  0.5482890000000  0.5367250000000  0.4810590000000 1.0
C      1  0.5483470000000  0.4650660000000  0.4782660000000 1.0
C      1  0.5483050000000  0.4984770000000  0.5417220000000 1.0
C      1  0.5140420000000  0.4840260000000  0.5087070000000 1.0
C      1  0.5140170000000  0.5153250000000  0.5100450000000 1.0
C      1  0.5140350000000  0.5008340000000  0.4822700000000 1.0
C      1  0.4852520000000  0.4840030000000  0.5087000000000 1.0
C      1  0.4852260000000  0.5153020000000  0.5100380000000 1.0
C      1  0.4852440000000  0.5008110000000  0.4822630000000 1.0
C      1  0.4744900000000  0.5053600000000  0.4527040000000 1.0
C      1  0.4745130000000  0.4561180000000  0.5195290000000 1.0
C      1  0.4744450000000  0.5386120000000  0.5287610000000 1.0
C      1  0.5247960000000  0.5054010000000  0.4527160000000 1.0
C      1  0.5248200000000  0.4561590000000  0.5195410000000 1.0
C      1  0.5247520000000  0.5386520000000  0.5287730000000 1.0
C      1  0.5497720000000  0.5140560000000  0.4614550000000 1.0
C      1  0.5498050000000  0.4594240000000  0.5077020000000 1.0
C      1  0.5497450000000  0.5267910000000  0.5318910000000 1.0
C      1  0.4494960000000  0.5139750000000  0.4614310000000 1.0
C      1  0.4495290000000  0.4593440000000  0.5076780000000 1.0
C      1  0.4494690000000  0.5267110000000  0.5318670000000 1.0
C      1  0.4378230000000  0.4822410000000  0.5214650000000 1.0
C      1  0.4377910000000  0.5271900000000  0.5051310000000 1.0
C      1  0.4378270000000  0.4905700000000  0.4743710000000 1.0
C      1  0.5614680000000  0.4823410000000  0.5214950000000 1.0
C      1  0.5614350000000  0.5272900000000  0.5051600000000 1.0
C      1  0.5614720000000  0.4906690000000  0.4744010000000 1.0
C      1  0.4749410000000  0.5535330000000  0.4844340000000 1.0
C      1  0.4750220000000  0.4595120000000  0.4619450000000 1.0
C      1  0.4749780000000  0.4870460000000  0.5546150000000 1.0
C      1  0.5242530000000  0.5535730000000  0.4844460000000 1.0
C      1  0.5243340000000  0.4595510000000  0.4619570000000 1.0
C      1  0.5242890000000  0.4870860000000  0.5546260000000 1.0
C      1  0.4996220000000  0.5001720000000  0.5583080000000 1.0
C      1  0.4996830000000  0.4497850000000  0.4714570000000 1.0
C      1  0.4996030000000  0.5501930000000  0.4712460000000 1.0
C      1  0.5693970000000  0.5001060000000  0.5003540000000 1.0
C      1  0.4298750000000  0.4999940000000  0.5003210000000 1.0
END
