TITL C-35906-4113-1 -96.7091848567916 125000 -1183.91746065945 0 0 171 (C1) n - 1
REM
REM in /rds/project/t2_vol4/rds-t2-cs072/BORA/CARBON/from-Arr/AIRSS/Generating-Clusters/GAP-ML-2020/Higher-Symm/SD-CG/HFTN-CG/C160-200
REM
REM
REM
REM
REM
REM ./C.cell (6b4489405718ea1b717e0baf1da4c2d9)
REM AIRSS Version 0.9.1 bugfix July 2018 build 013d7b7c2542+ Fri, 06 Jul 2018 19:26:36 +0100
REM compiler GCC version 9.3.0
REM options -cpp -mtune=generic -march=x86-64 -g -O0
REM seed -1776734805 -1291838815 -330086959 -1297228158 -20076630 -63563788 -111921671 69800762 179779746 -1656195590 -2056998097 204361844 -337027468 1397901382 931803487 84796775 -948222581 188368369 -984357528 225029705 -1672492554 792457757 -1550891974 408036779 -1036027017 402537299 -1061348038 818934558 613199637 -2099589823 -1661490374 943081194 -882318069
REM
CELL 1.54180   50.00000   50.00000   50.00000   90.00000   90.00000   90.00000
LATT -1
SFAC C  
C      1  0.5365040000000  0.4387110000000  0.4524390000000 1.0
C      1  0.4606350000000  0.5596080000000  0.4534630000000 1.0
C      1  0.5372250000000  0.5597420000000  0.4517970000000 1.0
C      1  0.4642540000000  0.4393420000000  0.4523530000000 1.0
C      1  0.5260880000000  0.5809710000000  0.4960130000000 1.0
C      1  0.4748320000000  0.4190720000000  0.4979080000000 1.0
C      1  0.5262080000000  0.4187990000000  0.4972770000000 1.0
C      1  0.4740560000000  0.5809190000000  0.4971170000000 1.0
C      1  0.3963870000000  0.5149680000000  0.4814720000000 1.0
C      1  0.6014580000000  0.4845930000000  0.4763210000000 1.0
C      1  0.3967740000000  0.4854900000000  0.4813980000000 1.0
C      1  0.6017910000000  0.5141550000000  0.4763440000000 1.0
C      1  0.4837860000000  0.5153960000000  0.4594620000000 1.0
C      1  0.5151570000000  0.4850420000000  0.4605210000000 1.0
C      1  0.4849240000000  0.4848570000000  0.4595110000000 1.0
C      1  0.5142620000000  0.5155990000000  0.4594940000000 1.0
C      1  0.5323070000000  0.4056990000000  0.5482440000000 1.0
C      1  0.4701300000000  0.5945420000000  0.5484040000000 1.0
C      1  0.5322860000000  0.5946070000000  0.5470160000000 1.0
C      1  0.4702330000000  0.4056660000000  0.5491470000000 1.0
C      1  0.4110300000000  0.4735340000000  0.4328810000000 1.0
C      1  0.5856090000000  0.5252880000000  0.4281960000000 1.0
C      1  0.4107540000000  0.5260320000000  0.4325630000000 1.0
C      1  0.5837690000000  0.4721650000000  0.4281050000000 1.0
C      1  0.5610600000000  0.5738260000000  0.4623850000000 1.0
C      1  0.4401740000000  0.4274900000000  0.4645820000000 1.0
C      1  0.5604580000000  0.4251550000000  0.4633170000000 1.0
C      1  0.4375070000000  0.5738700000000  0.4650980000000 1.0
C      1  0.5545120000000  0.4200060000000  0.4905710000000 1.0
C      1  0.4452860000000  0.5795580000000  0.4917860000000 1.0
C      1  0.5545900000000  0.5793940000000  0.4893990000000 1.0
C      1  0.4464480000000  0.4207060000000  0.4916780000000 1.0
C      1  0.4024120000000  0.5346400000000  0.4614430000000 1.0
C      1  0.5944080000000  0.4645350000000  0.4566160000000 1.0
C      1  0.4047980000000  0.4664460000000  0.4610510000000 1.0
C      1  0.5951570000000  0.5339620000000  0.4566370000000 1.0
C      1  0.4347440000000  0.5288870000000  0.5749020000000 1.0
C      1  0.5688010000000  0.4713850000000  0.5724730000000 1.0
C      1  0.4348400000000  0.4712420000000  0.5749260000000 1.0
C      1  0.5687540000000  0.5289960000000  0.5720860000000 1.0
C      1  0.5273600000000  0.4270230000000  0.4266350000000 1.0
C      1  0.4652520000000  0.5716000000000  0.4267520000000 1.0
C      1  0.5307420000000  0.5709420000000  0.4251420000000 1.0
C      1  0.4618830000000  0.4209820000000  0.4284000000000 1.0
C      1  0.4807910000000  0.4007190000000  0.4311760000000 1.0
C      1  0.5127400000000  0.5920600000000  0.4283490000000 1.0
C      1  0.4835480000000  0.5925200000000  0.4290440000000 1.0
C      1  0.5100170000000  0.4054700000000  0.4307640000000 1.0
C      1  0.5569140000000  0.5798900000000  0.5564120000000 1.0
C      1  0.4458690000000  0.4203400000000  0.5591110000000 1.0
C      1  0.5569990000000  0.4203450000000  0.5573810000000 1.0
C      1  0.4459160000000  0.5798810000000  0.5588660000000 1.0
C      1  0.5175830000000  0.4716010000000  0.4098260000000 1.0
C      1  0.4728080000000  0.5277830000000  0.4075750000000 1.0
C      1  0.5222990000000  0.5261990000000  0.4068650000000 1.0
C      1  0.4940000000000  0.4860370000000  0.4061550000000 1.0
C      1  0.5854100000000  0.4856910000000  0.5549390000000 1.0
C      1  0.4175710000000  0.5143150000000  0.5581850000000 1.0
C      1  0.5853250000000  0.5144370000000  0.5547120000000 1.0
C      1  0.4177000000000  0.4855800000000  0.5580700000000 1.0
C      1  0.5269420000000  0.4617540000000  0.5795370000000 1.0
C      1  0.4767120000000  0.5386020000000  0.5800620000000 1.0
C      1  0.5269560000000  0.5386760000000  0.5791170000000 1.0
C      1  0.4768340000000  0.4616720000000  0.5802060000000 1.0
C      1  0.4741890000000  0.4698840000000  0.4836640000000 1.0
C      1  0.5256910000000  0.5299790000000  0.4836790000000 1.0
C      1  0.4736600000000  0.5298290000000  0.4843690000000 1.0
C      1  0.5262340000000  0.4699190000000  0.4841000000000 1.0
C      1  0.4416270000000  0.4329390000000  0.4126030000000 1.0
C      1  0.5386420000000  0.5502670000000  0.4062410000000 1.0
C      1  0.4560450000000  0.5514520000000  0.4079760000000 1.0
C      1  0.5338060000000  0.4476610000000  0.4073550000000 1.0
C      1  0.4718240000000  0.5241610000000  0.5320440000000 1.0
C      1  0.5296820000000  0.4758360000000  0.5314700000000 1.0
C      1  0.4718730000000  0.4758060000000  0.5318860000000 1.0
C      1  0.5296830000000  0.5242220000000  0.5311700000000 1.0
C      1  0.4857040000000  0.5155620000000  0.5583960000000 1.0
C      1  0.5169360000000  0.4846350000000  0.5581310000000 1.0
C      1  0.4857310000000  0.4845830000000  0.5583590000000 1.0
C      1  0.5169300000000  0.5156390000000  0.5579960000000 1.0
C      1  0.5144710000000  0.6110730000000  0.5585770000000 1.0
C      1  0.4883980000000  0.3893150000000  0.5603770000000 1.0
C      1  0.5144460000000  0.3893690000000  0.5599320000000 1.0
C      1  0.4884180000000  0.6110460000000  0.5591640000000 1.0
C      1  0.4157260000000  0.5265700000000  0.5317160000000 1.0
C      1  0.5857800000000  0.4732320000000  0.5284600000000 1.0
C      1  0.4160860000000  0.4734420000000  0.5314150000000 1.0
C      1  0.5857830000000  0.5264220000000  0.5280240000000 1.0
C      1  0.4147010000000  0.5576720000000  0.4729570000000 1.0
C      1  0.5834440000000  0.4416370000000  0.4693620000000 1.0
C      1  0.4178800000000  0.4438350000000  0.4717460000000 1.0
C      1  0.5840510000000  0.5572850000000  0.4689600000000 1.0
C      1  0.5547340000000  0.4696460000000  0.4931890000000 1.0
C      1  0.4454350000000  0.5299350000000  0.4945650000000 1.0
C      1  0.5543400000000  0.5297950000000  0.4926040000000 1.0
C      1  0.4458400000000  0.4699640000000  0.4940040000000 1.0
C      1  0.4294420000000  0.4430190000000  0.4995860000000 1.0
C      1  0.5717630000000  0.5565670000000  0.4965340000000 1.0
C      1  0.4283620000000  0.5568870000000  0.4998000000000 1.0
C      1  0.5717830000000  0.4428040000000  0.4972790000000 1.0
C      1  0.5568780000000  0.5153160000000  0.5185710000000 1.0
C      1  0.4442860000000  0.4846110000000  0.5200910000000 1.0
C      1  0.5569490000000  0.4844740000000  0.5188890000000 1.0
C      1  0.4441380000000  0.5153810000000  0.5204690000000 1.0
C      1  0.5320150000000  0.5518370000000  0.5369580000000 1.0
C      1  0.4699140000000  0.4483490000000  0.5384500000000 1.0
C      1  0.5321530000000  0.4483250000000  0.5375560000000 1.0
C      1  0.4698830000000  0.5517610000000  0.5381620000000 1.0
C      1  0.5147690000000  0.4842750000000  0.5074870000000 1.0
C      1  0.4858350000000  0.5155250000000  0.5075350000000 1.0
C      1  0.5146180000000  0.5155860000000  0.5073410000000 1.0
C      1  0.4859240000000  0.4842850000000  0.5073100000000 1.0
C      1  0.4313750000000  0.5424590000000  0.4218100000000 1.0
C      1  0.5620960000000  0.4555460000000  0.4173170000000 1.0
C      1  0.4320690000000  0.4558820000000  0.4223960000000 1.0
C      1  0.5644800000000  0.5419870000000  0.4184400000000 1.0
C      1  0.4450180000000  0.5143970000000  0.5974410000000 1.0
C      1  0.5594600000000  0.4860740000000  0.5952860000000 1.0
C      1  0.4450560000000  0.4858980000000  0.5974420000000 1.0
C      1  0.5594440000000  0.5145730000000  0.5951160000000 1.0
C      1  0.4882050000000  0.5150030000000  0.6221160000000 1.0
C      1  0.5173110000000  0.4857260000000  0.6217610000000 1.0
C      1  0.4882290000000  0.4856660000000  0.6221670000000 1.0
C      1  0.5172930000000  0.5150570000000  0.6216120000000 1.0
C      1  0.5489790000000  0.4643360000000  0.4415960000000 1.0
C      1  0.4478470000000  0.5335770000000  0.4442600000000 1.0
C      1  0.5495930000000  0.5338730000000  0.4422370000000 1.0
C      1  0.4559570000000  0.4632070000000  0.4373160000000 1.0
C      1  0.4854040000000  0.3943160000000  0.4855970000000 1.0
C      1  0.5143160000000  0.6044580000000  0.4821200000000 1.0
C      1  0.4851990000000  0.6044900000000  0.4828500000000 1.0
C      1  0.5145150000000  0.3947970000000  0.4845010000000 1.0
C      1  0.4226310000000  0.4242130000000  0.5449820000000 1.0
C      1  0.5796830000000  0.5757120000000  0.5416270000000 1.0
C      1  0.4223880000000  0.5759400000000  0.5452830000000 1.0
C      1  0.5798140000000  0.4240600000000  0.5425320000000 1.0
C      1  0.5840700000000  0.4441000000000  0.5241590000000 1.0
C      1  0.4173360000000  0.5557620000000  0.5272610000000 1.0
C      1  0.5840530000000  0.5555420000000  0.5234580000000 1.0
C      1  0.4178090000000  0.4442730000000  0.5267430000000 1.0
C      1  0.4698740000000  0.5273320000000  0.6052640000000 1.0
C      1  0.5349400000000  0.4732720000000  0.6042540000000 1.0
C      1  0.4699770000000  0.4731480000000  0.6053330000000 1.0
C      1  0.5349070000000  0.5273990000000  0.6039730000000 1.0
C      1  0.4841060000000  0.4242400000000  0.5277980000000 1.0
C      1  0.5175550000000  0.5760560000000  0.5263470000000 1.0
C      1  0.4838870000000  0.5760130000000  0.5270610000000 1.0
C      1  0.5176880000000  0.4241060000000  0.5273740000000 1.0
C      1  0.5161550000000  0.4424290000000  0.4771800000000 1.0
C      1  0.4834090000000  0.5572000000000  0.4771630000000 1.0
C      1  0.5157220000000  0.5572250000000  0.4766170000000 1.0
C      1  0.4848630000000  0.4423800000000  0.4768800000000 1.0
C      1  0.5483340000000  0.5517510000000  0.5635510000000 1.0
C      1  0.4547610000000  0.4485320000000  0.5657210000000 1.0
C      1  0.5484220000000  0.4486000000000  0.5641520000000 1.0
C      1  0.4547460000000  0.5516920000000  0.5654670000000 1.0
C      1  0.5134890000000  0.3907590000000  0.4562980000000 1.0
C      1  0.4839080000000  0.6076100000000  0.4546480000000 1.0
C      1  0.5140540000000  0.6073720000000  0.4538290000000 1.0
C      1  0.4832810000000  0.3883360000000  0.4581310000000 1.0
C      1  0.5295460000000  0.4844610000000  0.4344510000000 1.0
C      1  0.4674410000000  0.5151500000000  0.4337580000000 1.0
C      1  0.5298970000000  0.5145770000000  0.4335980000000 1.0
C      1  0.4733440000000  0.4845940000000  0.4305760000000 1.0
C      1  0.6018780000000  0.5139410000000  0.5058270000000 1.0
C      1  0.3982720000000  0.4856150000000  0.5107360000000 1.0
C      1  0.6017170000000  0.4851310000000  0.5058340000000 1.0
C      1  0.3980760000000  0.5144930000000  0.5108820000000 1.0
C      1  0.5868500000000  0.4987030000000  0.4197840000000 1.0
C      1  0.4099120000000  0.4993550000000  0.4243310000000 1.0
C      1  0.4970190000000  0.5154880000000  0.3986030000000 1.0
END
