TITL C-3534-9213-2 178.121915851405 125000 -182.82607497938 0 0 28 (Cs) n - 1
REM
REM in /rds/project/t2_vol4/rds-t2-cs072/BORA/CARBON/from-Arr/AIRSS/Generating-Clusters/GAP-ML-2020/Higher-Symm/SD-CG/HFTN-CG
REM
REM
REM
REM
REM
REM ./C.cell (b20cbc046b6831c77cfcea5457e17084)
REM AIRSS Version 0.9.1 bugfix July 2018 build 013d7b7c2542+ Fri, 06 Jul 2018 19:26:36 +0100
REM compiler GCC version 9.3.0
REM options -cpp -mtune=generic -march=x86-64 -g -O0
REM seed 625742792 -1962073749 817797055 1197112886 95525320 -847908516 -848083837 2114795725 -655340514 -1149706194 -590972854 1038092446 -764483653 1956521681 1029273583 434700685 360915636 -645885489 1499851414 -1341769037 1480255686 -133679713 553914687 -14158488 -57339033 1738994463 368914206 -1170250740 570977233 2016490456 506380954 -1912264000 -799190345
REM
CELL 1.54180   50.00000   50.00000   50.00000   90.00000   90.00000   90.00000
LATT -1
SFAC C  
C      1  0.4726530000000  0.4637210000000  0.4727260000000 1.0
C      1  0.4735160000000  0.4541060000000  0.4994410000000 1.0
C      1  0.4760430000000  0.4795660000000  0.5461760000000 1.0
C      1  0.4757230000000  0.5074240000000  0.5514640000000 1.0
C      1  0.4680440000000  0.5460090000000  0.5175910000000 1.0
C      1  0.4729790000000  0.5379890000000  0.4665370000000 1.0
C      1  0.4730270000000  0.5131530000000  0.4528500000000 1.0
C      1  0.5249360000000  0.4898420000000  0.4682230000000 1.0
C      1  0.5289430000000  0.4693330000000  0.4880280000000 1.0
C      1  0.5264970000000  0.4724510000000  0.5165450000000 1.0
C      1  0.5305280000000  0.4964910000000  0.5321990000000 1.0
C      1  0.5244520000000  0.5236510000000  0.5232400000000 1.0
C      1  0.5235650000000  0.5335320000000  0.4957870000000 1.0
C      1  0.5285590000000  0.5184230000000  0.4712580000000 1.0
C      1  0.4961650000000  0.4914270000000  0.5632690000000 1.0
C      1  0.4813680000000  0.5330450000000  0.5385730000000 1.0
C      1  0.4798770000000  0.5496480000000  0.4924400000000 1.0
C      1  0.4923780000000  0.5335930000000  0.4461060000000 1.0
C      1  0.4809680000000  0.4852260000000  0.4547510000000 1.0
C      1  0.4911180000000  0.4428650000000  0.4797250000000 1.0
C      1  0.4832860000000  0.4594110000000  0.5264800000000 1.0
C      1  0.5180590000000  0.4442530000000  0.4793540000000 1.0
C      1  0.5107440000000  0.4521410000000  0.5291480000000 1.0
C      1  0.5227430000000  0.4920170000000  0.5593000000000 1.0
C      1  0.5090770000000  0.5397680000000  0.5410240000000 1.0
C      1  0.5075330000000  0.5569610000000  0.4932510000000 1.0
C      1  0.5191460000000  0.5320670000000  0.4480130000000 1.0
C      1  0.5080730000000  0.4818850000000  0.4465010000000 1.0
END
