TITL C-35814-1835-4 153.16098135346 125000 -1326.74749469548 0 0 192 (Td) n - 1
REM
REM in /rds/project/t2_vol4/rds-t2-cs072/BORA/CARBON/from-Arr/AIRSS/Generating-Clusters/GAP-ML-2020/Higher-Symm/SD-CG/HFTN-CG/C160-200
REM
REM
REM
REM
REM
REM ./C.cell (6b4489405718ea1b717e0baf1da4c2d9)
REM AIRSS Version 0.9.1 bugfix July 2018 build 013d7b7c2542+ Fri, 06 Jul 2018 19:26:36 +0100
REM compiler GCC version 9.3.0
REM options -cpp -mtune=generic -march=x86-64 -g -O0
REM seed 437185890 -86136289 -1774538953 1602686323 517355560 1194583240 -1384542344 -1684496330 -58825293 -515007003 816337398 -1980688485 418950217 1886646330 -74601630 -19620241 570519827 71353745 -1930413452 555839471 1404688974 -1876459099 1399849801 -583070531 1150079088 1984007937 -186727549 -1364754881 -280113360 1170794963 -297537787 -20839546 1040930005
REM
CELL 1.54180   50.00000   50.00000   50.00000   90.00000   90.00000   90.00000
LATT -1
SFAC C  
C      1  0.4245790000000  0.5388200000000  0.5026360000000 1.0
C      1  0.5026250000000  0.4245720000000  0.5388070000000 1.0
C      1  0.5388120000000  0.5026340000000  0.4245750000000 1.0
C      1  0.5754220000000  0.4611790000000  0.5026140000000 1.0
C      1  0.5754240000000  0.5388160000000  0.4973750000000 1.0
C      1  0.4245760000000  0.4611850000000  0.4973760000000 1.0
C      1  0.4973810000000  0.5754170000000  0.5388290000000 1.0
C      1  0.4973700000000  0.4245830000000  0.4611720000000 1.0
C      1  0.5026240000000  0.5754280000000  0.4611920000000 1.0
C      1  0.4611760000000  0.4973870000000  0.4245800000000 1.0
C      1  0.4611880000000  0.5026160000000  0.5754260000000 1.0
C      1  0.5388240000000  0.4973630000000  0.5754190000000 1.0
C      1  0.5388160000000  0.4245760000000  0.5026110000000 1.0
C      1  0.4245800000000  0.5026220000000  0.5388240000000 1.0
C      1  0.5026200000000  0.5388280000000  0.4245820000000 1.0
C      1  0.4611850000000  0.5754240000000  0.5026380000000 1.0
C      1  0.5388200000000  0.5754220000000  0.4973830000000 1.0
C      1  0.4611790000000  0.4245790000000  0.4973680000000 1.0
C      1  0.5754260000000  0.4973670000000  0.5388120000000 1.0
C      1  0.4245740000000  0.4973830000000  0.4611870000000 1.0
C      1  0.5754200000000  0.5026280000000  0.4611770000000 1.0
C      1  0.4973680000000  0.4611920000000  0.4245720000000 1.0
C      1  0.5026290000000  0.4611710000000  0.5754170000000 1.0
C      1  0.4973820000000  0.5388080000000  0.5754280000000 1.0
C      1  0.4029830000000  0.4798940000000  0.4998850000000 1.0
C      1  0.4998760000000  0.4029860000000  0.4798770000000 1.0
C      1  0.4798830000000  0.4998950000000  0.4029850000000 1.0
C      1  0.5970170000000  0.5201060000000  0.4998760000000 1.0
C      1  0.5970160000000  0.4798870000000  0.5001090000000 1.0
C      1  0.4029840000000  0.5201130000000  0.5001300000000 1.0
C      1  0.5001210000000  0.5970190000000  0.4799040000000 1.0
C      1  0.5001180000000  0.4029810000000  0.5200960000000 1.0
C      1  0.4998850000000  0.5970140000000  0.5201230000000 1.0
C      1  0.5201020000000  0.5001320000000  0.4029820000000 1.0
C      1  0.5201170000000  0.4998660000000  0.5970150000000 1.0
C      1  0.4798980000000  0.5001070000000  0.5970180000000 1.0
C      1  0.4798870000000  0.4029840000000  0.4998690000000 1.0
C      1  0.4029820000000  0.4998870000000  0.4798980000000 1.0
C      1  0.4998720000000  0.4799040000000  0.4029810000000 1.0
C      1  0.5201130000000  0.5970160000000  0.4998920000000 1.0
C      1  0.4798940000000  0.5970170000000  0.5001340000000 1.0
C      1  0.5201060000000  0.4029830000000  0.5001050000000 1.0
C      1  0.5970150000000  0.5001190000000  0.4798830000000 1.0
C      1  0.4029850000000  0.5001200000000  0.5201170000000 1.0
C      1  0.5970180000000  0.4998740000000  0.5201020000000 1.0
C      1  0.5001130000000  0.5201230000000  0.4029860000000 1.0
C      1  0.4998890000000  0.5200960000000  0.5970190000000 1.0
C      1  0.5001260000000  0.4798770000000  0.5970140000000 1.0
C      1  0.5884690000000  0.5683380000000  0.4517850000000 1.0
C      1  0.4517910000000  0.5884630000000  0.5683500000000 1.0
C      1  0.5683390000000  0.4517680000000  0.5884580000000 1.0
C      1  0.4115240000000  0.4316760000000  0.4517800000000 1.0
C      1  0.4115360000000  0.5683300000000  0.5482340000000 1.0
C      1  0.5884720000000  0.4316560000000  0.5482010000000 1.0
C      1  0.5482200000000  0.4115190000000  0.5683180000000 1.0
C      1  0.5482150000000  0.5884780000000  0.4316740000000 1.0
C      1  0.4517740000000  0.4115410000000  0.4316570000000 1.0
C      1  0.4316740000000  0.5482080000000  0.5884820000000 1.0
C      1  0.4316570000000  0.4517970000000  0.4115280000000 1.0
C      1  0.5683290000000  0.5482270000000  0.4115310000000 1.0
C      1  0.5683330000000  0.5884750000000  0.4517900000000 1.0
C      1  0.5884740000000  0.4517700000000  0.5683210000000 1.0
C      1  0.4517920000000  0.5683230000000  0.5884830000000 1.0
C      1  0.4316590000000  0.4115390000000  0.4517760000000 1.0
C      1  0.5683350000000  0.4115210000000  0.5482000000000 1.0
C      1  0.4316730000000  0.5884660000000  0.5482350000000 1.0
C      1  0.4115370000000  0.5482110000000  0.5683480000000 1.0
C      1  0.5884670000000  0.5482240000000  0.4316660000000 1.0
C      1  0.4115230000000  0.4517950000000  0.4316660000000 1.0
C      1  0.5482220000000  0.4316520000000  0.5884570000000 1.0
C      1  0.4517730000000  0.4316800000000  0.4115240000000 1.0
C      1  0.5482130000000  0.5683450000000  0.4115350000000 1.0
C      1  0.4767240000000  0.4548850000000  0.5004490000000 1.0
C      1  0.5004490000000  0.4767320000000  0.4548810000000 1.0
C      1  0.4548830000000  0.5004580000000  0.4767290000000 1.0
C      1  0.5232760000000  0.5451140000000  0.5004580000000 1.0
C      1  0.5232730000000  0.4548840000000  0.4995390000000 1.0
C      1  0.4767270000000  0.5451160000000  0.4995550000000 1.0
C      1  0.4995440000000  0.5232810000000  0.4548880000000 1.0
C      1  0.4995490000000  0.4767190000000  0.5451120000000 1.0
C      1  0.5004580000000  0.5232680000000  0.5451190000000 1.0
C      1  0.5451140000000  0.4995480000000  0.4767220000000 1.0
C      1  0.5451170000000  0.5004490000000  0.5232710000000 1.0
C      1  0.4548860000000  0.4995450000000  0.5232780000000 1.0
C      1  0.4548840000000  0.4767270000000  0.5004540000000 1.0
C      1  0.4767220000000  0.5004600000000  0.4548870000000 1.0
C      1  0.5004500000000  0.4548880000000  0.4767190000000 1.0
C      1  0.5451160000000  0.5232730000000  0.5004530000000 1.0
C      1  0.4548850000000  0.5232760000000  0.4995530000000 1.0
C      1  0.5451150000000  0.4767240000000  0.4995400000000 1.0
C      1  0.5232710000000  0.4995520000000  0.4548830000000 1.0
C      1  0.4767290000000  0.4995410000000  0.5451170000000 1.0
C      1  0.5232780000000  0.5004460000000  0.5451140000000 1.0
C      1  0.4995460000000  0.5451190000000  0.4767320000000 1.0
C      1  0.5004570000000  0.5451120000000  0.5232810000000 1.0
C      1  0.4995470000000  0.4548810000000  0.5232680000000 1.0
C      1  0.4369990000000  0.5427010000000  0.4137980000000 1.0
C      1  0.4137880000000  0.4370010000000  0.5426850000000 1.0
C      1  0.5426790000000  0.4137940000000  0.4369890000000 1.0
C      1  0.5629880000000  0.4573230000000  0.4137760000000 1.0
C      1  0.5630040000000  0.5426730000000  0.5862140000000 1.0
C      1  0.4370090000000  0.4573040000000  0.5862120000000 1.0
C      1  0.5862180000000  0.5629870000000  0.5426890000000 1.0
C      1  0.5862080000000  0.4370070000000  0.4572980000000 1.0
C      1  0.4137860000000  0.5630050000000  0.4573290000000 1.0
C      1  0.4573110000000  0.5862230000000  0.4370190000000 1.0
C      1  0.4573150000000  0.4137800000000  0.5629870000000 1.0
C      1  0.5426940000000  0.5862030000000  0.5630050000000 1.0
C      1  0.5426780000000  0.4370140000000  0.4137750000000 1.0
C      1  0.4370040000000  0.4137830000000  0.5426800000000 1.0
C      1  0.4137840000000  0.5426980000000  0.4370170000000 1.0
C      1  0.4573090000000  0.5630090000000  0.4137990000000 1.0
C      1  0.5426950000000  0.5629830000000  0.5862180000000 1.0
C      1  0.4573180000000  0.4369940000000  0.5862070000000 1.0
C      1  0.5630020000000  0.5862050000000  0.5426940000000 1.0
C      1  0.4370040000000  0.5862210000000  0.4573300000000 1.0
C      1  0.5629900000000  0.4137910000000  0.4572970000000 1.0
C      1  0.5862070000000  0.4573190000000  0.4369910000000 1.0
C      1  0.4137900000000  0.4573080000000  0.5629970000000 1.0
C      1  0.5862190000000  0.5426750000000  0.5629950000000 1.0
C      1  0.4699180000000  0.5506080000000  0.5712540000000 1.0
C      1  0.5712470000000  0.4699010000000  0.5506070000000 1.0
C      1  0.5506170000000  0.5712470000000  0.4699160000000 1.0
C      1  0.5300930000000  0.4493720000000  0.5712350000000 1.0
C      1  0.5300860000000  0.5506260000000  0.4287600000000 1.0
C      1  0.4699030000000  0.4493940000000  0.4287510000000 1.0
C      1  0.4287610000000  0.5300850000000  0.5506260000000 1.0
C      1  0.4287510000000  0.4699200000000  0.4493850000000 1.0
C      1  0.5712410000000  0.5300940000000  0.4493820000000 1.0
C      1  0.4493790000000  0.4287620000000  0.4699050000000 1.0
C      1  0.4493880000000  0.5712420000000  0.5301030000000 1.0
C      1  0.5506170000000  0.4287500000000  0.5300760000000 1.0
C      1  0.5506210000000  0.4698990000000  0.5712360000000 1.0
C      1  0.4699170000000  0.5712380000000  0.5506290000000 1.0
C      1  0.5712440000000  0.5506180000000  0.4699120000000 1.0
C      1  0.4493900000000  0.5300810000000  0.5712520000000 1.0
C      1  0.5506120000000  0.5300980000000  0.4287560000000 1.0
C      1  0.4493770000000  0.4699220000000  0.4287560000000 1.0
C      1  0.5300910000000  0.4287480000000  0.5506050000000 1.0
C      1  0.4699040000000  0.4287640000000  0.4493760000000 1.0
C      1  0.5300880000000  0.5712500000000  0.4493910000000 1.0
C      1  0.4287520000000  0.4493900000000  0.4699090000000 1.0
C      1  0.5712450000000  0.4493770000000  0.5300770000000 1.0
C      1  0.4287600000000  0.5506150000000  0.5301020000000 1.0
C      1  0.4192280000000  0.5612560000000  0.4857930000000 1.0
C      1  0.4857810000000  0.4192190000000  0.5612410000000 1.0
C      1  0.5612440000000  0.4857880000000  0.4192200000000 1.0
C      1  0.5807700000000  0.4387480000000  0.4857640000000 1.0
C      1  0.5807770000000  0.5612460000000  0.5142240000000 1.0
C      1  0.4192260000000  0.4387500000000  0.5142190000000 1.0
C      1  0.5142290000000  0.5807650000000  0.5612610000000 1.0
C      1  0.5142140000000  0.4192350000000  0.4387370000000 1.0
C      1  0.4857770000000  0.5807820000000  0.4387610000000 1.0
C      1  0.4387430000000  0.5142350000000  0.4192330000000 1.0
C      1  0.4387550000000  0.4857700000000  0.5807760000000 1.0
C      1  0.5612580000000  0.5142080000000  0.5807710000000 1.0
C      1  0.5612470000000  0.4192260000000  0.4857630000000 1.0
C      1  0.4192310000000  0.4857730000000  0.5612550000000 1.0
C      1  0.4857750000000  0.5612630000000  0.4192360000000 1.0
C      1  0.4387510000000  0.5807770000000  0.4857950000000 1.0
C      1  0.5612550000000  0.5807690000000  0.5142280000000 1.0
C      1  0.4387470000000  0.4192270000000  0.5142150000000 1.0
C      1  0.5807790000000  0.5142100000000  0.5612470000000 1.0
C      1  0.4192220000000  0.5142320000000  0.4387570000000 1.0
C      1  0.5807680000000  0.4857840000000  0.4387410000000 1.0
C      1  0.5142130000000  0.4387600000000  0.4192170000000 1.0
C      1  0.4857830000000  0.4387380000000  0.5807660000000 1.0
C      1  0.5142300000000  0.5612390000000  0.5807810000000 1.0
C      1  0.5813300000000  0.5602790000000  0.6020110000000 1.0
C      1  0.6020170000000  0.5813080000000  0.5602990000000 1.0
C      1  0.5603050000000  0.6019960000000  0.5813290000000 1.0
C      1  0.4186860000000  0.4396930000000  0.6020070000000 1.0
C      1  0.4186740000000  0.5603130000000  0.3980050000000 1.0
C      1  0.5813100000000  0.4397160000000  0.3979760000000 1.0
C      1  0.3979930000000  0.4186750000000  0.5602920000000 1.0
C      1  0.3979890000000  0.5813320000000  0.4397230000000 1.0
C      1  0.6020020000000  0.4186850000000  0.4396850000000 1.0
C      1  0.4397070000000  0.3979820000000  0.5813100000000 1.0
C      1  0.4397010000000  0.6020230000000  0.4186990000000 1.0
C      1  0.5602860000000  0.3980000000000  0.4186620000000 1.0
C      1  0.5603060000000  0.5813040000000  0.6020160000000 1.0
C      1  0.5813280000000  0.6019980000000  0.5603040000000 1.0
C      1  0.6020180000000  0.5602810000000  0.5813200000000 1.0
C      1  0.4397090000000  0.4186680000000  0.6020030000000 1.0
C      1  0.5602850000000  0.4186920000000  0.3979750000000 1.0
C      1  0.4396990000000  0.5813360000000  0.3980070000000 1.0
C      1  0.4186810000000  0.3979850000000  0.5602880000000 1.0
C      1  0.5813120000000  0.3979960000000  0.4396840000000 1.0
C      1  0.4186790000000  0.6020200000000  0.4397250000000 1.0
C      1  0.3979950000000  0.4396960000000  0.5813190000000 1.0
C      1  0.6020010000000  0.4397120000000  0.4186640000000 1.0
C      1  0.3979870000000  0.5603100000000  0.4186960000000 1.0
END
