TITL C-3523-9216-3 -417.27169913196 125000 -835.540065230178 0 0 116 (C1) n - 1
REM
REM in /rds/project/t2_vol4/rds-t2-cs072/BORA/CARBON/from-Arr/AIRSS/Generating-Clusters/GAP-ML-2020/Higher-Symm/SD-CG/HFTN-CG
REM
REM
REM
REM
REM
REM ./C.cell (b20cbc046b6831c77cfcea5457e17084)
REM AIRSS Version 0.9.1 bugfix July 2018 build 013d7b7c2542+ Fri, 06 Jul 2018 19:26:36 +0100
REM compiler GCC version 9.3.0
REM options -cpp -mtune=generic -march=x86-64 -g -O0
REM seed 346100420 -610336448 -720982984 -1716470877 -738545112 1576922295 -851141699 1259415290 135843731 656440865 -1233050362 -80174633 -1099938333 -273533967 896402797 1770525721 441778992 1836490869 1635970513 -1845549241 -748615935 1858315268 882125836 -1479357347 -1551138586 -929925306 1571718981 1647520617 -481880017 -2059007815 267958507 -1194661900 192906422
REM
CELL 1.54180   50.00000   50.00000   50.00000   90.00000   90.00000   90.00000
LATT -1
SFAC C  
C      1  0.4929410000000  0.4285230000000  0.4523760000000 1.0
C      1  0.4300790000000  0.4844430000000  0.4525680000000 1.0
C      1  0.4638130000000  0.5615130000000  0.4531730000000 1.0
C      1  0.5474650000000  0.5532920000000  0.4532190000000 1.0
C      1  0.5655210000000  0.4710950000000  0.4526400000000 1.0
C      1  0.4795070000000  0.5571910000000  0.4297830000000 1.0
C      1  0.5480910000000  0.5371440000000  0.4297510000000 1.0
C      1  0.5502200000000  0.4656540000000  0.4292330000000 1.0
C      1  0.4829210000000  0.4415050000000  0.4290530000000 1.0
C      1  0.4392280000000  0.4981150000000  0.4293120000000 1.0
C      1  0.4649830000000  0.4475500000000  0.5631420000000 1.0
C      1  0.4380860000000  0.5166790000000  0.5632340000000 1.0
C      1  0.4973150000000  0.5617460000000  0.5641290000000 1.0
C      1  0.5607010000000  0.5209560000000  0.5633130000000 1.0
C      1  0.5389770000000  0.4497490000000  0.5630720000000 1.0
C      1  0.4277180000000  0.5091360000000  0.5376130000000 1.0
C      1  0.4871520000000  0.5707370000000  0.5384930000000 1.0
C      1  0.5644420000000  0.5334950000000  0.5376930000000 1.0
C      1  0.5522640000000  0.4491870000000  0.5374600000000 1.0
C      1  0.4686200000000  0.4343820000000  0.5376620000000 1.0
C      1  0.5071100000000  0.5788340000000  0.4739440000000 1.0
C      1  0.5774360000000  0.5174350000000  0.4735160000000 1.0
C      1  0.5406740000000  0.4313090000000  0.4729940000000 1.0
C      1  0.4475800000000  0.4397250000000  0.4728780000000 1.0
C      1  0.4266900000000  0.5309480000000  0.4733040000000 1.0
C      1  0.5234730000000  0.5162550000000  0.5946890000000 1.0
C      1  0.5222510000000  0.4873600000000  0.5901010000000 1.0
C      1  0.4955380000000  0.4767740000000  0.5890900000000 1.0
C      1  0.4747520000000  0.4966290000000  0.5900610000000 1.0
C      1  0.4844550000000  0.5237690000000  0.5946620000000 1.0
C      1  0.5239260000000  0.4948180000000  0.3998250000000 1.0
C      1  0.5023820000000  0.4757130000000  0.3996760000000 1.0
C      1  0.4775830000000  0.4903300000000  0.3997270000000 1.0
C      1  0.4838090000000  0.5184470000000  0.3999290000000 1.0
C      1  0.5124540000000  0.5212230000000  0.4000000000000 1.0
C      1  0.4524120000000  0.5420670000000  0.5622200000000 1.0
C      1  0.5260630000000  0.5556690000000  0.5630760000000 1.0
C      1  0.5630570000000  0.4919000000000  0.5620650000000 1.0
C      1  0.5123770000000  0.4385830000000  0.5620350000000 1.0
C      1  0.4453160000000  0.4686320000000  0.5619540000000 1.0
C      1  0.5263370000000  0.5817780000000  0.4946740000000 1.0
C      1  0.5863640000000  0.4997520000000  0.4939040000000 1.0
C      1  0.5267670000000  0.4174400000000  0.4936020000000 1.0
C      1  0.4300910000000  0.4485620000000  0.4934990000000 1.0
C      1  0.4297990000000  0.5502960000000  0.4939260000000 1.0
C      1  0.5050290000000  0.4521120000000  0.4139610000000 1.0
C      1  0.4560410000000  0.4804240000000  0.4140490000000 1.0
C      1  0.4678180000000  0.5358220000000  0.4144160000000 1.0
C      1  0.5240880000000  0.5417480000000  0.4145350000000 1.0
C      1  0.5470910000000  0.4900160000000  0.4142240000000 1.0
C      1  0.4421840000000  0.4573870000000  0.4515130000000 1.0
C      1  0.4418170000000  0.5416570000000  0.4520240000000 1.0
C      1  0.5217950000000  0.5680570000000  0.4523680000000 1.0
C      1  0.5715460000000  0.5001350000000  0.4519880000000 1.0
C      1  0.5224070000000  0.4317050000000  0.4514860000000 1.0
C      1  0.5216400000000  0.4883370000000  0.4808010000000 1.0
C      1  0.4957870000000  0.4755670000000  0.4807090000000 1.0
C      1  0.4756590000000  0.4962130000000  0.4809270000000 1.0
C      1  0.4890630000000  0.5217210000000  0.4812300000000 1.0
C      1  0.5174480000000  0.5168570000000  0.4811860000000 1.0
C      1  0.4828350000000  0.4063280000000  0.4991170000000 1.0
C      1  0.4057990000000  0.4868320000000  0.4990540000000 1.0
C      1  0.4590430000000  0.5850880000000  0.4998690000000 1.0
C      1  0.5684080000000  0.5651110000000  0.4998970000000 1.0
C      1  0.5833900000000  0.4543920000000  0.4990230000000 1.0
C      1  0.5392810000000  0.5622840000000  0.5381610000000 1.0
C      1  0.5723680000000  0.4810130000000  0.5372290000000 1.0
C      1  0.5048740000000  0.4255260000000  0.5373130000000 1.0
C      1  0.4307630000000  0.4715720000000  0.5371560000000 1.0
C      1  0.4515050000000  0.5566740000000  0.5374410000000 1.0
C      1  0.5609270000000  0.5429380000000  0.4786420000000 1.0
C      1  0.5599640000000  0.4548310000000  0.4779400000000 1.0
C      1  0.4759140000000  0.4286980000000  0.4777960000000 1.0
C      1  0.4250230000000  0.5005460000000  0.4780720000000 1.0
C      1  0.4777520000000  0.5710960000000  0.4787410000000 1.0
C      1  0.4339860000000  0.5774130000000  0.4914630000000 1.0
C      1  0.5533040000000  0.5865750000000  0.4919680000000 1.0
C      1  0.5990640000000  0.4754720000000  0.4909470000000 1.0
C      1  0.5076110000000  0.3978310000000  0.4908530000000 1.0
C      1  0.4055120000000  0.4606580000000  0.4907330000000 1.0
C      1  0.4719710000000  0.4570380000000  0.5183790000000 1.0
C      1  0.4507530000000  0.5129130000000  0.5187810000000 1.0
C      1  0.4974000000000  0.5501660000000  0.5194360000000 1.0
C      1  0.5474710000000  0.5173240000000  0.5190950000000 1.0
C      1  0.5316970000000  0.4598690000000  0.5184700000000 1.0
C      1  0.5437510000000  0.4748510000000  0.5764620000000 1.0
C      1  0.4904240000000  0.4516850000000  0.5762270000000 1.0
C      1  0.4501250000000  0.4935700000000  0.5763220000000 1.0
C      1  0.4769660000000  0.5456110000000  0.5771560000000 1.0
C      1  0.5390740000000  0.5334730000000  0.5773860000000 1.0
C      1  0.4987430000000  0.5231370000000  0.5316420000000 1.0
C      1  0.5222290000000  0.5077680000000  0.5313030000000 1.0
C      1  0.5147360000000  0.4809400000000  0.5301040000000 1.0
C      1  0.4868650000000  0.4797080000000  0.5298960000000 1.0
C      1  0.4768960000000  0.5057080000000  0.5305410000000 1.0
C      1  0.5661170000000  0.5599390000000  0.5283520000000 1.0
C      1  0.5780720000000  0.4547550000000  0.5275510000000 1.0
C      1  0.4818390000000  0.4115130000000  0.5277620000000 1.0
C      1  0.4104230000000  0.4892390000000  0.5276320000000 1.0
C      1  0.4628570000000  0.5812170000000  0.5284270000000 1.0
C      1  0.5149700000000  0.4376980000000  0.5117800000000 1.0
C      1  0.4456640000000  0.4660080000000  0.5117380000000 1.0
C      1  0.4511570000000  0.5407130000000  0.5120890000000 1.0
C      1  0.5239240000000  0.5583090000000  0.5126630000000 1.0
C      1  0.5634270000000  0.4946590000000  0.5120120000000 1.0
C      1  0.5291060000000  0.4470940000000  0.4285560000000 1.0
C      1  0.4587690000000  0.4558870000000  0.4285080000000 1.0
C      1  0.4454210000000  0.5255460000000  0.4289210000000 1.0
C      1  0.5074830000000  0.5598000000000  0.4292660000000 1.0
C      1  0.5591620000000  0.5113180000000  0.4290220000000 1.0
C      1  0.4899070000000  0.4497970000000  0.4956610000000 1.0
C      1  0.4494520000000  0.4937460000000  0.4959070000000 1.0
C      1  0.4787240000000  0.5456670000000  0.4964370000000 1.0
C      1  0.5371170000000  0.5338580000000  0.4964060000000 1.0
C      1  0.5441710000000  0.4747130000000  0.4957950000000 1.0
C      1  0.5053380000000  0.5272860000000  0.6127110000000 1.0
END
