TITL C-3522-9206-1 1.07641508961909 125000 -376.192694460038 0 0 56 (C1) n - 1
REM
REM in /rds/project/t2_vol4/rds-t2-cs072/BORA/CARBON/from-Arr/AIRSS/Generating-Clusters/GAP-ML-2020/Higher-Symm/SD-CG/HFTN-CG
REM
REM
REM
REM
REM
REM ./C.cell (b20cbc046b6831c77cfcea5457e17084)
REM AIRSS Version 0.9.1 bugfix July 2018 build 013d7b7c2542+ Fri, 06 Jul 2018 19:26:36 +0100
REM compiler GCC version 9.3.0
REM options -cpp -mtune=generic -march=x86-64 -g -O0
REM seed -1312752308 385736165 935242463 -1714891463 -913548553 1367720408 2075146393 1015149454 -181551790 -500618815 739931759 -496289005 -259578490 626745736 -755524202 -1010608161 -629976766 -1736539499 -706071402 -1429304901 2072332123 164761964 -519623958 -1349695129 488047901 -802753087 1220539315 563343629 916486629 2048844909 -1229951568 273400653 1002391561
REM
CELL 1.54180   50.00000   50.00000   50.00000   90.00000   90.00000   90.00000
LATT -1
SFAC C  
C      1  0.5737360000000  0.5109260000000  0.5175310000000 1.0
C      1  0.5734740000000  0.4815630000000  0.5114120000000 1.0
C      1  0.5735430000000  0.4876510000000  0.4820790000000 1.0
C      1  0.5738710000000  0.5170360000000  0.4881820000000 1.0
C      1  0.4331390000000  0.5192740000000  0.5085840000000 1.0
C      1  0.4328530000000  0.4921100000000  0.5186750000000 1.0
C      1  0.4328950000000  0.4819950000000  0.4915540000000 1.0
C      1  0.4331870000000  0.5091290000000  0.4814530000000 1.0
C      1  0.4816780000000  0.5024750000000  0.4311880000000 1.0
C      1  0.4824780000000  0.5688330000000  0.5024390000000 1.0
C      1  0.4803640000000  0.4979650000000  0.5706530000000 1.0
C      1  0.4811350000000  0.4313080000000  0.4978690000000 1.0
C      1  0.5261950000000  0.5117250000000  0.5164500000000 1.0
C      1  0.5259070000000  0.4829020000000  0.5113300000000 1.0
C      1  0.5261230000000  0.4879390000000  0.4826330000000 1.0
C      1  0.5264570000000  0.5166740000000  0.4877010000000 1.0
C      1  0.4718170000000  0.5285870000000  0.5360260000000 1.0
C      1  0.4709170000000  0.4642950000000  0.5286890000000 1.0
C      1  0.4708510000000  0.4715330000000  0.4637060000000 1.0
C      1  0.4715140000000  0.5365060000000  0.4712130000000 1.0
C      1  0.5505370000000  0.5210100000000  0.5319950000000 1.0
C      1  0.5501380000000  0.4674710000000  0.5215180000000 1.0
C      1  0.5503150000000  0.4776850000000  0.4675850000000 1.0
C      1  0.5509070000000  0.5317550000000  0.4780000000000 1.0
C      1  0.4927950000000  0.4564650000000  0.5464130000000 1.0
C      1  0.4932310000000  0.4541960000000  0.4563420000000 1.0
C      1  0.4941520000000  0.5436910000000  0.4541930000000 1.0
C      1  0.4941370000000  0.5458260000000  0.5439200000000 1.0
C      1  0.5076970000000  0.5684020000000  0.4932670000000 1.0
C      1  0.5059680000000  0.5067300000000  0.5692630000000 1.0
C      1  0.5062950000000  0.4315800000000  0.5072030000000 1.0
C      1  0.5068480000000  0.4931470000000  0.4313260000000 1.0
C      1  0.5418690000000  0.5334580000000  0.5538200000000 1.0
C      1  0.5410160000000  0.4462490000000  0.5346790000000 1.0
C      1  0.5413110000000  0.4649770000000  0.4460040000000 1.0
C      1  0.5422580000000  0.5535450000000  0.4654230000000 1.0
C      1  0.4616580000000  0.4939510000000  0.4478470000000 1.0
C      1  0.4623880000000  0.5523720000000  0.4936770000000 1.0
C      1  0.4618730000000  0.5066580000000  0.5522270000000 1.0
C      1  0.4614270000000  0.4483400000000  0.5064060000000 1.0
C      1  0.4522310000000  0.5160390000000  0.4630440000000 1.0
C      1  0.4524960000000  0.5373150000000  0.5156300000000 1.0
C      1  0.4517100000000  0.4848140000000  0.5371370000000 1.0
C      1  0.4517530000000  0.4634730000000  0.4844100000000 1.0
C      1  0.4993450000000  0.5228140000000  0.4357190000000 1.0
C      1  0.4997320000000  0.5642690000000  0.5231360000000 1.0
C      1  0.4976380000000  0.4771160000000  0.5653700000000 1.0
C      1  0.4985170000000  0.4358620000000  0.4772610000000 1.0
C      1  0.4954540000000  0.5179360000000  0.4877400000000 1.0
C      1  0.4951810000000  0.5117340000000  0.5169830000000 1.0
C      1  0.4947530000000  0.4827420000000  0.5108980000000 1.0
C      1  0.4950660000000  0.4885590000000  0.4816800000000 1.0
C      1  0.5140150000000  0.4674170000000  0.4401580000000 1.0
C      1  0.5149860000000  0.5596260000000  0.4676170000000 1.0
C      1  0.5145360000000  0.5318290000000  0.5598730000000 1.0
C      1  0.5136310000000  0.4405160000000  0.5328690000000 1.0
END
