TITL C-35890-4239-3 -144.133482935419 125000 -1376.6856626666 0 0 193 (C1) n - 1
REM
REM in /rds/project/t2_vol4/rds-t2-cs072/BORA/CARBON/from-Arr/AIRSS/Generating-Clusters/GAP-ML-2020/Higher-Symm/SD-CG/HFTN-CG/C160-200
REM
REM
REM
REM
REM
REM ./C.cell (6b4489405718ea1b717e0baf1da4c2d9)
REM AIRSS Version 0.9.1 bugfix July 2018 build 013d7b7c2542+ Fri, 06 Jul 2018 19:26:36 +0100
REM compiler GCC version 9.3.0
REM options -cpp -mtune=generic -march=x86-64 -g -O0
REM seed -1197607036 523729648 337202517 -1196115939 1175748253 1232841357 508554867 -239807416 -1624537041 1906820115 1907146450 -1301872710 883750995 55841378 6932810 1293187808 -1237778421 475361233 -1184377421 -1658262791 1896641639 1049943916 -595621965 1914705268 656185354 -589417144 -2118507076 938780043 -1990175849 -397483111 -2129308370 -897470832 -600278076
REM
CELL 1.54180   50.00000   50.00000   50.00000   90.00000   90.00000   90.00000
LATT -1
SFAC C  
C      1  0.5100970000000  0.4496290000000  0.6036810000000 1.0
C      1  0.4579310000000  0.4751890000000  0.6051760000000 1.0
C      1  0.4658500000000  0.5313900000000  0.6025960000000 1.0
C      1  0.5215810000000  0.5413790000000  0.6019950000000 1.0
C      1  0.5500690000000  0.4919520000000  0.6030150000000 1.0
C      1  0.4563400000000  0.5144860000000  0.4063550000000 1.0
C      1  0.4984710000000  0.5499270000000  0.4088960000000 1.0
C      1  0.5449360000000  0.5195820000000  0.4110730000000 1.0
C      1  0.5411730000000  0.4674310000000  0.3999660000000 1.0
C      1  0.4794820000000  0.4602620000000  0.4104550000000 1.0
C      1  0.6006920000000  0.4962320000000  0.4772370000000 1.0
C      1  0.5259760000000  0.4010480000000  0.4764030000000 1.0
C      1  0.4079540000000  0.4422760000000  0.4871590000000 1.0
C      1  0.4193130000000  0.5634030000000  0.4769090000000 1.0
C      1  0.5355760000000  0.5945720000000  0.4784260000000 1.0
C      1  0.3947210000000  0.5327160000000  0.5086900000000 1.0
C      1  0.5011790000000  0.6101340000000  0.5120110000000 1.0
C      1  0.6101270000000  0.5313640000000  0.5111560000000 1.0
C      1  0.5635460000000  0.4067590000000  0.5093120000000 1.0
C      1  0.4293480000000  0.4066300000000  0.5153820000000 1.0
C      1  0.4151650000000  0.4634830000000  0.4457200000000 1.0
C      1  0.4369840000000  0.5767590000000  0.4571990000000 1.0
C      1  0.5534030000000  0.5833660000000  0.4588540000000 1.0
C      1  0.5967910000000  0.4772420000000  0.4542530000000 1.0
C      1  0.5045170000000  0.3989230000000  0.4558390000000 1.0
C      1  0.3916590000000  0.4654240000000  0.4866810000000 1.0
C      1  0.4356840000000  0.6107620000000  0.4920740000000 1.0
C      1  0.5839580000000  0.5930450000000  0.4928780000000 1.0
C      1  0.6112210000000  0.4546330000000  0.4923730000000 1.0
C      1  0.4881770000000  0.3809990000000  0.4923780000000 1.0
C      1  0.4896260000000  0.5968030000000  0.5357400000000 1.0
C      1  0.6000500000000  0.5389250000000  0.5372120000000 1.0
C      1  0.5678370000000  0.4175980000000  0.5355420000000 1.0
C      1  0.4438830000000  0.4072890000000  0.5406670000000 1.0
C      1  0.4037000000000  0.5192920000000  0.5336710000000 1.0
C      1  0.4452140000000  0.4625820000000  0.5250470000000 1.0
C      1  0.4460420000000  0.5388870000000  0.5241740000000 1.0
C      1  0.5168520000000  0.5642870000000  0.5183260000000 1.0
C      1  0.5549230000000  0.5048070000000  0.5165890000000 1.0
C      1  0.5142130000000  0.4549200000000  0.5189710000000 1.0
C      1  0.5608900000000  0.5761740000000  0.5476590000000 1.0
C      1  0.5910590000000  0.4660700000000  0.5449540000000 1.0
C      1  0.4966050000000  0.4025440000000  0.5453250000000 1.0
C      1  0.4061160000000  0.4703010000000  0.5486140000000 1.0
C      1  0.4427970000000  0.5805450000000  0.5473590000000 1.0
C      1  0.4696210000000  0.5481330000000  0.5415080000000 1.0
C      1  0.5331060000000  0.5450260000000  0.5377990000000 1.0
C      1  0.5472640000000  0.4856070000000  0.5380060000000 1.0
C      1  0.4938170000000  0.4506080000000  0.5409340000000 1.0
C      1  0.4446100000000  0.4875080000000  0.5432050000000 1.0
C      1  0.5120990000000  0.5195810000000  0.6165320000000 1.0
C      1  0.5259620000000  0.4944220000000  0.6168570000000 1.0
C      1  0.5059980000000  0.4736160000000  0.6173780000000 1.0
C      1  0.4801590000000  0.4864650000000  0.6174610000000 1.0
C      1  0.4839460000000  0.5147710000000  0.6164320000000 1.0
C      1  0.5018320000000  0.4771500000000  0.5026320000000 1.0
C      1  0.4762540000000  0.4892160000000  0.5107810000000 1.0
C      1  0.4808710000000  0.5183980000000  0.5083520000000 1.0
C      1  0.5093550000000  0.5217830000000  0.5050570000000 1.0
C      1  0.5171050000000  0.4978450000000  0.4906090000000 1.0
C      1  0.4611390000000  0.5368920000000  0.4981240000000 1.0
C      1  0.5185120000000  0.5471770000000  0.4941210000000 1.0
C      1  0.5465900000000  0.4959200000000  0.4897240000000 1.0
C      1  0.5051860000000  0.4494370000000  0.4922940000000 1.0
C      1  0.4501140000000  0.4775120000000  0.4995250000000 1.0
C      1  0.4415920000000  0.5205840000000  0.5913080000000 1.0
C      1  0.5029980000000  0.5604610000000  0.5902550000000 1.0
C      1  0.5621510000000  0.5156480000000  0.5907040000000 1.0
C      1  0.5357000000000  0.4463450000000  0.5896520000000 1.0
C      1  0.4615370000000  0.4487290000000  0.5934320000000 1.0
C      1  0.6025850000000  0.4905890000000  0.5324180000000 1.0
C      1  0.5228780000000  0.4006160000000  0.5317250000000 1.0
C      1  0.4183320000000  0.4465640000000  0.5350580000000 1.0
C      1  0.4246620000000  0.5608960000000  0.5315460000000 1.0
C      1  0.5394920000000  0.5940950000000  0.5358010000000 1.0
C      1  0.5952500000000  0.5756050000000  0.5109510000000 1.0
C      1  0.6004540000000  0.4354370000000  0.5092290000000 1.0
C      1  0.4678960000000  0.3833600000000  0.5106370000000 1.0
C      1  0.3859200000000  0.4867800000000  0.5061000000000 1.0
C      1  0.4549310000000  0.6144780000000  0.5114890000000 1.0
C      1  0.4736460000000  0.6124360000000  0.4670990000000 1.0
C      1  0.5990630000000  0.5590870000000  0.4669270000000 1.0
C      1  0.5874530000000  0.4264210000000  0.4657470000000 1.0
C      1  0.4522810000000  0.3985770000000  0.4682530000000 1.0
C      1  0.3905810000000  0.5058080000000  0.4632700000000 1.0
C      1  0.4834020000000  0.4307350000000  0.4206900000000 1.0
C      1  0.4305690000000  0.4988660000000  0.4114480000000 1.0
C      1  0.4765580000000  0.5712180000000  0.4152000000000 1.0
C      1  0.5582230000000  0.5466630000000  0.4178010000000 1.0
C      1  0.5664510000000  0.4607380000000  0.4131660000000 1.0
C      1  0.4403350000000  0.4481470000000  0.5744060000000 1.0
C      1  0.4331870000000  0.5401160000000  0.5719490000000 1.0
C      1  0.5194540000000  0.5748960000000  0.5721320000000 1.0
C      1  0.5796830000000  0.5043840000000  0.5709480000000 1.0
C      1  0.5292220000000  0.4269690000000  0.5696910000000 1.0
C      1  0.5971590000000  0.5131720000000  0.5504690000000 1.0
C      1  0.5425990000000  0.4130870000000  0.5491600000000 1.0
C      1  0.4328660000000  0.4299900000000  0.5547450000000 1.0
C      1  0.4140180000000  0.5414610000000  0.5513440000000 1.0
C      1  0.5154790000000  0.5941670000000  0.5524370000000 1.0
C      1  0.4456740000000  0.6023360000000  0.4673030000000 1.0
C      1  0.5805230000000  0.5821630000000  0.4677690000000 1.0
C      1  0.6023100000000  0.4514690000000  0.4662410000000 1.0
C      1  0.4803130000000  0.3889100000000  0.4670930000000 1.0
C      1  0.3955010000000  0.4775510000000  0.4610140000000 1.0
C      1  0.5538720000000  0.5329050000000  0.5191810000000 1.0
C      1  0.5415350000000  0.4624080000000  0.5198480000000 1.0
C      1  0.4700480000000  0.4447450000000  0.5223090000000 1.0
C      1  0.4322400000000  0.5110130000000  0.5256510000000 1.0
C      1  0.4866450000000  0.5675600000000  0.5238600000000 1.0
C      1  0.4909560000000  0.4766820000000  0.5554230000000 1.0
C      1  0.4731880000000  0.4947260000000  0.5424920000000 1.0
C      1  0.4840490000000  0.5228600000000  0.5403470000000 1.0
C      1  0.5141500000000  0.5227120000000  0.5377930000000 1.0
C      1  0.5245890000000  0.4991490000000  0.5502890000000 1.0
C      1  0.5015440000000  0.5272910000000  0.3879690000000 1.0
C      1  0.5265620000000  0.5131670000000  0.3882460000000 1.0
C      1  0.5219710000000  0.4847560000000  0.3874420000000 1.0
C      1  0.4930420000000  0.4812360000000  0.3902610000000 1.0
C      1  0.4808970000000  0.5079050000000  0.3880680000000 1.0
C      1  0.4415700000000  0.4195180000000  0.4514220000000 1.0
C      1  0.4044130000000  0.5246130000000  0.4471610000000 1.0
C      1  0.4939940000000  0.6039460000000  0.4496810000000 1.0
C      1  0.5965680000000  0.5378850000000  0.4488610000000 1.0
C      1  0.5653270000000  0.4226480000000  0.4489400000000 1.0
C      1  0.5893410000000  0.4388380000000  0.5351370000000 1.0
C      1  0.4702590000000  0.3936860000000  0.5374230000000 1.0
C      1  0.3930560000000  0.4906630000000  0.5337760000000 1.0
C      1  0.4592120000000  0.6020050000000  0.5374240000000 1.0
C      1  0.5865170000000  0.5662140000000  0.5368080000000 1.0
C      1  0.4999270000000  0.4273280000000  0.5630070000000 1.0
C      1  0.4295450000000  0.4757690000000  0.5680950000000 1.0
C      1  0.4553700000000  0.5592400000000  0.5663140000000 1.0
C      1  0.5433530000000  0.5583830000000  0.5645870000000 1.0
C      1  0.5694740000000  0.4776330000000  0.5626360000000 1.0
C      1  0.4587390000000  0.5050600000000  0.4564310000000 1.0
C      1  0.4832110000000  0.5484810000000  0.4526050000000 1.0
C      1  0.5392180000000  0.5329710000000  0.4522560000000 1.0
C      1  0.5289540000000  0.4649080000000  0.4478340000000 1.0
C      1  0.4729140000000  0.4806160000000  0.4610990000000 1.0
C      1  0.4553780000000  0.4293970000000  0.4279770000000 1.0
C      1  0.4187700000000  0.5223780000000  0.4229700000000 1.0
C      1  0.4962700000000  0.5887530000000  0.4258870000000 1.0
C      1  0.5827640000000  0.5340440000000  0.4246910000000 1.0
C      1  0.5590480000000  0.4333290000000  0.4238760000000 1.0
C      1  0.4286320000000  0.4720700000000  0.4216510000000 1.0
C      1  0.4556850000000  0.5602460000000  0.4354610000000 1.0
C      1  0.5417830000000  0.5623850000000  0.4380670000000 1.0
C      1  0.5809860000000  0.4818700000000  0.4285430000000 1.0
C      1  0.5057960000000  0.4150890000000  0.4308560000000 1.0
C      1  0.4759620000000  0.5623470000000  0.4961000000000 1.0
C      1  0.5481340000000  0.5419750000000  0.4927560000000 1.0
C      1  0.5493370000000  0.4665520000000  0.4921850000000 1.0
C      1  0.4771850000000  0.4419470000000  0.4935000000000 1.0
C      1  0.4341020000000  0.5009010000000  0.4971600000000 1.0
C      1  0.5274570000000  0.5956890000000  0.5080080000000 1.0
C      1  0.6091170000000  0.5018940000000  0.5052270000000 1.0
C      1  0.5352300000000  0.3979580000000  0.5044430000000 1.0
C      1  0.4123730000000  0.4291280000000  0.5117840000000 1.0
C      1  0.4093100000000  0.5579410000000  0.5045150000000 1.0
C      1  0.4859880000000  0.4817730000000  0.4306000000000 1.0
C      1  0.4737720000000  0.5097200000000  0.4294540000000 1.0
C      1  0.4956340000000  0.5306460000000  0.4324550000000 1.0
C      1  0.5229250000000  0.5163900000000  0.4352630000000 1.0
C      1  0.5296750000000  0.4514210000000  0.4214860000000 1.0
C      1  0.5306100000000  0.4236040000000  0.4193080000000 1.0
C      1  0.4497170000000  0.4544120000000  0.4149840000000 1.0
C      1  0.4420910000000  0.5393480000000  0.4178860000000 1.0
C      1  0.5177950000000  0.5701630000000  0.4206810000000 1.0
C      1  0.5725470000000  0.5075960000000  0.4183820000000 1.0
C      1  0.5309900000000  0.4511430000000  0.4734410000000 1.0
C      1  0.4581410000000  0.4594680000000  0.4769140000000 1.0
C      1  0.4447780000000  0.5207500000000  0.4771740000000 1.0
C      1  0.4972940000000  0.5614240000000  0.4757060000000 1.0
C      1  0.5563180000000  0.5211220000000  0.4733600000000 1.0
C      1  0.4292090000000  0.4441970000000  0.4644280000000 1.0
C      1  0.4216740000000  0.5378350000000  0.4655370000000 1.0
C      1  0.5098060000000  0.5891880000000  0.4680500000000 1.0
C      1  0.5861280000000  0.5184490000000  0.4673790000000 1.0
C      1  0.5417150000000  0.4227910000000  0.4662100000000 1.0
C      1  0.6071100000000  0.5544560000000  0.4945090000000 1.0
C      1  0.5847590000000  0.4175170000000  0.4930150000000 1.0
C      1  0.4448890000000  0.3929810000000  0.4957770000000 1.0
C      1  0.3857900000000  0.5115570000000  0.4914660000000 1.0
C      1  0.4799730000000  0.6182470000000  0.4954520000000 1.0
C      1  0.5546990000000  0.4680640000000  0.5877510000000 1.0
C      1  0.4880210000000  0.4369320000000  0.5903420000000 1.0
C      1  0.4382340000000  0.4917770000000  0.5916650000000 1.0
C      1  0.4745770000000  0.5550790000000  0.5895050000000 1.0
C      1  0.5467940000000  0.5401800000000  0.5886530000000 1.0
C      1  0.5102670000000  0.4882530000000  0.5700760000000 1.0
C      1  0.5136150000000  0.4886340000000  0.4437470000000 1.0
C      1  0.4993220000000  0.4934890000000  0.4683380000000 1.0
END
