TITL C-35901-4125-3 589.724100096173 125000 -1127.08790384592 0 0 162 (C1) n - 1
REM
REM in /rds/project/t2_vol4/rds-t2-cs072/BORA/CARBON/from-Arr/AIRSS/Generating-Clusters/GAP-ML-2020/Higher-Symm/SD-CG/HFTN-CG/C160-200
REM
REM
REM
REM
REM
REM ./C.cell (6b4489405718ea1b717e0baf1da4c2d9)
REM AIRSS Version 0.9.1 bugfix July 2018 build 013d7b7c2542+ Fri, 06 Jul 2018 19:26:36 +0100
REM compiler GCC version 9.3.0
REM options -cpp -mtune=generic -march=x86-64 -g -O0
REM seed 1984741307 326937863 -1156365948 -1391753641 -267840844 -1753440547 -410295677 13505007 -1377839839 -930788971 1028181298 246947744 1907181051 172799425 1097537605 1800002533 -833630846 -1969824899 1706147223 483790449 1814539639 1385045817 -1172474797 -753428752 714157923 -1423026994 -100674047 781894998 -602378060 -1184271831 608029356 1698029105 -2147202451
REM
CELL 1.54180   50.00000   50.00000   50.00000   90.00000   90.00000   90.00000
LATT -1
SFAC C  
C      1  0.4750630000000  0.5816330000000  0.5663950000000 1.0
C      1  0.5594700000000  0.5302620000000  0.4265170000000 1.0
C      1  0.4865040000000  0.4603160000000  0.6104250000000 1.0
C      1  0.4889680000000  0.5454780000000  0.5320860000000 1.0
C      1  0.5537590000000  0.5761830000000  0.4665850000000 1.0
C      1  0.5204840000000  0.4126800000000  0.5470210000000 1.0
C      1  0.4080180000000  0.4496980000000  0.5207120000000 1.0
C      1  0.4258410000000  0.5747610000000  0.4716430000000 1.0
C      1  0.4893890000000  0.5802270000000  0.4229010000000 1.0
C      1  0.5851020000000  0.4359500000000  0.4441540000000 1.0
C      1  0.4940690000000  0.4467820000000  0.5190350000000 1.0
C      1  0.4486140000000  0.5183270000000  0.5636340000000 1.0
C      1  0.4702150000000  0.5315870000000  0.5116690000000 1.0
C      1  0.5092470000000  0.3930140000000  0.4750500000000 1.0
C      1  0.3987980000000  0.5273770000000  0.4730470000000 1.0
C      1  0.5425250000000  0.4785970000000  0.5870750000000 1.0
C      1  0.5664700000000  0.4796310000000  0.5182970000000 1.0
C      1  0.5924140000000  0.5261800000000  0.5561230000000 1.0
C      1  0.5269420000000  0.4561190000000  0.5767420000000 1.0
C      1  0.5130030000000  0.5526690000000  0.5151940000000 1.0
C      1  0.4757110000000  0.5396050000000  0.4067510000000 1.0
C      1  0.4507860000000  0.5025700000000  0.4371330000000 1.0
C      1  0.4522770000000  0.4471880000000  0.5704900000000 1.0
C      1  0.4353800000000  0.5054540000000  0.4920230000000 1.0
C      1  0.5405670000000  0.5511570000000  0.4226540000000 1.0
C      1  0.4751910000000  0.4042770000000  0.5296990000000 1.0
C      1  0.4532640000000  0.5699150000000  0.5813340000000 1.0
C      1  0.5139630000000  0.5991820000000  0.4860020000000 1.0
C      1  0.6048750000000  0.5326560000000  0.5313720000000 1.0
C      1  0.5926910000000  0.5523510000000  0.5464340000000 1.0
C      1  0.4963360000000  0.5581920000000  0.4055440000000 1.0
C      1  0.5510290000000  0.5381590000000  0.5770370000000 1.0
C      1  0.4148940000000  0.4529220000000  0.4929320000000 1.0
C      1  0.5128640000000  0.5080790000000  0.5053100000000 1.0
C      1  0.4236650000000  0.4270890000000  0.4827400000000 1.0
C      1  0.5346110000000  0.6054380000000  0.5039870000000 1.0
C      1  0.4838160000000  0.3838680000000  0.5130280000000 1.0
C      1  0.4800880000000  0.4388840000000  0.4920340000000 1.0
C      1  0.5101900000000  0.3884640000000  0.5039700000000 1.0
C      1  0.4297760000000  0.4390000000000  0.5548870000000 1.0
C      1  0.5723750000000  0.4250620000000  0.5240360000000 1.0
C      1  0.4985200000000  0.6028890000000  0.4628010000000 1.0
C      1  0.4652560000000  0.3885670000000  0.4885840000000 1.0
C      1  0.5093710000000  0.5901150000000  0.4399020000000 1.0
C      1  0.5650310000000  0.4378090000000  0.5488280000000 1.0
C      1  0.5904250000000  0.4843800000000  0.5018310000000 1.0
C      1  0.4229830000000  0.4860750000000  0.5570330000000 1.0
C      1  0.5390370000000  0.4308190000000  0.5598420000000 1.0
C      1  0.5995690000000  0.4926320000000  0.4434830000000 1.0
C      1  0.5290110000000  0.4006350000000  0.5219710000000 1.0
C      1  0.4544210000000  0.4483220000000  0.4117130000000 1.0
C      1  0.4218320000000  0.4256760000000  0.5302210000000 1.0
C      1  0.5133920000000  0.5148880000000  0.3965370000000 1.0
C      1  0.5549150000000  0.5888260000000  0.4928750000000 1.0
C      1  0.4559380000000  0.3971900000000  0.4616230000000 1.0
C      1  0.4127390000000  0.4620470000000  0.5466380000000 1.0
C      1  0.4718430000000  0.5934930000000  0.4703470000000 1.0
C      1  0.5501530000000  0.4858080000000  0.4455810000000 1.0
C      1  0.4672740000000  0.4936250000000  0.5622070000000 1.0
C      1  0.4105870000000  0.5288420000000  0.5243220000000 1.0
C      1  0.4579230000000  0.4973910000000  0.4077470000000 1.0
C      1  0.4890750000000  0.5411330000000  0.5836150000000 1.0
C      1  0.5078610000000  0.4709230000000  0.4726830000000 1.0
C      1  0.4609150000000  0.5439030000000  0.5905260000000 1.0
C      1  0.4935670000000  0.4900180000000  0.5755300000000 1.0
C      1  0.5398270000000  0.5338770000000  0.4787120000000 1.0
C      1  0.4484310000000  0.5854100000000  0.4568430000000 1.0
C      1  0.4088820000000  0.5170430000000  0.4989470000000 1.0
C      1  0.4391790000000  0.4215450000000  0.4590520000000 1.0
C      1  0.5114080000000  0.5128730000000  0.4493690000000 1.0
C      1  0.4619160000000  0.4147630000000  0.5049980000000 1.0
C      1  0.5348150000000  0.4594890000000  0.4557750000000 1.0
C      1  0.4804050000000  0.4866400000000  0.4777020000000 1.0
C      1  0.5094750000000  0.5060960000000  0.5556680000000 1.0
C      1  0.4733680000000  0.4852200000000  0.4484520000000 1.0
C      1  0.4279170000000  0.5738600000000  0.5687690000000 1.0
C      1  0.5429510000000  0.4694760000000  0.5028570000000 1.0
C      1  0.4495470000000  0.4729500000000  0.4010410000000 1.0
C      1  0.5842110000000  0.5538730000000  0.4945700000000 1.0
C      1  0.4341340000000  0.4737140000000  0.4829150000000 1.0
C      1  0.5277590000000  0.4113750000000  0.4637140000000 1.0
C      1  0.5921300000000  0.4374120000000  0.5106040000000 1.0
C      1  0.4440980000000  0.4460430000000  0.4427930000000 1.0
C      1  0.5629710000000  0.4694470000000  0.5464630000000 1.0
C      1  0.5362060000000  0.5053580000000  0.4652100000000 1.0
C      1  0.4293850000000  0.5119950000000  0.5420800000000 1.0
C      1  0.5517190000000  0.4497490000000  0.4784020000000 1.0
C      1  0.4331540000000  0.4142740000000  0.5068260000000 1.0
C      1  0.4146670000000  0.5721240000000  0.5474820000000 1.0
C      1  0.4297700000000  0.5675000000000  0.4999150000000 1.0
C      1  0.4728140000000  0.5705300000000  0.5395270000000 1.0
C      1  0.4516800000000  0.5089670000000  0.5195150000000 1.0
C      1  0.4516770000000  0.4930540000000  0.6012630000000 1.0
C      1  0.4920600000000  0.4235630000000  0.5446440000000 1.0
C      1  0.5780340000000  0.4749960000000  0.4463790000000 1.0
C      1  0.5633980000000  0.4878570000000  0.5697160000000 1.0
C      1  0.4975390000000  0.4576860000000  0.5831560000000 1.0
C      1  0.4463030000000  0.5195890000000  0.5923980000000 1.0
C      1  0.4621660000000  0.5758780000000  0.4332530000000 1.0
C      1  0.5314490000000  0.5700110000000  0.4460400000000 1.0
C      1  0.5804370000000  0.4530440000000  0.4677810000000 1.0
C      1  0.5009340000000  0.5931330000000  0.5632930000000 1.0
C      1  0.4223790000000  0.4936920000000  0.4430910000000 1.0
C      1  0.5491590000000  0.5647830000000  0.5605180000000 1.0
C      1  0.5184900000000  0.4354140000000  0.4466760000000 1.0
C      1  0.5100870000000  0.4435010000000  0.4178410000000 1.0
C      1  0.4778310000000  0.5914340000000  0.5213200000000 1.0
C      1  0.5058590000000  0.5299930000000  0.6023220000000 1.0
C      1  0.5461370000000  0.4209910000000  0.4826680000000 1.0
C      1  0.5202980000000  0.5428950000000  0.4036020000000 1.0
C      1  0.4876890000000  0.5151320000000  0.4897760000000 1.0
C      1  0.4460040000000  0.4766270000000  0.5759360000000 1.0
C      1  0.5268640000000  0.6034830000000  0.5317790000000 1.0
C      1  0.5693350000000  0.5164150000000  0.5684780000000 1.0
C      1  0.4997670000000  0.5007600000000  0.6032930000000 1.0
C      1  0.4951420000000  0.4978720000000  0.4330000000000 1.0
C      1  0.5303300000000  0.4620280000000  0.4032110000000 1.0
C      1  0.5716640000000  0.5730920000000  0.5110890000000 1.0
C      1  0.5295810000000  0.4983780000000  0.6020350000000 1.0
C      1  0.4938380000000  0.4451240000000  0.4653280000000 1.0
C      1  0.5054990000000  0.5692600000000  0.4917070000000 1.0
C      1  0.5703090000000  0.5677800000000  0.5399700000000 1.0
C      1  0.4136820000000  0.5585380000000  0.5229310000000 1.0
C      1  0.5750280000000  0.4517090000000  0.4241720000000 1.0
C      1  0.5049260000000  0.4936450000000  0.5298150000000 1.0
C      1  0.4798010000000  0.4392960000000  0.5681090000000 1.0
C      1  0.4823520000000  0.4462950000000  0.4181390000000 1.0
C      1  0.5514420000000  0.4112530000000  0.5088050000000 1.0
C      1  0.5184520000000  0.4647800000000  0.5234740000000 1.0
C      1  0.4763530000000  0.5773150000000  0.4943030000000 1.0
C      1  0.5319260000000  0.4932640000000  0.4011570000000 1.0
C      1  0.5563540000000  0.4525080000000  0.4049030000000 1.0
C      1  0.4563100000000  0.5527060000000  0.4960010000000 1.0
C      1  0.5267810000000  0.4886930000000  0.4876380000000 1.0
C      1  0.4726340000000  0.4898670000000  0.5325780000000 1.0
C      1  0.5512340000000  0.5025810000000  0.4196380000000 1.0
C      1  0.5963640000000  0.4568350000000  0.4927170000000 1.0
C      1  0.5338280000000  0.4597320000000  0.5482700000000 1.0
C      1  0.4190830000000  0.5472540000000  0.4687480000000 1.0
C      1  0.4029380000000  0.5091350000000  0.4534850000000 1.0
C      1  0.4633060000000  0.4659040000000  0.4921280000000 1.0
C      1  0.5974630000000  0.5087310000000  0.4882650000000 1.0
C      1  0.5682070000000  0.5509030000000  0.4700170000000 1.0
C      1  0.4970700000000  0.5321800000000  0.5566150000000 1.0
C      1  0.5146550000000  0.5518320000000  0.4683460000000 1.0
C      1  0.4848240000000  0.5120120000000  0.4065930000000 1.0
C      1  0.4819770000000  0.3878700000000  0.4656040000000 1.0
C      1  0.5782260000000  0.5341440000000  0.4482940000000 1.0
C      1  0.4933630000000  0.5301530000000  0.4636370000000 1.0
C      1  0.4985490000000  0.6048270000000  0.5358510000000 1.0
C      1  0.5292530000000  0.5861320000000  0.5573290000000 1.0
C      1  0.5304370000000  0.5315520000000  0.5070940000000 1.0
C      1  0.4584990000000  0.5485350000000  0.4272540000000 1.0
C      1  0.4760970000000  0.4849560000000  0.6151980000000 1.0
C      1  0.4695260000000  0.4649170000000  0.5205830000000 1.0
C      1  0.5955430000000  0.5142040000000  0.4591500000000 1.0
C      1  0.4610570000000  0.5290110000000  0.4496590000000 1.0
C      1  0.4447360000000  0.5325490000000  0.4741870000000 1.0
C      1  0.5987850000000  0.5319930000000  0.5039500000000 1.0
C      1  0.4737210000000  0.4551980000000  0.4453070000000 1.0
C      1  0.4281240000000  0.4683340000000  0.4541040000000 1.0
C      1  0.5331430000000  0.5266000000000  0.5960410000000 1.0
END
