TITL C-35899-4262-3 -131.533404851929 125000 -1191.5622701093 0 0 170 (C1) n - 1
REM
REM in /rds/project/t2_vol4/rds-t2-cs072/BORA/CARBON/from-Arr/AIRSS/Generating-Clusters/GAP-ML-2020/Higher-Symm/SD-CG/HFTN-CG/C160-200
REM
REM
REM
REM
REM
REM ./C.cell (6b4489405718ea1b717e0baf1da4c2d9)
REM AIRSS Version 0.9.1 bugfix July 2018 build 013d7b7c2542+ Fri, 06 Jul 2018 19:26:36 +0100
REM compiler GCC version 9.3.0
REM options -cpp -mtune=generic -march=x86-64 -g -O0
REM seed -795372785 841049746 1475843105 631288975 1868362401 -120043389 547839214 -1076730659 843502453 1350748724 1289967340 198514122 1169532456 1703865042 18745800 -1577453743 -793362815 1898263888 -356851924 1520168650 -1975587383 327654655 2130223861 1743631821 -1328784327 1448920756 -1687796430 1400725001 1641401672 693797964 1728422660 1979569780 -1046487799
REM
CELL 1.54180   50.00000   50.00000   50.00000   90.00000   90.00000   90.00000
LATT -1
SFAC C  
C      1  0.5842950000000  0.5424050000000  0.4404580000000 1.0
C      1  0.5802720000000  0.4593030000000  0.4396760000000 1.0
C      1  0.4447040000000  0.5453300000000  0.4426640000000 1.0
C      1  0.4364660000000  0.4484680000000  0.4443630000000 1.0
C      1  0.3916020000000  0.5210630000000  0.5262550000000 1.0
C      1  0.3955220000000  0.4728030000000  0.5337570000000 1.0
C      1  0.5340210000000  0.6187630000000  0.4754150000000 1.0
C      1  0.5323470000000  0.3817480000000  0.4743080000000 1.0
C      1  0.4249820000000  0.5580060000000  0.4647900000000 1.0
C      1  0.4190940000000  0.4394900000000  0.4694880000000 1.0
C      1  0.5799180000000  0.5484040000000  0.4847170000000 1.0
C      1  0.5790540000000  0.4521360000000  0.4840650000000 1.0
C      1  0.4721350000000  0.4598370000000  0.5442350000000 1.0
C      1  0.4753490000000  0.5442880000000  0.5527590000000 1.0
C      1  0.5564130000000  0.5301090000000  0.4378210000000 1.0
C      1  0.5537700000000  0.4744250000000  0.4409050000000 1.0
C      1  0.4417190000000  0.4640270000000  0.5003920000000 1.0
C      1  0.4364890000000  0.5281020000000  0.5005940000000 1.0
C      1  0.4792740000000  0.5465640000000  0.4816800000000 1.0
C      1  0.4830100000000  0.4546340000000  0.4842430000000 1.0
C      1  0.5170020000000  0.5515070000000  0.4073750000000 1.0
C      1  0.5154660000000  0.4608510000000  0.4031510000000 1.0
C      1  0.4663980000000  0.5639590000000  0.4566710000000 1.0
C      1  0.4533200000000  0.4245980000000  0.4515490000000 1.0
C      1  0.4470650000000  0.5191460000000  0.4550720000000 1.0
C      1  0.4471640000000  0.4758950000000  0.4541590000000 1.0
C      1  0.4205400000000  0.5460120000000  0.5529490000000 1.0
C      1  0.4281390000000  0.4525580000000  0.5626920000000 1.0
C      1  0.5600620000000  0.5815940000000  0.4589970000000 1.0
C      1  0.5535850000000  0.4221350000000  0.4583380000000 1.0
C      1  0.4948900000000  0.4791390000000  0.5501480000000 1.0
C      1  0.4963180000000  0.5277340000000  0.5419230000000 1.0
C      1  0.5768380000000  0.4380870000000  0.4592760000000 1.0
C      1  0.5814400000000  0.5631330000000  0.4606030000000 1.0
C      1  0.5664600000000  0.5752540000000  0.5245410000000 1.0
C      1  0.5638420000000  0.4251140000000  0.5244260000000 1.0
C      1  0.5560540000000  0.4750090000000  0.4739070000000 1.0
C      1  0.5555610000000  0.5271550000000  0.4710930000000 1.0
C      1  0.5299330000000  0.4433340000000  0.5574600000000 1.0
C      1  0.5318310000000  0.5594900000000  0.5567760000000 1.0
C      1  0.4670200000000  0.5715490000000  0.5915210000000 1.0
C      1  0.4849030000000  0.4152720000000  0.5884060000000 1.0
C      1  0.5461490000000  0.4742760000000  0.5936050000000 1.0
C      1  0.5490630000000  0.5294110000000  0.5954220000000 1.0
C      1  0.4804640000000  0.4245900000000  0.4443720000000 1.0
C      1  0.4898060000000  0.5716450000000  0.4420220000000 1.0
C      1  0.5192970000000  0.4100610000000  0.5197260000000 1.0
C      1  0.5215870000000  0.5903030000000  0.5193320000000 1.0
C      1  0.5253870000000  0.5302690000000  0.5411830000000 1.0
C      1  0.5249110000000  0.4750920000000  0.5438760000000 1.0
C      1  0.5122430000000  0.5860830000000  0.4490980000000 1.0
C      1  0.5062730000000  0.4152910000000  0.4505710000000 1.0
C      1  0.5299640000000  0.5483210000000  0.5855010000000 1.0
C      1  0.5274280000000  0.4545730000000  0.5860570000000 1.0
C      1  0.4475990000000  0.5341590000000  0.5487350000000 1.0
C      1  0.4567720000000  0.4571970000000  0.5722570000000 1.0
C      1  0.4417360000000  0.4162270000000  0.5285490000000 1.0
C      1  0.4370960000000  0.5806810000000  0.5245900000000 1.0
C      1  0.4784730000000  0.4419210000000  0.5894400000000 1.0
C      1  0.4813890000000  0.5492670000000  0.5820210000000 1.0
C      1  0.4118280000000  0.4570790000000  0.4934070000000 1.0
C      1  0.4150930000000  0.5433270000000  0.4881560000000 1.0
C      1  0.4512940000000  0.5802130000000  0.5002060000000 1.0
C      1  0.4505440000000  0.4175260000000  0.5011050000000 1.0
C      1  0.5294550000000  0.4576240000000  0.4315830000000 1.0
C      1  0.5409660000000  0.5537200000000  0.4236280000000 1.0
C      1  0.5001440000000  0.4079480000000  0.4991770000000 1.0
C      1  0.5020400000000  0.5907980000000  0.4987100000000 1.0
C      1  0.5596610000000  0.5674070000000  0.5510800000000 1.0
C      1  0.5571560000000  0.4356970000000  0.5501150000000 1.0
C      1  0.5509720000000  0.5980720000000  0.4818010000000 1.0
C      1  0.5467220000000  0.4043170000000  0.4808670000000 1.0
C      1  0.4382130000000  0.4191530000000  0.4756730000000 1.0
C      1  0.4443770000000  0.5762220000000  0.4730720000000 1.0
C      1  0.5044840000000  0.5284280000000  0.4726970000000 1.0
C      1  0.5065470000000  0.4701270000000  0.4757140000000 1.0
C      1  0.5758320000000  0.4558360000000  0.5570640000000 1.0
C      1  0.5777990000000  0.5469590000000  0.5588030000000 1.0
C      1  0.4052650000000  0.4493060000000  0.5218890000000 1.0
C      1  0.3998090000000  0.5466540000000  0.5123710000000 1.0
C      1  0.4740650000000  0.5457830000000  0.4040980000000 1.0
C      1  0.4627740000000  0.4631830000000  0.4023160000000 1.0
C      1  0.5093900000000  0.4238790000000  0.5442520000000 1.0
C      1  0.5119290000000  0.5771830000000  0.5422150000000 1.0
C      1  0.5337330000000  0.5234910000000  0.5128610000000 1.0
C      1  0.5345290000000  0.4804880000000  0.5154650000000 1.0
C      1  0.4885380000000  0.4506210000000  0.4052490000000 1.0
C      1  0.4961180000000  0.5545770000000  0.3885650000000 1.0
C      1  0.4371260000000  0.4607690000000  0.4157530000000 1.0
C      1  0.4492340000000  0.5359260000000  0.4126950000000 1.0
C      1  0.5873890000000  0.5359200000000  0.5344720000000 1.0
C      1  0.5911210000000  0.4604380000000  0.5334690000000 1.0
C      1  0.4147120000000  0.5630140000000  0.5310040000000 1.0
C      1  0.4228990000000  0.4355190000000  0.5397270000000 1.0
C      1  0.4872750000000  0.4071080000000  0.5623460000000 1.0
C      1  0.4559360000000  0.5848660000000  0.5720230000000 1.0
C      1  0.4799540000000  0.5711350000000  0.5038960000000 1.0
C      1  0.4795700000000  0.4293000000000  0.5016770000000 1.0
C      1  0.5001290000000  0.4601010000000  0.5925880000000 1.0
C      1  0.5051640000000  0.5359670000000  0.5896270000000 1.0
C      1  0.5827670000000  0.5545650000000  0.5122870000000 1.0
C      1  0.5824120000000  0.4432450000000  0.5114770000000 1.0
C      1  0.4011600000000  0.5240210000000  0.5536100000000 1.0
C      1  0.4123010000000  0.4778200000000  0.5574750000000 1.0
C      1  0.4599080000000  0.4727710000000  0.4801810000000 1.0
C      1  0.4579350000000  0.5241530000000  0.4822360000000 1.0
C      1  0.5702210000000  0.5269040000000  0.5777930000000 1.0
C      1  0.5680040000000  0.4762860000000  0.5753810000000 1.0
C      1  0.5486340000000  0.5909560000000  0.5100190000000 1.0
C      1  0.5456060000000  0.4099380000000  0.5099930000000 1.0
C      1  0.5105880000000  0.3988310000000  0.4737950000000 1.0
C      1  0.5131750000000  0.6004670000000  0.4737620000000 1.0
C      1  0.4425630000000  0.5157490000000  0.5271450000000 1.0
C      1  0.4520940000000  0.4734840000000  0.5259820000000 1.0
C      1  0.5993410000000  0.4794010000000  0.4435560000000 1.0
C      1  0.6018310000000  0.5209670000000  0.4444880000000 1.0
C      1  0.4575130000000  0.5850880000000  0.5449490000000 1.0
C      1  0.4669860000000  0.4115450000000  0.5422150000000 1.0
C      1  0.5042300000000  0.4702810000000  0.4453420000000 1.0
C      1  0.5014630000000  0.5227090000000  0.4444480000000 1.0
C      1  0.4857950000000  0.4493640000000  0.4327190000000 1.0
C      1  0.4956240000000  0.5462100000000  0.4273470000000 1.0
C      1  0.4830550000000  0.5695490000000  0.5356870000000 1.0
C      1  0.4831810000000  0.4350660000000  0.5316810000000 1.0
C      1  0.5302630000000  0.4297490000000  0.4433880000000 1.0
C      1  0.5386180000000  0.5761940000000  0.4409150000000 1.0
C      1  0.5322390000000  0.4658680000000  0.4895950000000 1.0
C      1  0.5308110000000  0.5353970000000  0.4853430000000 1.0
C      1  0.3942740000000  0.4811510000000  0.4887820000000 1.0
C      1  0.4923640000000  0.4853300000000  0.5797950000000 1.0
C      1  0.4621600000000  0.4982810000000  0.4381920000000 1.0
C      1  0.5181530000000  0.5012470000000  0.6283700000000 1.0
C      1  0.4918460000000  0.5031960000000  0.6283630000000 1.0
C      1  0.4241920000000  0.4872180000000  0.4155390000000 1.0
C      1  0.5522330000000  0.5017620000000  0.4267010000000 1.0
C      1  0.4664320000000  0.5043310000000  0.6253490000000 1.0
C      1  0.4305710000000  0.4898370000000  0.5364320000000 1.0
C      1  0.4082810000000  0.5027590000000  0.5730700000000 1.0
C      1  0.4488040000000  0.4990120000000  0.6032440000000 1.0
C      1  0.5457830000000  0.4981170000000  0.3981090000000 1.0
C      1  0.5698130000000  0.5010410000000  0.3842310000000 1.0
C      1  0.5804530000000  0.5063950000000  0.5346940000000 1.0
C      1  0.4039200000000  0.4912720000000  0.4351840000000 1.0
C      1  0.6226340000000  0.4897050000000  0.5099630000000 1.0
C      1  0.4665430000000  0.4989580000000  0.5190050000000 1.0
C      1  0.4917160000000  0.5019990000000  0.5321960000000 1.0
C      1  0.4632800000000  0.4834990000000  0.5837710000000 1.0
C      1  0.4710540000000  0.4992210000000  0.4902410000000 1.0
C      1  0.4476320000000  0.5055870000000  0.4107290000000 1.0
C      1  0.4924790000000  0.4973710000000  0.4343030000000 1.0
C      1  0.6220470000000  0.4970180000000  0.4856380000000 1.0
C      1  0.4678480000000  0.4900850000000  0.3953390000000 1.0
C      1  0.5909740000000  0.5021670000000  0.3996290000000 1.0
C      1  0.3955320000000  0.4913050000000  0.4618670000000 1.0
C      1  0.3885890000000  0.4936240000000  0.5145070000000 1.0
C      1  0.5988770000000  0.5001900000000  0.4678480000000 1.0
C      1  0.4999830000000  0.4998940000000  0.4853720000000 1.0
C      1  0.4950900000000  0.4967180000000  0.4031940000000 1.0
C      1  0.5662560000000  0.5024030000000  0.5621980000000 1.0
C      1  0.5669100000000  0.5014290000000  0.4822250000000 1.0
C      1  0.4243230000000  0.4972700000000  0.4558800000000 1.0
C      1  0.6024010000000  0.4857610000000  0.5284230000000 1.0
C      1  0.5578640000000  0.5026770000000  0.5121720000000 1.0
C      1  0.5342940000000  0.5015550000000  0.6040460000000 1.0
C      1  0.5195630000000  0.4861860000000  0.3926210000000 1.0
C      1  0.4235440000000  0.5059670000000  0.5949760000000 1.0
C      1  0.5130100000000  0.5012250000000  0.5109110000000 1.0
C      1  0.5327060000000  0.5040200000000  0.5575730000000 1.0
C      1  0.6022700000000  0.5004320000000  0.4238940000000 1.0
C      1  0.5129840000000  0.5070500000000  0.5831030000000 1.0
END
