TITL C-3522-9206-5 -34.3699594600582 125000 -628.018396374825 0 0 92 (C1) n - 1
REM
REM in /rds/project/t2_vol4/rds-t2-cs072/BORA/CARBON/from-Arr/AIRSS/Generating-Clusters/GAP-ML-2020/Higher-Symm/SD-CG/HFTN-CG
REM
REM
REM
REM
REM
REM ./C.cell (b20cbc046b6831c77cfcea5457e17084)
REM AIRSS Version 0.9.1 bugfix July 2018 build 013d7b7c2542+ Fri, 06 Jul 2018 19:26:36 +0100
REM compiler GCC version 9.3.0
REM options -cpp -mtune=generic -march=x86-64 -g -O0
REM seed 394947966 620898905 1452817925 62230572 1172800717 219673417 -1597255056 -875330144 -2025339628 416933914 -54048778 539515151 810455756 1679196869 1532323744 74618985 805072496 2048843436 -1216120605 323550891 32412143 -278376329 -1681328733 -362501169 -122845993 1366679673 59099350 1327926045 1379563345 -491605941 -385538042 1782091640 -785138624
REM
CELL 1.54180   50.00000   50.00000   50.00000   90.00000   90.00000   90.00000
LATT -1
SFAC C  
C      1  0.5307780000000  0.4387540000000  0.5528850000000 1.0
C      1  0.4506500000000  0.5593400000000  0.5209610000000 1.0
C      1  0.4659300000000  0.5412080000000  0.4340110000000 1.0
C      1  0.4784690000000  0.4684390000000  0.4964310000000 1.0
C      1  0.5858140000000  0.4915960000000  0.5047620000000 1.0
C      1  0.4912660000000  0.5035980000000  0.4413210000000 1.0
C      1  0.4996730000000  0.4264720000000  0.4564470000000 1.0
C      1  0.4560490000000  0.4026170000000  0.5023880000000 1.0
C      1  0.4286740000000  0.5383010000000  0.5184730000000 1.0
C      1  0.4796400000000  0.4862730000000  0.5817110000000 1.0
C      1  0.4485250000000  0.5254020000000  0.4746680000000 1.0
C      1  0.5119970000000  0.5185850000000  0.5643250000000 1.0
C      1  0.4402350000000  0.4912380000000  0.5702980000000 1.0
C      1  0.4623700000000  0.5091700000000  0.5749510000000 1.0
C      1  0.4924740000000  0.5741760000000  0.4599530000000 1.0
C      1  0.4695290000000  0.5216570000000  0.5481770000000 1.0
C      1  0.5222410000000  0.4324430000000  0.4733240000000 1.0
C      1  0.4234850000000  0.4923710000000  0.5008520000000 1.0
C      1  0.5048240000000  0.5086130000000  0.4153930000000 1.0
C      1  0.5249810000000  0.5274280000000  0.5012320000000 1.0
C      1  0.4335920000000  0.4721570000000  0.4843440000000 1.0
C      1  0.5630380000000  0.5039920000000  0.4741030000000 1.0
C      1  0.4987170000000  0.5385110000000  0.5089970000000 1.0
C      1  0.4753710000000  0.4639120000000  0.4659190000000 1.0
C      1  0.5392280000000  0.5258770000000  0.5686950000000 1.0
C      1  0.4424300000000  0.5762370000000  0.4578230000000 1.0
C      1  0.4858540000000  0.4975320000000  0.5009890000000 1.0
C      1  0.5010140000000  0.4800000000000  0.5395080000000 1.0
C      1  0.5496630000000  0.5239430000000  0.4564290000000 1.0
C      1  0.5194280000000  0.4982910000000  0.5014950000000 1.0
C      1  0.4812360000000  0.5235520000000  0.4862940000000 1.0
C      1  0.4584040000000  0.4684570000000  0.5714410000000 1.0
C      1  0.4576240000000  0.4274460000000  0.4885370000000 1.0
C      1  0.4230120000000  0.4994280000000  0.5490100000000 1.0
C      1  0.4682860000000  0.4119940000000  0.5229750000000 1.0
C      1  0.4288290000000  0.5202700000000  0.4961460000000 1.0
C      1  0.5504960000000  0.4764870000000  0.5377730000000 1.0
C      1  0.4656090000000  0.5776760000000  0.4731480000000 1.0
C      1  0.5858590000000  0.4833860000000  0.4758540000000 1.0
C      1  0.5275650000000  0.4250790000000  0.5284610000000 1.0
C      1  0.4914200000000  0.5607090000000  0.5488450000000 1.0
C      1  0.4585450000000  0.4509490000000  0.5491990000000 1.0
C      1  0.5157790000000  0.5337460000000  0.4222300000000 1.0
C      1  0.5283750000000  0.4752050000000  0.4549820000000 1.0
C      1  0.4247730000000  0.4817310000000  0.5271750000000 1.0
C      1  0.5481630000000  0.5042600000000  0.5841560000000 1.0
C      1  0.4643970000000  0.5129490000000  0.4339620000000 1.0
C      1  0.5465340000000  0.5427680000000  0.5461350000000 1.0
C      1  0.5654460000000  0.4498150000000  0.4728590000000 1.0
C      1  0.4802100000000  0.4984870000000  0.5297920000000 1.0
C      1  0.5027210000000  0.4355590000000  0.4284110000000 1.0
C      1  0.4933630000000  0.5494170000000  0.4408130000000 1.0
C      1  0.4469890000000  0.5039550000000  0.4536270000000 1.0
C      1  0.5683450000000  0.4723010000000  0.5170390000000 1.0
C      1  0.4201320000000  0.5262510000000  0.5420430000000 1.0
C      1  0.5386240000000  0.4854210000000  0.4817450000000 1.0
C      1  0.5407620000000  0.5797040000000  0.4870620000000 1.0
C      1  0.5057260000000  0.4895770000000  0.5697890000000 1.0
C      1  0.4489580000000  0.4536770000000  0.5009470000000 1.0
C      1  0.4975080000000  0.4755010000000  0.4490300000000 1.0
C      1  0.4972640000000  0.5310720000000  0.5426540000000 1.0
C      1  0.5257670000000  0.4881660000000  0.5282880000000 1.0
C      1  0.5905300000000  0.4581350000000  0.4677410000000 1.0
C      1  0.5334020000000  0.4809550000000  0.5791110000000 1.0
C      1  0.4991880000000  0.5266490000000  0.4619420000000 1.0
C      1  0.4674140000000  0.5740370000000  0.5020390000000 1.0
C      1  0.4483800000000  0.5494880000000  0.4548840000000 1.0
C      1  0.5749930000000  0.5183240000000  0.4985460000000 1.0
C      1  0.4808860000000  0.4337860000000  0.5369100000000 1.0
C      1  0.5496900000000  0.5307130000000  0.5194930000000 1.0
C      1  0.5273470000000  0.5344520000000  0.4718520000000 1.0
C      1  0.5373670000000  0.5677020000000  0.5349270000000 1.0
C      1  0.5102100000000  0.5796040000000  0.4815520000000 1.0
C      1  0.5310040000000  0.5633830000000  0.4681880000000 1.0
C      1  0.4648250000000  0.5530020000000  0.5441740000000 1.0
C      1  0.4741440000000  0.4345620000000  0.4668900000000 1.0
C      1  0.4482110000000  0.4774740000000  0.4614970000000 1.0
C      1  0.5239670000000  0.4417370000000  0.5030710000000 1.0
C      1  0.4966700000000  0.4548330000000  0.5160800000000 1.0
C      1  0.5176030000000  0.4833510000000  0.4099150000000 1.0
C      1  0.5444580000000  0.4615020000000  0.5615240000000 1.0
C      1  0.5403800000000  0.5200880000000  0.4309070000000 1.0
C      1  0.5018340000000  0.4611670000000  0.4217220000000 1.0
C      1  0.5407220000000  0.4475730000000  0.4581030000000 1.0
C      1  0.5370620000000  0.4906710000000  0.4286530000000 1.0
C      1  0.4962230000000  0.5715150000000  0.5070730000000 1.0
C      1  0.5073190000000  0.4250800000000  0.5480080000000 1.0
C      1  0.5506710000000  0.4596920000000  0.4969880000000 1.0
C      1  0.5527040000000  0.5682800000000  0.5094310000000 1.0
C      1  0.5092350000000  0.5756480000000  0.5335140000000 1.0
C      1  0.4408140000000  0.4582570000000  0.5282630000000 1.0
C      1  0.5700830000000  0.5452140000000  0.5057130000000 1.0
END
