TITL C-3529-9194-1 128.495728995662 125000 -582.521114435679 0 0 84 (D7h) n - 1
REM
REM in /rds/project/t2_vol4/rds-t2-cs072/BORA/CARBON/from-Arr/AIRSS/Generating-Clusters/GAP-ML-2020/Higher-Symm/SD-CG/HFTN-CG
REM
REM
REM
REM
REM
REM ./C.cell (b20cbc046b6831c77cfcea5457e17084)
REM AIRSS Version 0.9.1 bugfix July 2018 build 013d7b7c2542+ Fri, 06 Jul 2018 19:26:36 +0100
REM compiler GCC version 9.3.0
REM options -cpp -mtune=generic -march=x86-64 -g -O0
REM seed -304114334 1159693326 1338076086 -903536047 2091303497 -1323433810 -2070779936 -683398881 77966360 1181865299 -447875499 357669295 -1473265780 277850590 982731055 -1791195308 -1102493508 296003699 -958329710 1298717605 408718616 -1566175784 -1788280774 -634384022 1850621613 1578370933 -983817484 81394411 -1460758028 1914272363 -1565752392 1378849856 -930437938
REM
CELL 1.54180   50.00000   50.00000   50.00000   90.00000   90.00000   90.00000
LATT -1
SFAC C  
C      1  0.4996210000000  0.5347190000000  0.4846000000000 1.0
C      1  0.4726180000000  0.5213510000000  0.4846040000000 1.0
C      1  0.4662330000000  0.4919050000000  0.4846070000000 1.0
C      1  0.4852740000000  0.4685540000000  0.4846060000000 1.0
C      1  0.5154020000000  0.4688810000000  0.4846030000000 1.0
C      1  0.5339310000000  0.4926410000000  0.4845990000000 1.0
C      1  0.5269080000000  0.5219410000000  0.4845970000000 1.0
C      1  0.5797550000000  0.5052250000000  0.5254460000000 1.0
C      1  0.5456440000000  0.5656110000000  0.5254450000000 1.0
C      1  0.4771640000000  0.5765920000000  0.5254530000000 1.0
C      1  0.4258820000000  0.5298990000000  0.5254620000000 1.0
C      1  0.4304150000000  0.4606930000000  0.5254670000000 1.0
C      1  0.4873490000000  0.4210870000000  0.5254630000000 1.0
C      1  0.5538110000000  0.4409060000000  0.5254540000000 1.0
C      1  0.5704280000000  0.4622130000000  0.5254500000000 1.0
C      1  0.5734570000000  0.5315010000000  0.5254450000000 1.0
C      1  0.5211730000000  0.5770700000000  0.5254470000000 1.0
C      1  0.4529480000000  0.5646050000000  0.5254560000000 1.0
C      1  0.4201560000000  0.5034920000000  0.5254650000000 1.0
C      1  0.4474900000000  0.4397510000000  0.5254660000000 1.0
C      1  0.5143680000000  0.4213800000000  0.5254600000000 1.0
C      1  0.4662370000000  0.4919080000000  0.5154020000000 1.0
C      1  0.4852770000000  0.4685560000000  0.5154020000000 1.0
C      1  0.5154060000000  0.4688830000000  0.5153980000000 1.0
C      1  0.5339350000000  0.4926430000000  0.5153940000000 1.0
C      1  0.5269120000000  0.5219430000000  0.5153930000000 1.0
C      1  0.4996250000000  0.5347210000000  0.5153950000000 1.0
C      1  0.4726220000000  0.5213540000000  0.5153990000000 1.0
C      1  0.4660080000000  0.4918500000000  0.4454380000000 1.0
C      1  0.4851730000000  0.4683460000000  0.4454370000000 1.0
C      1  0.5154980000000  0.4686760000000  0.4454340000000 1.0
C      1  0.5341480000000  0.4925900000000  0.4454300000000 1.0
C      1  0.5270790000000  0.5220810000000  0.4454280000000 1.0
C      1  0.4996140000000  0.5349420000000  0.4454310000000 1.0
C      1  0.4724350000000  0.5214880000000  0.4454350000000 1.0
C      1  0.5797490000000  0.5052210000000  0.4745350000000 1.0
C      1  0.5456380000000  0.5656080000000  0.4745340000000 1.0
C      1  0.4771580000000  0.5765890000000  0.4745410000000 1.0
C      1  0.4258760000000  0.5298950000000  0.4745510000000 1.0
C      1  0.4304090000000  0.4606890000000  0.4745550000000 1.0
C      1  0.4873430000000  0.4210830000000  0.4745520000000 1.0
C      1  0.5538050000000  0.4409020000000  0.4745420000000 1.0
C      1  0.4744700000000  0.4454740000000  0.5364380000000 1.0
C      1  0.5267160000000  0.4460410000000  0.5364320000000 1.0
C      1  0.5588480000000  0.4872430000000  0.5364250000000 1.0
C      1  0.5466690000000  0.5380520000000  0.5364220000000 1.0
C      1  0.4993510000000  0.5602100000000  0.5364260000000 1.0
C      1  0.4525250000000  0.5370300000000  0.5364340000000 1.0
C      1  0.4414520000000  0.4859680000000  0.5364390000000 1.0
C      1  0.4525160000000  0.5370250000000  0.4635720000000 1.0
C      1  0.4414430000000  0.4859630000000  0.4635770000000 1.0
C      1  0.4744620000000  0.4454690000000  0.4635760000000 1.0
C      1  0.5267080000000  0.4460360000000  0.4635700000000 1.0
C      1  0.5588390000000  0.4872370000000  0.4635630000000 1.0
C      1  0.5466600000000  0.5380470000000  0.4635610000000 1.0
C      1  0.4993420000000  0.5602050000000  0.4635650000000 1.0
C      1  0.5128970000000  0.5873810000000  0.4999920000000 1.0
C      1  0.4397240000000  0.5645640000000  0.5000020000000 1.0
C      1  0.4119400000000  0.4931290000000  0.5000110000000 1.0
C      1  0.4504670000000  0.4268680000000  0.5000110000000 1.0
C      1  0.5262940000000  0.4156770000000  0.5000030000000 1.0
C      1  0.5823200000000  0.4679830000000  0.4999930000000 1.0
C      1  0.5763580000000  0.5443980000000  0.4999880000000 1.0
C      1  0.4183950000000  0.4662030000000  0.5000120000000 1.0
C      1  0.4755440000000  0.4151260000000  0.5000090000000 1.0
C      1  0.5511090000000  0.4279610000000  0.4999990000000 1.0
C      1  0.5881880000000  0.4950430000000  0.4999900000000 1.0
C      1  0.5588600000000  0.5658570000000  0.4999880000000 1.0
C      1  0.4852090000000  0.5870800000000  0.4999950000000 1.0
C      1  0.4226960000000  0.5427290000000  0.5000060000000 1.0
C      1  0.5704220000000  0.4622090000000  0.4745390000000 1.0
C      1  0.5734510000000  0.5314980000000  0.4745330000000 1.0
C      1  0.5211670000000  0.5770660000000  0.4745360000000 1.0
C      1  0.4529420000000  0.5646010000000  0.4745450000000 1.0
C      1  0.4201500000000  0.5034880000000  0.4745540000000 1.0
C      1  0.4474840000000  0.4397480000000  0.4745550000000 1.0
C      1  0.5143620000000  0.4213770000000  0.4745480000000 1.0
C      1  0.4660210000000  0.4918580000000  0.5545710000000 1.0
C      1  0.4851860000000  0.4683540000000  0.5545710000000 1.0
C      1  0.5155110000000  0.4686840000000  0.5545670000000 1.0
C      1  0.5341600000000  0.4925980000000  0.5545630000000 1.0
C      1  0.5270920000000  0.5220890000000  0.5545620000000 1.0
C      1  0.4996270000000  0.5349500000000  0.5545640000000 1.0
C      1  0.4724480000000  0.5214960000000  0.5545690000000 1.0
END
