TITL C-35344-8920-14 -3.49021312512159 125000 -43.4683463705031 0 0 7 (C2v) n - 1
REM
REM in /rds/project/t2_vol4/rds-t2-cs072/BORA/CARBON/from-Arr/AIRSS/Generating-Clusters/GAP-ML-2020/Higher-Symm/SD-CG/HFTN-CG
REM
REM
REM
REM
REM
REM ./C.cell (b20cbc046b6831c77cfcea5457e17084)
REM AIRSS Version 0.9.1 bugfix July 2018 build 013d7b7c2542+ Fri, 06 Jul 2018 19:26:36 +0100
REM compiler GCC version 9.3.0
REM options -cpp -mtune=generic -march=x86-64 -g -O0
REM seed -846474558 -1920000927 -1972044324 -388517748 -490028398 -143941012 -2041579272 1541768744 -2043524282 -840003577 -51397492 -694180918 854348843 1756575351 -1905980049 1676132660 1298202033 383003855 -1495698237 -911121002 -719851159 1573120221 -850017205 -231843468 126434523 142644573 -344428104 1081072782 1240542177 -188039516 -1322937257 831299537 501265559
REM
CELL 1.54180   50.00000   50.00000   50.00000   90.00000   90.00000   90.00000
LATT -1
SFAC C  
C      1  0.5160630000000  0.4578820000000  0.4939540000000 1.0
C      1  0.4790480000000  0.5417270000000  0.5264270000000 1.0
C      1  0.5330870000000  0.4666230000000  0.5106030000000 1.0
C      1  0.4620240000000  0.5329860000000  0.5097780000000 1.0
C      1  0.5190880000000  0.4852230000000  0.4958290000000 1.0
C      1  0.4885960000000  0.5276030000000  0.5047580000000 1.0
C      1  0.5048830000000  0.5075080000000  0.4986530000000 1.0
END
