TITL C-35814-1835-1 -0.216901127118415 125000 -1254.04142234112 0 0 183 (C1) n - 1
REM
REM in /rds/project/t2_vol4/rds-t2-cs072/BORA/CARBON/from-Arr/AIRSS/Generating-Clusters/GAP-ML-2020/Higher-Symm/SD-CG/HFTN-CG/C160-200
REM
REM
REM
REM
REM
REM ./C.cell (6b4489405718ea1b717e0baf1da4c2d9)
REM AIRSS Version 0.9.1 bugfix July 2018 build 013d7b7c2542+ Fri, 06 Jul 2018 19:26:36 +0100
REM compiler GCC version 9.3.0
REM options -cpp -mtune=generic -march=x86-64 -g -O0
REM seed -129861205 1314149796 -1410570151 -729948878 -1583732320 -167845153 884448257 2012497152 -334581105 -1639632116 1755534051 -608342105 -2047361112 162702996 -209534259 -186022876 -966279329 187002249 527227099 341766183 1125163398 -407476024 -1998573249 1107641919 945310821 -1763465894 -1015225757 -1029161662 1901397284 -1983309405 -116063490 1946023898 253879750
REM
CELL 1.54180   50.00000   50.00000   50.00000   90.00000   90.00000   90.00000
LATT -1
SFAC C  
C      1  0.4670440000000  0.4268040000000  0.5270900000000 1.0
C      1  0.4569360000000  0.4352650000000  0.4979580000000 1.0
C      1  0.4746870000000  0.4404630000000  0.4752970000000 1.0
C      1  0.5072380000000  0.4248300000000  0.4475620000000 1.0
C      1  0.5407450000000  0.4271740000000  0.4829710000000 1.0
C      1  0.5173820000000  0.4312040000000  0.5006300000000 1.0
C      1  0.5191800000000  0.4259680000000  0.5289940000000 1.0
C      1  0.5727830000000  0.5195140000000  0.4026990000000 1.0
C      1  0.6231140000000  0.5247880000000  0.4965390000000 1.0
C      1  0.5728470000000  0.5254420000000  0.5900160000000 1.0
C      1  0.4857070000000  0.5104430000000  0.6177950000000 1.0
C      1  0.3950490000000  0.5247190000000  0.5618970000000 1.0
C      1  0.3868010000000  0.5275610000000  0.4533600000000 1.0
C      1  0.4670480000000  0.5208760000000  0.3825540000000 1.0
C      1  0.4152400000000  0.4404420000000  0.4572090000000 1.0
C      1  0.4724890000000  0.4342550000000  0.4082660000000 1.0
C      1  0.5736140000000  0.4391840000000  0.4365320000000 1.0
C      1  0.5985610000000  0.4416720000000  0.5128550000000 1.0
C      1  0.5508250000000  0.4369560000000  0.5732100000000 1.0
C      1  0.4688460000000  0.4328560000000  0.5796810000000 1.0
C      1  0.4049450000000  0.4426990000000  0.5334400000000 1.0
C      1  0.5408080000000  0.5464090000000  0.5485200000000 1.0
C      1  0.4917810000000  0.5434960000000  0.5654190000000 1.0
C      1  0.4443150000000  0.5454080000000  0.5313130000000 1.0
C      1  0.4410450000000  0.5469010000000  0.4753790000000 1.0
C      1  0.4834490000000  0.5433940000000  0.4375370000000 1.0
C      1  0.5384380000000  0.5434830000000  0.4484320000000 1.0
C      1  0.5645400000000  0.5462200000000  0.4972170000000 1.0
C      1  0.5160090000000  0.5869850000000  0.4690120000000 1.0
C      1  0.5353200000000  0.5949840000000  0.4917100000000 1.0
C      1  0.5282200000000  0.5885210000000  0.5210370000000 1.0
C      1  0.4986770000000  0.5886480000000  0.5344040000000 1.0
C      1  0.4727670000000  0.5955840000000  0.5218580000000 1.0
C      1  0.4674820000000  0.5889120000000  0.4918180000000 1.0
C      1  0.4859590000000  0.5942760000000  0.4680480000000 1.0
C      1  0.4499140000000  0.5698460000000  0.4376700000000 1.0
C      1  0.5186120000000  0.5677400000000  0.4202330000000 1.0
C      1  0.5727230000000  0.5694140000000  0.4641050000000 1.0
C      1  0.5742110000000  0.5697780000000  0.5352300000000 1.0
C      1  0.5218880000000  0.5841960000000  0.5772790000000 1.0
C      1  0.4544050000000  0.5680800000000  0.5638900000000 1.0
C      1  0.4201060000000  0.5715030000000  0.5018250000000 1.0
C      1  0.4513540000000  0.5861760000000  0.5398230000000 1.0
C      1  0.4370930000000  0.5874700000000  0.4844960000000 1.0
C      1  0.4748110000000  0.5852060000000  0.4425840000000 1.0
C      1  0.5302630000000  0.5848480000000  0.4404690000000 1.0
C      1  0.5628200000000  0.5866080000000  0.4867170000000 1.0
C      1  0.5523780000000  0.5876340000000  0.5402860000000 1.0
C      1  0.4983520000000  0.5894020000000  0.5646680000000 1.0
C      1  0.4891120000000  0.4661730000000  0.5487470000000 1.0
C      1  0.4469780000000  0.4759480000000  0.5258580000000 1.0
C      1  0.4441750000000  0.4779700000000  0.4761850000000 1.0
C      1  0.4842340000000  0.4739270000000  0.4417230000000 1.0
C      1  0.5340730000000  0.4686770000000  0.4541670000000 1.0
C      1  0.5595360000000  0.4762020000000  0.4973710000000 1.0
C      1  0.5383820000000  0.4743550000000  0.5415530000000 1.0
C      1  0.4070140000000  0.4498930000000  0.5031570000000 1.0
C      1  0.4404300000000  0.4459710000000  0.4380270000000 1.0
C      1  0.5315520000000  0.4435060000000  0.4163850000000 1.0
C      1  0.5830020000000  0.4457280000000  0.4654110000000 1.0
C      1  0.5823160000000  0.4481210000000  0.5387570000000 1.0
C      1  0.5192010000000  0.4368740000000  0.5762200000000 1.0
C      1  0.4423010000000  0.4426900000000  0.5652170000000 1.0
C      1  0.4793580000000  0.5692780000000  0.5738830000000 1.0
C      1  0.4316800000000  0.5712560000000  0.5261790000000 1.0
C      1  0.4358460000000  0.5717540000000  0.4606560000000 1.0
C      1  0.4926780000000  0.5688450000000  0.4272210000000 1.0
C      1  0.5534970000000  0.5689970000000  0.4454030000000 1.0
C      1  0.5737210000000  0.5712710000000  0.5083530000000 1.0
C      1  0.5408900000000  0.5730480000000  0.5628390000000 1.0
C      1  0.4830920000000  0.4925150000000  0.5698840000000 1.0
C      1  0.4273290000000  0.4997860000000  0.5344980000000 1.0
C      1  0.4258320000000  0.5016190000000  0.4649730000000 1.0
C      1  0.4824980000000  0.4973980000000  0.4212320000000 1.0
C      1  0.5498940000000  0.4961550000000  0.4411920000000 1.0
C      1  0.5798700000000  0.5006470000000  0.5015480000000 1.0
C      1  0.5471990000000  0.4985650000000  0.5617390000000 1.0
C      1  0.5602560000000  0.4169780000000  0.5023370000000 1.0
C      1  0.5485830000000  0.4162860000000  0.5286710000000 1.0
C      1  0.4922310000000  0.4162030000000  0.5393490000000 1.0
C      1  0.4403870000000  0.4124720000000  0.5253580000000 1.0
C      1  0.4350590000000  0.4147810000000  0.4977920000000 1.0
C      1  0.4807680000000  0.4204150000000  0.4534780000000 1.0
C      1  0.5331270000000  0.4176490000000  0.4557810000000 1.0
C      1  0.4797080000000  0.4531490000000  0.5963980000000 1.0
C      1  0.4020640000000  0.4641850000000  0.5519960000000 1.0
C      1  0.3987850000000  0.4637680000000  0.4597880000000 1.0
C      1  0.4663480000000  0.4594280000000  0.3990920000000 1.0
C      1  0.5706930000000  0.4610580000000  0.4165970000000 1.0
C      1  0.6097310000000  0.4641930000000  0.4993010000000 1.0
C      1  0.5648850000000  0.4605910000000  0.5806750000000 1.0
C      1  0.5321740000000  0.4872010000000  0.4945940000000 1.0
C      1  0.5193270000000  0.4858390000000  0.5218190000000 1.0
C      1  0.4938730000000  0.4715500000000  0.5191060000000 1.0
C      1  0.4710950000000  0.4890110000000  0.5136310000000 1.0
C      1  0.4695970000000  0.4896720000000  0.4837910000000 1.0
C      1  0.4929520000000  0.4880690000000  0.4662570000000 1.0
C      1  0.5147090000000  0.4725290000000  0.4765510000000 1.0
C      1  0.5276500000000  0.5207450000000  0.5564200000000 1.0
C      1  0.4741320000000  0.5204210000000  0.5572160000000 1.0
C      1  0.4351830000000  0.5222340000000  0.5147440000000 1.0
C      1  0.4467190000000  0.5234670000000  0.4588170000000 1.0
C      1  0.5015690000000  0.5201140000000  0.4326690000000 1.0
C      1  0.5516240000000  0.5198460000000  0.4610960000000 1.0
C      1  0.5632290000000  0.5224990000000  0.5156170000000 1.0
C      1  0.5608580000000  0.5039920000000  0.6062390000000 1.0
C      1  0.4468290000000  0.4927790000000  0.6032800000000 1.0
C      1  0.3809090000000  0.5013500000000  0.5220480000000 1.0
C      1  0.4079090000000  0.4997970000000  0.4216260000000 1.0
C      1  0.5076240000000  0.4914650000000  0.3825350000000 1.0
C      1  0.5987670000000  0.4985760000000  0.4338350000000 1.0
C      1  0.6141240000000  0.4984690000000  0.5372540000000 1.0
C      1  0.5479410000000  0.4838290000000  0.5897310000000 1.0
C      1  0.4669990000000  0.4776220000000  0.5904680000000 1.0
C      1  0.4005270000000  0.4869070000000  0.5360590000000 1.0
C      1  0.4086050000000  0.4860700000000  0.4460650000000 1.0
C      1  0.4870110000000  0.4796360000000  0.3980540000000 1.0
C      1  0.5752620000000  0.4834360000000  0.4322820000000 1.0
C      1  0.6029610000000  0.4865270000000  0.5144660000000 1.0
C      1  0.5968800000000  0.5156110000000  0.4114540000000 1.0
C      1  0.6277490000000  0.5163210000000  0.5206900000000 1.0
C      1  0.5667080000000  0.5280910000000  0.6161940000000 1.0
C      1  0.4603270000000  0.5085840000000  0.6226040000000 1.0
C      1  0.3778690000000  0.5190270000000  0.5433110000000 1.0
C      1  0.3903450000000  0.5204540000000  0.4288510000000 1.0
C      1  0.4888180000000  0.5101950000000  0.3734150000000 1.0
C      1  0.5986730000000  0.5170210000000  0.4803310000000 1.0
C      1  0.5744480000000  0.5155700000000  0.5624620000000 1.0
C      1  0.5027340000000  0.5030000000000  0.5937100000000 1.0
C      1  0.4236030000000  0.5154800000000  0.5633990000000 1.0
C      1  0.4016880000000  0.5188800000000  0.4782030000000 1.0
C      1  0.4565340000000  0.5143600000000  0.4103500000000 1.0
C      1  0.5448620000000  0.5126160000000  0.4115750000000 1.0
C      1  0.4139200000000  0.4276030000000  0.4832420000000 1.0
C      1  0.4621150000000  0.4257460000000  0.4314780000000 1.0
C      1  0.5486790000000  0.4271850000000  0.4336360000000 1.0
C      1  0.5846600000000  0.4281210000000  0.4930630000000 1.0
C      1  0.5636660000000  0.4272700000000  0.5496610000000 1.0
C      1  0.4918640000000  0.4210680000000  0.5674380000000 1.0
C      1  0.4253960000000  0.4267970000000  0.5442930000000 1.0
C      1  0.5303210000000  0.5127650000000  0.4807300000000 1.0
C      1  0.5326480000000  0.5216160000000  0.5079570000000 1.0
C      1  0.5135230000000  0.5131420000000  0.5297930000000 1.0
C      1  0.4835820000000  0.5177820000000  0.5283490000000 1.0
C      1  0.4645330000000  0.5173000000000  0.5062680000000 1.0
C      1  0.4701560000000  0.5178730000000  0.4762900000000 1.0
C      1  0.5046380000000  0.5146400000000  0.4632590000000 1.0
C      1  0.4376980000000  0.4610300000000  0.5013730000000 1.0
C      1  0.4595620000000  0.4602800000000  0.4562390000000 1.0
C      1  0.5114820000000  0.4529430000000  0.4372260000000 1.0
C      1  0.5554140000000  0.4554480000000  0.4740010000000 1.0
C      1  0.5595640000000  0.4643270000000  0.5242260000000 1.0
C      1  0.5177750000000  0.4515380000000  0.5499340000000 1.0
C      1  0.4610240000000  0.4536600000000  0.5437930000000 1.0
C      1  0.5258770000000  0.5353720000000  0.4232020000000 1.0
C      1  0.5760390000000  0.5382200000000  0.4723040000000 1.0
C      1  0.5680240000000  0.5381350000000  0.5415570000000 1.0
C      1  0.5113000000000  0.5270070000000  0.5783350000000 1.0
C      1  0.4470840000000  0.5369350000000  0.5588140000000 1.0
C      1  0.4198180000000  0.5398020000000  0.4938820000000 1.0
C      1  0.4554030000000  0.5376070000000  0.4327970000000 1.0
C      1  0.6030410000000  0.4673510000000  0.4716500000000 1.0
C      1  0.5859100000000  0.4672100000000  0.5619970000000 1.0
C      1  0.5081930000000  0.4546500000000  0.5965540000000 1.0
C      1  0.4223500000000  0.4651440000000  0.5722450000000 1.0
C      1  0.3919380000000  0.4702020000000  0.4871450000000 1.0
C      1  0.4421210000000  0.4663700000000  0.4133660000000 1.0
C      1  0.5451280000000  0.4639960000000  0.4025960000000 1.0
C      1  0.4336910000000  0.4937050000000  0.4104410000000 1.0
C      1  0.5340430000000  0.4896610000000  0.3945820000000 1.0
C      1  0.6056670000000  0.4944240000000  0.4610350000000 1.0
C      1  0.5957350000000  0.4946160000000  0.5589010000000 1.0
C      1  0.5206360000000  0.4794860000000  0.5986840000000 1.0
C      1  0.4267570000000  0.4916090000000  0.5831140000000 1.0
C      1  0.3863520000000  0.4976680000000  0.4941740000000 1.0
C      1  0.4731220000000  0.5456910000000  0.5177220000000 1.0
C      1  0.4691700000000  0.5568420000000  0.4894750000000 1.0
C      1  0.4895210000000  0.5417420000000  0.4687720000000 1.0
C      1  0.5176390000000  0.5551540000000  0.4714750000000 1.0
C      1  0.5327720000000  0.5476120000000  0.4966130000000 1.0
C      1  0.5249890000000  0.5574690000000  0.5236210000000 1.0
C      1  0.4966530000000  0.5569170000000  0.5344810000000 1.0
C      1  0.4993960000000  0.4513890000000  0.4919390000000 1.0
END
