TITL C-3528-9224-6 0.0173409699479967 125000 -328.195004514871 0 0 48 (Oh) n - 1
REM
REM in /rds/project/t2_vol4/rds-t2-cs072/BORA/CARBON/from-Arr/AIRSS/Generating-Clusters/GAP-ML-2020/Higher-Symm/SD-CG/HFTN-CG
REM
REM
REM
REM
REM
REM ./C.cell (b20cbc046b6831c77cfcea5457e17084)
REM AIRSS Version 0.9.1 bugfix July 2018 build 013d7b7c2542+ Fri, 06 Jul 2018 19:26:36 +0100
REM compiler GCC version 9.3.0
REM options -cpp -mtune=generic -march=x86-64 -g -O0
REM seed 1393667685 -921646376 2008550665 940641648 989209238 -1143363778 1996357392 -1040555679 381722949 1026727925 2057389130 1826601742 1948275235 -1542436986 -1666169599 723470077 -697451700 765959593 414241490 2146526616 -1699445413 1491709783 1136290830 -464154412 -388925890 337558436 -2137892345 -325374313 -46269477 -1526887146 2122421087 2126242488 327424793
REM
CELL 1.54180   50.00000   50.00000   50.00000   90.00000   90.00000   90.00000
LATT -1
SFAC C  
C      1  0.4854100000000  0.4358900000000  0.5145890000000 1.0
C      1  0.4358910000000  0.5145900000000  0.4854080000000 1.0
C      1  0.5145930000000  0.4854110000000  0.4358910000000 1.0
C      1  0.5145940000000  0.4358920000000  0.4854070000000 1.0
C      1  0.5145890000000  0.5641090000000  0.5145940000000 1.0
C      1  0.4854070000000  0.5641090000000  0.4854100000000 1.0
C      1  0.5641080000000  0.5145930000000  0.5145930000000 1.0
C      1  0.5641100000000  0.4854110000000  0.4854090000000 1.0
C      1  0.4358910000000  0.4854060000000  0.5145900000000 1.0
C      1  0.4854080000000  0.4854060000000  0.5641080000000 1.0
C      1  0.4854090000000  0.5145930000000  0.4358910000000 1.0
C      1  0.5145900000000  0.5145900000000  0.5641100000000 1.0
C      1  0.4854060000000  0.5641080000000  0.5145930000000 1.0
C      1  0.4358920000000  0.4854070000000  0.4854070000000 1.0
C      1  0.5145920000000  0.5145940000000  0.4358920000000 1.0
C      1  0.5145900000000  0.5641100000000  0.4854110000000 1.0
C      1  0.5145930000000  0.4358910000000  0.5145900000000 1.0
C      1  0.4854110000000  0.4358910000000  0.4854060000000 1.0
C      1  0.5641090000000  0.4854100000000  0.5145920000000 1.0
C      1  0.5641090000000  0.5145940000000  0.4854100000000 1.0
C      1  0.4358900000000  0.5145890000000  0.5145910000000 1.0
C      1  0.4854070000000  0.5145890000000  0.5641090000000 1.0
C      1  0.4854100000000  0.4854100000000  0.4358900000000 1.0
C      1  0.5145910000000  0.4854070000000  0.5641090000000 1.0
C      1  0.5323160000000  0.5323190000000  0.4477190000000 1.0
C      1  0.5323170000000  0.4477180000000  0.5323150000000 1.0
C      1  0.4477160000000  0.5323130000000  0.5323160000000 1.0
C      1  0.4676820000000  0.5323130000000  0.5522830000000 1.0
C      1  0.4676860000000  0.4676850000000  0.4477160000000 1.0
C      1  0.5323160000000  0.4676830000000  0.5522820000000 1.0
C      1  0.4676860000000  0.4477180000000  0.4676820000000 1.0
C      1  0.4676820000000  0.5522800000000  0.5323170000000 1.0
C      1  0.5323150000000  0.5522850000000  0.4676870000000 1.0
C      1  0.5522820000000  0.5323190000000  0.4676860000000 1.0
C      1  0.5522830000000  0.4676850000000  0.5323160000000 1.0
C      1  0.4477190000000  0.4676840000000  0.4676820000000 1.0
C      1  0.5323180000000  0.4676870000000  0.4477170000000 1.0
C      1  0.5323140000000  0.5522820000000  0.5323180000000 1.0
C      1  0.4477180000000  0.4676810000000  0.5323140000000 1.0
C      1  0.4676840000000  0.4676810000000  0.5522810000000 1.0
C      1  0.4676840000000  0.5323170000000  0.4477180000000 1.0
C      1  0.5323140000000  0.5323150000000  0.5522840000000 1.0
C      1  0.4676830000000  0.5522820000000  0.4676850000000 1.0
C      1  0.4676850000000  0.4477150000000  0.5323130000000 1.0
C      1  0.5323180000000  0.4477200000000  0.4676830000000 1.0
C      1  0.5522840000000  0.4676870000000  0.4676840000000 1.0
C      1  0.5522810000000  0.5323160000000  0.5323180000000 1.0
C      1  0.4477170000000  0.5323150000000  0.4676840000000 1.0
END
