TITL C-36752-7507-6 -13.2538988936845 125000 -831.557758803172 0 0 117 (C1) n - 1
REM
REM in /rds/project/t2_vol4/rds-t2-cs072/BORA/CARBON/from-Arr/AIRSS/Generating-Clusters/GAP-ML-2020/Higher-Symm/SD-CG/HFTN-CG
REM
REM
REM
REM
REM
REM ./C.cell (b20cbc046b6831c77cfcea5457e17084)
REM AIRSS Version 0.9.1 bugfix July 2018 build 013d7b7c2542+ Fri, 06 Jul 2018 19:26:36 +0100
REM compiler GCC version 9.3.0
REM options -cpp -mtune=generic -march=x86-64 -g -O0
REM seed -720126437 -2090253886 1644592562 -1703112896 870548357 -1206811329 -38116768 1350735433 273821939 -784959812 -436301821 1049917211 905444789 -1126740859 -807160233 276420640 1516786420 -1570849242 -83979010 1957925828 2073391583 -448689101 23325100 -298054274 1200907726 -1657604834 1599829111 1342247619 -1280889358 -1651419557 47895084 -468216901 -1757219015
REM
CELL 1.54180   50.00000   50.00000   50.00000   90.00000   90.00000   90.00000
LATT -1
SFAC C  
C      1  0.5465550000000  0.5551110000000  0.5603360000000 1.0
C      1  0.4999380000000  0.5712640000000  0.5629270000000 1.0
C      1  0.4534490000000  0.5529610000000  0.5641780000000 1.0
C      1  0.4288310000000  0.5096160000000  0.5638820000000 1.0
C      1  0.4392640000000  0.4608890000000  0.5598620000000 1.0
C      1  0.4781760000000  0.4291330000000  0.5587180000000 1.0
C      1  0.5279230000000  0.4305510000000  0.5583800000000 1.0
C      1  0.5662650000000  0.4636180000000  0.5598040000000 1.0
C      1  0.5746850000000  0.5131280000000  0.5609220000000 1.0
C      1  0.4793820000000  0.4674460000000  0.4189010000000 1.0
C      1  0.5056530000000  0.4549490000000  0.4148410000000 1.0
C      1  0.5330070000000  0.4640730000000  0.4139050000000 1.0
C      1  0.5472400000000  0.4899460000000  0.4138850000000 1.0
C      1  0.5387800000000  0.5171870000000  0.4148570000000 1.0
C      1  0.5139350000000  0.5322250000000  0.4152690000000 1.0
C      1  0.4879380000000  0.5327970000000  0.4019340000000 1.0
C      1  0.4655400000000  0.5144980000000  0.4018590000000 1.0
C      1  0.4609140000000  0.4861270000000  0.4061400000000 1.0
C      1  0.5289760000000  0.4701750000000  0.5066070000000 1.0
C      1  0.5444020000000  0.4943790000000  0.5005970000000 1.0
C      1  0.5128070000000  0.5125460000000  0.4680580000000 1.0
C      1  0.5022360000000  0.5266590000000  0.4909760000000 1.0
C      1  0.4752010000000  0.5287490000000  0.4870230000000 1.0
C      1  0.4625540000000  0.5287230000000  0.4616700000000 1.0
C      1  0.4679080000000  0.5079780000000  0.5022690000000 1.0
C      1  0.4750460000000  0.4841270000000  0.4895300000000 1.0
C      1  0.4985310000000  0.4848430000000  0.4686250000000 1.0
C      1  0.5440710000000  0.5592270000000  0.4756270000000 1.0
C      1  0.4959450000000  0.5759640000000  0.4795480000000 1.0
C      1  0.4473260000000  0.5623950000000  0.4805600000000 1.0
C      1  0.4224990000000  0.5143480000000  0.4825390000000 1.0
C      1  0.4353920000000  0.4625370000000  0.4724670000000 1.0
C      1  0.4752590000000  0.4270880000000  0.4748540000000 1.0
C      1  0.5260070000000  0.4335980000000  0.4746800000000 1.0
C      1  0.5673190000000  0.4630450000000  0.4756090000000 1.0
C      1  0.5698560000000  0.5149810000000  0.4739780000000 1.0
C      1  0.5552950000000  0.5316190000000  0.4335940000000 1.0
C      1  0.5228480000000  0.5619500000000  0.4224480000000 1.0
C      1  0.4772660000000  0.5593180000000  0.4104280000000 1.0
C      1  0.4439210000000  0.5281620000000  0.4151440000000 1.0
C      1  0.4364350000000  0.4824340000000  0.4217060000000 1.0
C      1  0.4612090000000  0.4464200000000  0.4326550000000 1.0
C      1  0.5041100000000  0.4320290000000  0.4330010000000 1.0
C      1  0.5474280000000  0.4471680000000  0.4326290000000 1.0
C      1  0.5703610000000  0.4885390000000  0.4318190000000 1.0
C      1  0.5618190000000  0.5369130000000  0.5180190000000 1.0
C      1  0.5249920000000  0.5744470000000  0.5200640000000 1.0
C      1  0.4721830000000  0.5735540000000  0.5233270000000 1.0
C      1  0.4315780000000  0.5400570000000  0.5224560000000 1.0
C      1  0.4231080000000  0.4838280000000  0.5200260000000 1.0
C      1  0.4554770000000  0.4437840000000  0.5157390000000 1.0
C      1  0.5026350000000  0.4218860000000  0.5172830000000 1.0
C      1  0.5486650000000  0.4459420000000  0.5157280000000 1.0
C      1  0.5799980000000  0.4876630000000  0.5199920000000 1.0
C      1  0.4395620000000  0.5100810000000  0.4594810000000 1.0
C      1  0.4552640000000  0.4837060000000  0.4648290000000 1.0
C      1  0.4793740000000  0.4822780000000  0.4468390000000 1.0
C      1  0.5193560000000  0.4647120000000  0.4771430000000 1.0
C      1  0.5416670000000  0.4762510000000  0.4614290000000 1.0
C      1  0.5405640000000  0.5031280000000  0.4718110000000 1.0
C      1  0.5092360000000  0.5351060000000  0.4483230000000 1.0
C      1  0.4901430000000  0.5632630000000  0.4542030000000 1.0
C      1  0.4600570000000  0.5562940000000  0.4534820000000 1.0
C      1  0.4608130000000  0.4472370000000  0.5723980000000 1.0
C      1  0.5032110000000  0.4326710000000  0.5718610000000 1.0
C      1  0.5450560000000  0.4490050000000  0.5721250000000 1.0
C      1  0.5675710000000  0.4885540000000  0.5736840000000 1.0
C      1  0.5576090000000  0.5321580000000  0.5731190000000 1.0
C      1  0.5227610000000  0.5598470000000  0.5751650000000 1.0
C      1  0.4782310000000  0.5585200000000  0.5765030000000 1.0
C      1  0.4441820000000  0.5294470000000  0.5770720000000 1.0
C      1  0.4371990000000  0.4851350000000  0.5749790000000 1.0
C      1  0.5786160000000  0.5142840000000  0.5330970000000 1.0
C      1  0.5481760000000  0.5607540000000  0.5328830000000 1.0
C      1  0.4990520000000  0.5775420000000  0.5352990000000 1.0
C      1  0.4501250000000  0.5583140000000  0.5365260000000 1.0
C      1  0.4300940000000  0.5109310000000  0.5345480000000 1.0
C      1  0.4347580000000  0.4598140000000  0.5319850000000 1.0
C      1  0.4769220000000  0.4256600000000  0.5310270000000 1.0
C      1  0.5281220000000  0.4277830000000  0.5303820000000 1.0
C      1  0.5695670000000  0.4630900000000  0.5321750000000 1.0
C      1  0.5671550000000  0.4637240000000  0.4465890000000 1.0
C      1  0.5739720000000  0.5138040000000  0.4453380000000 1.0
C      1  0.5382290000000  0.5515640000000  0.4474050000000 1.0
C      1  0.4972470000000  0.5731320000000  0.4263830000000 1.0
C      1  0.4531290000000  0.5540500000000  0.4246320000000 1.0
C      1  0.4305950000000  0.5084510000000  0.4311900000000 1.0
C      1  0.4378370000000  0.4602580000000  0.4415740000000 1.0
C      1  0.4784210000000  0.4293810000000  0.4465600000000 1.0
C      1  0.5289330000000  0.4298780000000  0.4458880000000 1.0
C      1  0.4754570000000  0.4644860000000  0.5911230000000 1.0
C      1  0.5030050000000  0.4554500000000  0.5903170000000 1.0
C      1  0.5301680000000  0.4660310000000  0.5906670000000 1.0
C      1  0.5446180000000  0.4913640000000  0.5917990000000 1.0
C      1  0.5387790000000  0.5198490000000  0.5922660000000 1.0
C      1  0.5160670000000  0.5375790000000  0.5934500000000 1.0
C      1  0.4869280000000  0.5366080000000  0.5941480000000 1.0
C      1  0.4648360000000  0.5177800000000  0.5945430000000 1.0
C      1  0.4602300000000  0.4888980000000  0.5930490000000 1.0
C      1  0.5031090000000  0.5178750000000  0.5420490000000 1.0
C      1  0.4806430000000  0.5014840000000  0.5430980000000 1.0
C      1  0.4597520000000  0.5104960000000  0.5285140000000 1.0
C      1  0.4759950000000  0.4652700000000  0.5117310000000 1.0
C      1  0.4887890000000  0.4754980000000  0.5346510000000 1.0
C      1  0.5161710000000  0.4763720000000  0.5323280000000 1.0
C      1  0.5264590000000  0.5006000000000  0.5430170000000 1.0
C      1  0.5393260000000  0.5154270000000  0.5196600000000 1.0
C      1  0.5126140000000  0.5286010000000  0.5163980000000 1.0
C      1  0.5540420000000  0.4397880000000  0.4880670000000 1.0
C      1  0.5738030000000  0.4880320000000  0.4920080000000 1.0
C      1  0.5632180000000  0.5407070000000  0.4885160000000 1.0
C      1  0.5232270000000  0.5739600000000  0.4910490000000 1.0
C      1  0.4700940000000  0.5755010000000  0.4950640000000 1.0
C      1  0.4283420000000  0.5416890000000  0.4947070000000 1.0
C      1  0.4205330000000  0.4860110000000  0.4923340000000 1.0
C      1  0.4515560000000  0.4393860000000  0.4866070000000 1.0
C      1  0.5012900000000  0.4228510000000  0.4890330000000 1.0
END
