TITL C-36749-7508-2 0.00640791929265672 125000 -330.606783794142 0 0 50 (C2) n - 1
REM
REM in /rds/project/t2_vol4/rds-t2-cs072/BORA/CARBON/from-Arr/AIRSS/Generating-Clusters/GAP-ML-2020/Higher-Symm/SD-CG/HFTN-CG
REM
REM
REM
REM
REM
REM ./C.cell (b20cbc046b6831c77cfcea5457e17084)
REM AIRSS Version 0.9.1 bugfix July 2018 build 013d7b7c2542+ Fri, 06 Jul 2018 19:26:36 +0100
REM compiler GCC version 9.3.0
REM options -cpp -mtune=generic -march=x86-64 -g -O0
REM seed -1509090941 -465354947 -1417732062 1772595420 -890159003 1448499050 -1834125282 -1759772066 33521308 -1246050643 2023454564 442816999 1589850071 1031918110 -275654351 2063827713 -1684287399 1136092263 -760797654 1910053373 978478093 1755853020 -2075234575 -1421285771 -59690223 -1363538936 -1067395922 631938020 -384505938 -383423479 18008297 559349820 -991277639
REM
CELL 1.54180   50.00000   50.00000   50.00000   90.00000   90.00000   90.00000
LATT -1
SFAC C  
C      1  0.4419790000000  0.4856160000000  0.4845940000000 1.0
C      1  0.4419830000000  0.5144010000000  0.5154060000000 1.0
C      1  0.4414530000000  0.5149320000000  0.4852040000000 1.0
C      1  0.4414480000000  0.4850850000000  0.5147960000000 1.0
C      1  0.4985510000000  0.5350040000000  0.4356530000000 1.0
C      1  0.4985400000000  0.4649960000000  0.5643470000000 1.0
C      1  0.5045250000000  0.4747810000000  0.4394020000000 1.0
C      1  0.5045320000000  0.5252170000000  0.5605980000000 1.0
C      1  0.5320330000000  0.5359060000000  0.4710410000000 1.0
C      1  0.5320220000000  0.4640850000000  0.5289590000000 1.0
C      1  0.5349570000000  0.4622870000000  0.4750980000000 1.0
C      1  0.5349680000000  0.5377030000000  0.5249020000000 1.0
C      1  0.5138950000000  0.4440100000000  0.5149880000000 1.0
C      1  0.5139120000000  0.5559860000000  0.4850120000000 1.0
C      1  0.5151160000000  0.5566740000000  0.5133870000000 1.0
C      1  0.5151000000000  0.4433210000000  0.4866130000000 1.0
C      1  0.5165920000000  0.5147640000000  0.4843250000000 1.0
C      1  0.5165880000000  0.4852310000000  0.5156750000000 1.0
C      1  0.5171550000000  0.4844530000000  0.4859200000000 1.0
C      1  0.5171600000000  0.5155410000000  0.5140800000000 1.0
C      1  0.4671020000000  0.4430120000000  0.5114650000000 1.0
C      1  0.4671190000000  0.5569980000000  0.4885350000000 1.0
C      1  0.4672210000000  0.5574040000000  0.5149600000000 1.0
C      1  0.4672040000000  0.4426050000000  0.4850400000000 1.0
C      1  0.5594540000000  0.5382640000000  0.5088770000000 1.0
C      1  0.5594430000000  0.4617190000000  0.4911230000000 1.0
C      1  0.5585580000000  0.4631510000000  0.5164940000000 1.0
C      1  0.5585680000000  0.5368310000000  0.4835060000000 1.0
C      1  0.5314510000000  0.5282300000000  0.5524850000000 1.0
C      1  0.5314430000000  0.4717600000000  0.4475150000000 1.0
C      1  0.5223560000000  0.4755790000000  0.5554260000000 1.0
C      1  0.5223630000000  0.5244140000000  0.4445740000000 1.0
C      1  0.4865730000000  0.5151940000000  0.5142830000000 1.0
C      1  0.4865690000000  0.4848100000000  0.4857170000000 1.0
C      1  0.4865130000000  0.4854850000000  0.5152840000000 1.0
C      1  0.4865170000000  0.5145190000000  0.4847160000000 1.0
C      1  0.4900400000000  0.5622130000000  0.4725430000000 1.0
C      1  0.4900210000000  0.4377890000000  0.5274570000000 1.0
C      1  0.4921270000000  0.4397820000000  0.4711430000000 1.0
C      1  0.4921450000000  0.5602210000000  0.5288570000000 1.0
C      1  0.4797910000000  0.5425510000000  0.4520540000000 1.0
C      1  0.4797790000000  0.4574540000000  0.5479460000000 1.0
C      1  0.4840710000000  0.4621440000000  0.4524820000000 1.0
C      1  0.4840820000000  0.5378600000000  0.5475180000000 1.0
C      1  0.4624590000000  0.5304990000000  0.5277870000000 1.0
C      1  0.4624500000000  0.4695110000000  0.4722130000000 1.0
C      1  0.4619220000000  0.4688260000000  0.5261540000000 1.0
C      1  0.4619310000000  0.5311850000000  0.4738460000000 1.0
C      1  0.5226440000000  0.4966830000000  0.4384710000000 1.0
C      1  0.5226450000000  0.5033100000000  0.5615290000000 1.0
END
