TITL C-36755-7446-6 -0.207317467930682 125000 -665.043375604274 0 0 96 (C2v) n - 1
REM
REM in /rds/project/t2_vol4/rds-t2-cs072/BORA/CARBON/from-Arr/AIRSS/Generating-Clusters/GAP-ML-2020/Higher-Symm/SD-CG/HFTN-CG
REM
REM
REM
REM
REM
REM ./C.cell (b20cbc046b6831c77cfcea5457e17084)
REM AIRSS Version 0.9.1 bugfix July 2018 build 013d7b7c2542+ Fri, 06 Jul 2018 19:26:36 +0100
REM compiler GCC version 9.3.0
REM options -cpp -mtune=generic -march=x86-64 -g -O0
REM seed 1465444548 -879444933 -408800745 -307689582 136024078 2052675619 -36548163 -1167081849 -189631875 -1820857075 1568604661 364312975 1512308079 749476271 1073237881 -1505955834 767771665 -1467818461 -924306181 2058019657 1915992938 1554056550 -25276138 867911890 505163908 -1205934216 216945200 835109206 1449569364 -1931176109 -1335883941 2000042456 -300060233
REM
CELL 1.54180   50.00000   50.00000   50.00000   90.00000   90.00000   90.00000
LATT -1
SFAC C  
C      1  0.4374750000000  0.5559690000000  0.4857640000000 1.0
C      1  0.4374930000000  0.4440040000000  0.5142070000000 1.0
C      1  0.4374690000000  0.5559700000000  0.5142040000000 1.0
C      1  0.4375000000000  0.4440030000000  0.4857670000000 1.0
C      1  0.4739520000000  0.5555810000000  0.4467280000000 1.0
C      1  0.4739520000000  0.4444070000000  0.5532600000000 1.0
C      1  0.4739270000000  0.5555850000000  0.5532570000000 1.0
C      1  0.4739770000000  0.4444040000000  0.4467310000000 1.0
C      1  0.5140300000000  0.5555740000000  0.5767890000000 1.0
C      1  0.5140900000000  0.4444320000000  0.4232170000000 1.0
C      1  0.5140660000000  0.5555690000000  0.4232140000000 1.0
C      1  0.5140540000000  0.4444370000000  0.5767930000000 1.0
C      1  0.5753440000000  0.5156730000000  0.4856840000000 1.0
C      1  0.5753440000000  0.4843600000000  0.5143510000000 1.0
C      1  0.5753370000000  0.5156740000000  0.5143500000000 1.0
C      1  0.5753510000000  0.4843590000000  0.4856850000000 1.0
C      1  0.5443020000000  0.4849020000000  0.4263530000000 1.0
C      1  0.5442610000000  0.5151180000000  0.5736680000000 1.0
C      1  0.5442680000000  0.4849060000000  0.5736690000000 1.0
C      1  0.5442950000000  0.5151130000000  0.4263520000000 1.0
C      1  0.4702720000000  0.4702900000000  0.5658530000000 1.0
C      1  0.4702900000000  0.5296970000000  0.4341330000000 1.0
C      1  0.4703030000000  0.4702860000000  0.4341350000000 1.0
C      1  0.4702590000000  0.5297010000000  0.5658510000000 1.0
C      1  0.5575660000000  0.5263590000000  0.5516580000000 1.0
C      1  0.5576010000000  0.4736670000000  0.4483690000000 1.0
C      1  0.5575900000000  0.5263550000000  0.4483670000000 1.0
C      1  0.5575770000000  0.4736700000000  0.5516600000000 1.0
C      1  0.5092710000000  0.5787060000000  0.4702300000000 1.0
C      1  0.5092920000000  0.4212980000000  0.5297740000000 1.0
C      1  0.5092570000000  0.5787080000000  0.5297690000000 1.0
C      1  0.5093060000000  0.4212960000000  0.4702350000000 1.0
C      1  0.4476960000000  0.5144970000000  0.4845090000000 1.0
C      1  0.4476950000000  0.4854800000000  0.5154670000000 1.0
C      1  0.4476880000000  0.5144980000000  0.5154660000000 1.0
C      1  0.4477020000000  0.4854790000000  0.4845100000000 1.0
C      1  0.4661520000000  0.5581520000000  0.5252480000000 1.0
C      1  0.4661900000000  0.4418330000000  0.4747360000000 1.0
C      1  0.4661640000000  0.5581510000000  0.4747330000000 1.0
C      1  0.4661780000000  0.4418340000000  0.5252520000000 1.0
C      1  0.5451750000000  0.4858730000000  0.5270520000000 1.0
C      1  0.5451820000000  0.5141470000000  0.4729690000000 1.0
C      1  0.5451880000000  0.4858710000000  0.4729700000000 1.0
C      1  0.5451690000000  0.5141480000000  0.5270510000000 1.0
C      1  0.4973160000000  0.4841280000000  0.5282040000000 1.0
C      1  0.4973220000000  0.5158710000000  0.4717940000000 1.0
C      1  0.4973290000000  0.4841260000000  0.4717950000000 1.0
C      1  0.4973090000000  0.5158730000000  0.5282030000000 1.0
C      1  0.5732920000000  0.5405000000000  0.5322140000000 1.0
C      1  0.5733250000000  0.4595320000000  0.4678200000000 1.0
C      1  0.5733070000000  0.5404980000000  0.4678180000000 1.0
C      1  0.5733100000000  0.4595340000000  0.5322170000000 1.0
C      1  0.4860120000000  0.5770780000000  0.4861220000000 1.0
C      1  0.4860400000000  0.4229160000000  0.5138710000000 1.0
C      1  0.4860060000000  0.5770790000000  0.5138660000000 1.0
C      1  0.4860460000000  0.4229150000000  0.4861270000000 1.0
C      1  0.5186970000000  0.5288370000000  0.4236500000000 1.0
C      1  0.5186750000000  0.4711720000000  0.5763580000000 1.0
C      1  0.5186620000000  0.5288420000000  0.5763570000000 1.0
C      1  0.5187100000000  0.4711670000000  0.4236520000000 1.0
C      1  0.4267040000000  0.5313600000000  0.4731760000000 1.0
C      1  0.4267060000000  0.4686080000000  0.5267900000000 1.0
C      1  0.4266920000000  0.5313620000000  0.5267880000000 1.0
C      1  0.4267180000000  0.4686060000000  0.4731780000000 1.0
C      1  0.5344080000000  0.4231520000000  0.5145330000000 1.0
C      1  0.5343810000000  0.5768630000000  0.4854830000000 1.0
C      1  0.5344150000000  0.4231510000000  0.4854880000000 1.0
C      1  0.5343740000000  0.5768640000000  0.5145280000000 1.0
C      1  0.4472080000000  0.4853320000000  0.5677670000000 1.0
C      1  0.4472340000000  0.5146450000000  0.4322090000000 1.0
C      1  0.4472400000000  0.4853270000000  0.4322100000000 1.0
C      1  0.4472020000000  0.5146490000000  0.5677660000000 1.0
C      1  0.5001160000000  0.5661160000000  0.5552020000000 1.0
C      1  0.5001710000000  0.4338850000000  0.4447980000000 1.0
C      1  0.5001420000000  0.5661120000000  0.4447940000000 1.0
C      1  0.5001450000000  0.4338880000000  0.5552060000000 1.0
C      1  0.5606070000000  0.4388100000000  0.4853650000000 1.0
C      1  0.5605730000000  0.5612170000000  0.5146630000000 1.0
C      1  0.5606000000000  0.4388110000000  0.5146670000000 1.0
C      1  0.5605800000000  0.5612160000000  0.4853610000000 1.0
C      1  0.4957200000000  0.4847850000000  0.5614930000000 1.0
C      1  0.4957420000000  0.5152140000000  0.4385050000000 1.0
C      1  0.4957490000000  0.4847810000000  0.4385060000000 1.0
C      1  0.4957140000000  0.5152180000000  0.5614920000000 1.0
C      1  0.4240410000000  0.4846390000000  0.4506580000000 1.0
C      1  0.4240110000000  0.5153270000000  0.5493070000000 1.0
C      1  0.4240180000000  0.4846420000000  0.5493080000000 1.0
C      1  0.4240340000000  0.5153240000000  0.4506570000000 1.0
C      1  0.5205950000000  0.5242030000000  0.4859470000000 1.0
C      1  0.5205990000000  0.4758060000000  0.5140620000000 1.0
C      1  0.5205890000000  0.5242040000000  0.5140610000000 1.0
C      1  0.5206060000000  0.4758050000000  0.4859490000000 1.0
C      1  0.4739420000000  0.4707040000000  0.5149120000000 1.0
C      1  0.4739360000000  0.5292840000000  0.4850760000000 1.0
C      1  0.4739480000000  0.4707030000000  0.4850780000000 1.0
C      1  0.4739290000000  0.5292850000000  0.5149100000000 1.0
END
