TITL C-36755-7446-3 -0.096186528086879 125000 -528.333019427245 0 0 79 (C2) n - 1
REM
REM in /rds/project/t2_vol4/rds-t2-cs072/BORA/CARBON/from-Arr/AIRSS/Generating-Clusters/GAP-ML-2020/Higher-Symm/SD-CG/HFTN-CG
REM
REM
REM
REM
REM
REM ./C.cell (b20cbc046b6831c77cfcea5457e17084)
REM AIRSS Version 0.9.1 bugfix July 2018 build 013d7b7c2542+ Fri, 06 Jul 2018 19:26:36 +0100
REM compiler GCC version 9.3.0
REM options -cpp -mtune=generic -march=x86-64 -g -O0
REM seed -1751921828 -352473447 -86173683 -171645060 47107892 1366350065 -1926103218 2028117634 -983952589 -1825049453 1212221218 908358143 1035782677 212905107 -1109470209 -1476900764 -37020 1873591215 1353487643 -1129004536 308269652 -2118482370 -449776489 1916462700 1629171754 170219746 -666186986 -812820457 126642808 -1032201982 -122224772 -853404150 -1063357377
REM
CELL 1.54180   50.00000   50.00000   50.00000   90.00000   90.00000   90.00000
LATT -1
SFAC C  
C      1  0.4669700000000  0.4634470000000  0.4388140000000 1.0
C      1  0.5322530000000  0.5359030000000  0.4388030000000 1.0
C      1  0.4702290000000  0.5490670000000  0.5610970000000 1.0
C      1  0.5290100000000  0.4503050000000  0.5611020000000 1.0
C      1  0.4813460000000  0.5721960000000  0.5217300000000 1.0
C      1  0.5178880000000  0.4271690000000  0.5217400000000 1.0
C      1  0.4825550000000  0.4332260000000  0.4722680000000 1.0
C      1  0.5166730000000  0.5661300000000  0.4722540000000 1.0
C      1  0.4570790000000  0.4892910000000  0.5121510000000 1.0
C      1  0.5421540000000  0.5100720000000  0.5121440000000 1.0
C      1  0.4550030000000  0.5123720000000  0.4895270000000 1.0
C      1  0.5442260000000  0.4869880000000  0.4895230000000 1.0
C      1  0.5467910000000  0.5414050000000  0.5054880000000 1.0
C      1  0.4524400000000  0.4579570000000  0.5055020000000 1.0
C      1  0.5495190000000  0.4551610000000  0.4938760000000 1.0
C      1  0.4497110000000  0.5441990000000  0.4938740000000 1.0
C      1  0.4448680000000  0.5529280000000  0.4651400000000 1.0
C      1  0.5543590000000  0.4464270000000  0.4651420000000 1.0
C      1  0.4508090000000  0.4437090000000  0.5353490000000 1.0
C      1  0.5484270000000  0.5556580000000  0.5353330000000 1.0
C      1  0.4088030000000  0.4906300000000  0.4935830000000 1.0
C      1  0.5904270000000  0.5087300000000  0.4935690000000 1.0
C      1  0.4100680000000  0.5077040000000  0.5125520000000 1.0
C      1  0.5891640000000  0.4916600000000  0.5125420000000 1.0
C      1  0.5149500000000  0.4806320000000  0.4504160000000 1.0
C      1  0.4842750000000  0.5187200000000  0.4504150000000 1.0
C      1  0.5123670000000  0.5212990000000  0.5497690000000 1.0
C      1  0.4868710000000  0.4780710000000  0.5497740000000 1.0
C      1  0.4427050000000  0.5004730000000  0.5354320000000 1.0
C      1  0.5565310000000  0.4988940000000  0.5354250000000 1.0
C      1  0.4379990000000  0.5024130000000  0.4670140000000 1.0
C      1  0.5612280000000  0.4969420000000  0.4670070000000 1.0
C      1  0.5396060000000  0.4629370000000  0.4456890000000 1.0
C      1  0.4596170000000  0.5364140000000  0.4456880000000 1.0
C      1  0.5395960000000  0.5363330000000  0.5528740000000 1.0
C      1  0.4596420000000  0.4630380000000  0.5528850000000 1.0
C      1  0.4463960000000  0.5109570000000  0.4418210000000 1.0
C      1  0.5528270000000  0.4883930000000  0.4418160000000 1.0
C      1  0.4485560000000  0.4881710000000  0.5593770000000 1.0
C      1  0.5506830000000  0.5112010000000  0.5593680000000 1.0
C      1  0.4607060000000  0.5602610000000  0.5384030000000 1.0
C      1  0.5385300000000  0.4391070000000  0.5384090000000 1.0
C      1  0.4599270000000  0.4456920000000  0.4593130000000 1.0
C      1  0.5392980000000  0.5536620000000  0.4592980000000 1.0
C      1  0.4400000000000  0.5470980000000  0.5214320000000 1.0
C      1  0.5592330000000  0.4522670000000  0.5214330000000 1.0
C      1  0.4403660000000  0.4558660000000  0.4785130000000 1.0
C      1  0.5588620000000  0.5434910000000  0.4784970000000 1.0
C      1  0.4734640000000  0.5013080000000  0.5635440000000 1.0
C      1  0.5257750000000  0.4980650000000  0.5635410000000 1.0
C      1  0.4697510000000  0.4942580000000  0.4375940000000 1.0
C      1  0.5294710000000  0.5050920000000  0.4375890000000 1.0
C      1  0.4234840000000  0.4787850000000  0.4737130000000 1.0
C      1  0.5757430000000  0.5205720000000  0.4736990000000 1.0
C      1  0.4256700000000  0.5227130000000  0.5292910000000 1.0
C      1  0.5735650000000  0.4766530000000  0.5292860000000 1.0
C      1  0.4905560000000  0.4748980000000  0.4338490000000 1.0
C      1  0.5086660000000  0.5244510000000  0.4338430000000 1.0
C      1  0.4855100000000  0.5264330000000  0.5630100000000 1.0
C      1  0.5137290000000  0.4729400000000  0.5630130000000 1.0
C      1  0.5111160000000  0.4308020000000  0.4705370000000 1.0
C      1  0.4881110000000  0.5685530000000  0.4705260000000 1.0
C      1  0.5103040000000  0.5744120000000  0.5211140000000 1.0
C      1  0.4889290000000  0.4249530000000  0.5211280000000 1.0
C      1  0.5225640000000  0.4404200000000  0.4966890000000 1.0
C      1  0.4766670000000  0.5589400000000  0.4966820000000 1.0
C      1  0.5200940000000  0.5555670000000  0.4989780000000 1.0
C      1  0.4791370000000  0.4437940000000  0.4989910000000 1.0
C      1  0.5334320000000  0.4342080000000  0.4518790000000 1.0
C      1  0.4657920000000  0.5651450000000  0.4518720000000 1.0
C      1  0.5326420000000  0.5791610000000  0.5362440000000 1.0
C      1  0.4665930000000  0.4202070000000  0.5362630000000 1.0
C      1  0.4864800000000  0.4848430000000  0.5191360000000 1.0
C      1  0.5127530000000  0.5145220000000  0.5191320000000 1.0
C      1  0.4833280000000  0.5165590000000  0.4812840000000 1.0
C      1  0.5159000000000  0.4827990000000  0.4812840000000 1.0
C      1  0.5018720000000  0.4621930000000  0.5005830000000 1.0
C      1  0.4973590000000  0.5371690000000  0.5005760000000 1.0
C      1  0.4996150000000  0.4996800000000  0.4979580000000 1.0
END
