TITL C-36762-7537-11 0.0713576318894324 125000 -423.37813812658 0 0 60 (C1) n - 1
REM
REM in /rds/project/t2_vol4/rds-t2-cs072/BORA/CARBON/from-Arr/AIRSS/Generating-Clusters/GAP-ML-2020/Higher-Symm/SD-CG/HFTN-CG
REM
REM
REM
REM
REM
REM ./C.cell (b20cbc046b6831c77cfcea5457e17084)
REM AIRSS Version 0.9.1 bugfix July 2018 build 013d7b7c2542+ Fri, 06 Jul 2018 19:26:36 +0100
REM compiler GCC version 9.3.0
REM options -cpp -mtune=generic -march=x86-64 -g -O0
REM seed 56522743 1525631042 1139763302 1748879974 1877977343 756921386 1115530252 556960285 -1781868345 1170281727 -1165657727 -1177473358 1342294376 -281486999 -1368626610 -1664047577 -1593791749 754203873 1939760704 1912190753 -1427911623 1246419153 -915971053 67048719 -1246359735 25218981 1882204610 1815733057 1968272428 -1036169300 -1729576082 1234740151 1974881244
REM
CELL 1.54180   50.00000   50.00000   50.00000   90.00000   90.00000   90.00000
LATT -1
SFAC C  
C      1  0.5712300000000  0.4927590000000  0.5036360000000 1.0
C      1  0.5420460000000  0.5546730000000  0.5050100000000 1.0
C      1  0.4464790000000  0.5462060000000  0.4961390000000 1.0
C      1  0.4388620000000  0.4631530000000  0.4973170000000 1.0
C      1  0.4999770000000  0.4318440000000  0.5038520000000 1.0
C      1  0.4966570000000  0.5615900000000  0.5267940000000 1.0
C      1  0.4381330000000  0.5139240000000  0.5281950000000 1.0
C      1  0.4655680000000  0.4463820000000  0.5322860000000 1.0
C      1  0.5383090000000  0.4504570000000  0.5333900000000 1.0
C      1  0.5568250000000  0.5228340000000  0.5363460000000 1.0
C      1  0.4551620000000  0.4994650000000  0.4599150000000 1.0
C      1  0.4895880000000  0.4525110000000  0.4585770000000 1.0
C      1  0.5433720000000  0.4710860000000  0.4615290000000 1.0
C      1  0.5416800000000  0.5310130000000  0.4601860000000 1.0
C      1  0.4872650000000  0.5439650000000  0.4626120000000 1.0
C      1  0.4495070000000  0.4911870000000  0.5405920000000 1.0
C      1  0.4902640000000  0.4514830000000  0.5456930000000 1.0
C      1  0.5421950000000  0.4766830000000  0.5454460000000 1.0
C      1  0.5330090000000  0.5345440000000  0.5468870000000 1.0
C      1  0.4769250000000  0.5433490000000  0.5377490000000 1.0
C      1  0.4539170000000  0.4396470000000  0.4891650000000 1.0
C      1  0.5561430000000  0.4330820000000  0.4900750000000 1.0
C      1  0.5753870000000  0.5205980000000  0.4949710000000 1.0
C      1  0.4989380000000  0.5894300000000  0.4831300000000 1.0
C      1  0.4268410000000  0.5273060000000  0.4866630000000 1.0
C      1  0.4217200000000  0.5090270000000  0.5057170000000 1.0
C      1  0.4719170000000  0.4320340000000  0.5082640000000 1.0
C      1  0.5569400000000  0.4402690000000  0.5143100000000 1.0
C      1  0.5634580000000  0.5379070000000  0.5125960000000 1.0
C      1  0.4910060000000  0.5771260000000  0.5047900000000 1.0
C      1  0.4528770000000  0.5385710000000  0.5234800000000 1.0
C      1  0.4463090000000  0.4663520000000  0.5261620000000 1.0
C      1  0.5115390000000  0.4412820000000  0.5292480000000 1.0
C      1  0.5601940000000  0.4947960000000  0.5317140000000 1.0
C      1  0.5241720000000  0.5545750000000  0.5282560000000 1.0
C      1  0.5242810000000  0.4858640000000  0.4458020000000 1.0
C      1  0.5231470000000  0.5149300000000  0.4450980000000 1.0
C      1  0.4957520000000  0.5225410000000  0.4436590000000 1.0
C      1  0.4798070000000  0.4989120000000  0.4425480000000 1.0
C      1  0.4972400000000  0.4763230000000  0.4444140000000 1.0
C      1  0.4698610000000  0.5037720000000  0.4867440000000 1.0
C      1  0.4822660000000  0.4814810000000  0.4986810000000 1.0
C      1  0.5067010000000  0.4912820000000  0.5052450000000 1.0
C      1  0.5125470000000  0.5161720000000  0.4986030000000 1.0
C      1  0.4891950000000  0.5249880000000  0.4855400000000 1.0
C      1  0.5360470000000  0.4459000000000  0.4734610000000 1.0
C      1  0.5637370000000  0.5157070000000  0.4694350000000 1.0
C      1  0.5073660000000  0.5647930000000  0.4711860000000 1.0
C      1  0.4412290000000  0.5250170000000  0.4615540000000 1.0
C      1  0.4618520000000  0.4512200000000  0.4645540000000 1.0
C      1  0.5085240000000  0.4394870000000  0.4768410000000 1.0
C      1  0.5623950000000  0.4870070000000  0.4749370000000 1.0
C      1  0.5329470000000  0.5534270000000  0.4769070000000 1.0
C      1  0.4587680000000  0.5465830000000  0.4689840000000 1.0
C      1  0.4440120000000  0.4736080000000  0.4692770000000 1.0
C      1  0.4863790000000  0.5217460000000  0.5540940000000 1.0
C      1  0.4733930000000  0.4959990000000  0.5550240000000 1.0
C      1  0.4939250000000  0.4762090000000  0.5588450000000 1.0
C      1  0.5197920000000  0.4887770000000  0.5590320000000 1.0
C      1  0.5144290000000  0.5171450000000  0.5588450000000 1.0
END
