TITL C-36758-8647-7 -11.2832991821743 125000 -493.852294359551 0 0 69 (C1) n - 1
REM
REM in /rds/project/t2_vol4/rds-t2-cs072/BORA/CARBON/from-Arr/AIRSS/Generating-Clusters/GAP-ML-2020/Higher-Symm/SD-CG/HFTN-CG
REM
REM
REM
REM
REM
REM ./C.cell (b20cbc046b6831c77cfcea5457e17084)
REM AIRSS Version 0.9.1 bugfix July 2018 build 013d7b7c2542+ Fri, 06 Jul 2018 19:26:36 +0100
REM compiler GCC version 9.3.0
REM options -cpp -mtune=generic -march=x86-64 -g -O0
REM seed -974810694 1486975368 -1863494901 373343521 509381039 1844127393 1316830900 -2076589347 -1500106235 -1745806650 195865114 -1175644048 589460486 1160226626 1720392625 -453188946 485387559 72727122 -1901950309 1749111224 -2054348518 13728681 -2037215786 -265173039 1043101237 -1974973441 1738671920 -820090287 1260719152 2042055873 -1883452575 -617848632 -1805393212
REM
CELL 1.54180   50.00000   50.00000   50.00000   90.00000   90.00000   90.00000
LATT -1
SFAC C  
C      1  0.5170530000000  0.4222310000000  0.5010840000000 1.0
C      1  0.5171690000000  0.4468710000000  0.5521510000000 1.0
C      1  0.5076140000000  0.4852560000000  0.5807320000000 1.0
C      1  0.5084410000000  0.5137990000000  0.5799270000000 1.0
C      1  0.5106160000000  0.5613010000000  0.5475850000000 1.0
C      1  0.5120180000000  0.5737810000000  0.5220450000000 1.0
C      1  0.5147430000000  0.5671490000000  0.4639280000000 1.0
C      1  0.5157490000000  0.5490000000000  0.4420790000000 1.0
C      1  0.5173470000000  0.4937150000000  0.4228830000000 1.0
C      1  0.5176160000000  0.4660690000000  0.4298540000000 1.0
C      1  0.5173430000000  0.4265240000000  0.4729450000000 1.0
C      1  0.4547210000000  0.4951240000000  0.5181390000000 1.0
C      1  0.4478070000000  0.5130240000000  0.5402260000000 1.0
C      1  0.4432210000000  0.5394180000000  0.5335340000000 1.0
C      1  0.4440590000000  0.5515460000000  0.5063750000000 1.0
C      1  0.4465140000000  0.5463670000000  0.4796840000000 1.0
C      1  0.4486860000000  0.5261700000000  0.4577160000000 1.0
C      1  0.4498920000000  0.5001040000000  0.4489760000000 1.0
C      1  0.4497650000000  0.4711240000000  0.4551170000000 1.0
C      1  0.4494990000000  0.4518620000000  0.4745030000000 1.0
C      1  0.4506360000000  0.4482240000000  0.5035510000000 1.0
C      1  0.4538370000000  0.4665670000000  0.5236210000000 1.0
C      1  0.5403410000000  0.5078780000000  0.4296230000000 1.0
C      1  0.5410220000000  0.4570070000000  0.4419980000000 1.0
C      1  0.5409820000000  0.4376430000000  0.4629090000000 1.0
C      1  0.5415700000000  0.4273910000000  0.5136200000000 1.0
C      1  0.5402470000000  0.4383360000000  0.5390940000000 1.0
C      1  0.5250400000000  0.4713990000000  0.5638570000000 1.0
C      1  0.5321390000000  0.5236140000000  0.5699780000000 1.0
C      1  0.5337090000000  0.5477750000000  0.5551630000000 1.0
C      1  0.5359910000000  0.5701430000000  0.5084250000000 1.0
C      1  0.5372910000000  0.5669870000000  0.4801550000000 1.0
C      1  0.5392460000000  0.5345190000000  0.4394110000000 1.0
C      1  0.5584770000000  0.5281380000000  0.4611630000000 1.0
C      1  0.5600410000000  0.5002830000000  0.4507770000000 1.0
C      1  0.5608490000000  0.4737710000000  0.4567410000000 1.0
C      1  0.5607520000000  0.4537300000000  0.4784910000000 1.0
C      1  0.5611490000000  0.4499750000000  0.5054650000000 1.0
C      1  0.5575070000000  0.4612290000000  0.5323970000000 1.0
C      1  0.5482530000000  0.4823280000000  0.5493070000000 1.0
C      1  0.5509140000000  0.5100040000000  0.5515290000000 1.0
C      1  0.5538650000000  0.5353970000000  0.5364490000000 1.0
C      1  0.5553040000000  0.5475990000000  0.5121990000000 1.0
C      1  0.5567110000000  0.5445430000000  0.4827760000000 1.0
C      1  0.4937990000000  0.4522060000000  0.4373220000000 1.0
C      1  0.4935900000000  0.4329560000000  0.4584100000000 1.0
C      1  0.4926280000000  0.4254810000000  0.5163670000000 1.0
C      1  0.4918950000000  0.4411400000000  0.5408690000000 1.0
C      1  0.4845720000000  0.4730100000000  0.5899570000000 1.0
C      1  0.4842990000000  0.5255270000000  0.5702970000000 1.0
C      1  0.4856660000000  0.5509430000000  0.5573730000000 1.0
C      1  0.4888950000000  0.5766050000000  0.5055640000000 1.0
C      1  0.4902860000000  0.5735280000000  0.4772820000000 1.0
C      1  0.4924410000000  0.5358850000000  0.4324060000000 1.0
C      1  0.4932470000000  0.5090180000000  0.4231450000000 1.0
C      1  0.4640580000000  0.5067540000000  0.5625230000000 1.0
C      1  0.4626620000000  0.5585280000000  0.5434680000000 1.0
C      1  0.4643060000000  0.5704950000000  0.5172740000000 1.0
C      1  0.4674140000000  0.5625950000000  0.4658170000000 1.0
C      1  0.4687700000000  0.5437620000000  0.4445780000000 1.0
C      1  0.4701180000000  0.4944910000000  0.4277630000000 1.0
C      1  0.4702730000000  0.4667420000000  0.4340440000000 1.0
C      1  0.4697680000000  0.4303290000000  0.4724650000000 1.0
C      1  0.4696520000000  0.4263280000000  0.5009960000000 1.0
C      1  0.4702980000000  0.4592630000000  0.5456390000000 1.0
C      1  0.4712500000000  0.4788300000000  0.5666230000000 1.0
C      1  0.5088060000000  0.4895100000000  0.4898680000000 1.0
C      1  0.5034250000000  0.5109820000000  0.5039450000000 1.0
C      1  0.4781890000000  0.5067860000000  0.5084540000000 1.0
END
