TITL C-36744-7472-11 -0.326317415983701 125000 -1288.37989225237 0 0 186 (S8) n - 1
REM
REM in /rds/project/t2_vol4/rds-t2-cs072/BORA/CARBON/from-Arr/AIRSS/Generating-Clusters/GAP-ML-2020/Higher-Symm/SD-CG/HFTN-CG
REM
REM
REM
REM
REM
REM ./C.cell (b20cbc046b6831c77cfcea5457e17084)
REM AIRSS Version 0.9.1 bugfix July 2018 build 013d7b7c2542+ Fri, 06 Jul 2018 19:26:36 +0100
REM compiler GCC version 9.3.0
REM options -cpp -mtune=generic -march=x86-64 -g -O0
REM seed -1186368400 -1043688667 1665833531 1873819767 -1703796795 -597483841 2031100020 -1708066218 -1345520453 1240522823 1986170703 -1849061746 -1020346659 -263352489 53980309 699915753 731737441 -1870843897 982080206 240207447 -970656427 -604687278 -1124872961 -3321021 1577306387 1667950054 -711165270 1391671727 -1809591658 -1628830146 -953188486 969135398 1199930645
REM
CELL 1.54180   50.00000   50.00000   50.00000   90.00000   90.00000   90.00000
LATT -1
SFAC C  
C      1  0.4539200000000  0.4905820000000  0.4061150000000 1.0
C      1  0.5460940000000  0.5594970000000  0.4268620000000 1.0
C      1  0.4539310000000  0.5935810000000  0.4902660000000 1.0
C      1  0.5460900000000  0.5728240000000  0.5591980000000 1.0
C      1  0.4539150000000  0.5094290000000  0.5932660000000 1.0
C      1  0.5460720000000  0.4404890000000  0.5725250000000 1.0
C      1  0.4539040000000  0.4064300000000  0.5091140000000 1.0
C      1  0.5460750000000  0.4271610000000  0.4401900000000 1.0
C      1  0.5308560000000  0.5010310000000  0.5956400000000 1.0
C      1  0.4691290000000  0.4328910000000  0.5682680000000 1.0
C      1  0.5308460000000  0.4040480000000  0.5007290000000 1.0
C      1  0.4691340000000  0.4314260000000  0.4325780000000 1.0
C      1  0.5308630000000  0.4989590000000  0.4037460000000 1.0
C      1  0.4691530000000  0.5671160000000  0.4311130000000 1.0
C      1  0.5308730000000  0.5959420000000  0.4986570000000 1.0
C      1  0.4691470000000  0.5685810000000  0.5668030000000 1.0
C      1  0.5359120000000  0.5862680000000  0.4348970000000 1.0
C      1  0.4641170000000  0.6068270000000  0.5148780000000 1.0
C      1  0.5359030000000  0.5647900000000  0.5859680000000 1.0
C      1  0.4640970000000  0.4848170000000  0.6065130000000 1.0
C      1  0.5358830000000  0.4137200000000  0.5644890000000 1.0
C      1  0.4640890000000  0.3931810000000  0.4845030000000 1.0
C      1  0.5358920000000  0.4351980000000  0.4134190000000 1.0
C      1  0.4641090000000  0.5151920000000  0.3928680000000 1.0
C      1  0.5076060000000  0.4412690000000  0.4132500000000 1.0
C      1  0.4923960000000  0.5195970000000  0.3970400000000 1.0
C      1  0.5076250000000  0.5864410000000  0.4409630000000 1.0
C      1  0.4924030000000  0.6026520000000  0.5192880000000 1.0
C      1  0.5076150000000  0.5587270000000  0.5861350000000 1.0
C      1  0.4923830000000  0.4804040000000  0.6023430000000 1.0
C      1  0.5075960000000  0.4135550000000  0.5584210000000 1.0
C      1  0.4923760000000  0.3973480000000  0.4800950000000 1.0
C      1  0.5872480000000  0.4636730000000  0.5381450000000 1.0
C      1  0.4127380000000  0.4471450000000  0.5011990000000 1.0
C      1  0.5872510000000  0.4615370000000  0.4633820000000 1.0
C      1  0.4127470000000  0.4985010000000  0.4468230000000 1.0
C      1  0.5872610000000  0.5363010000000  0.4612450000000 1.0
C      1  0.4127530000000  0.5528770000000  0.4981780000000 1.0
C      1  0.5872580000000  0.5384370000000  0.5360090000000 1.0
C      1  0.4127440000000  0.5015220000000  0.5525540000000 1.0
C      1  0.4056490000000  0.4834390000000  0.4709690000000 1.0
C      1  0.5943520000000  0.5085740000000  0.4676690000000 1.0
C      1  0.4056550000000  0.5287310000000  0.4831150000000 1.0
C      1  0.5943530000000  0.5320130000000  0.5082840000000 1.0
C      1  0.4056520000000  0.5165860000000  0.5284070000000 1.0
C      1  0.5943470000000  0.4913980000000  0.5317220000000 1.0
C      1  0.4056460000000  0.4712930000000  0.5162620000000 1.0
C      1  0.5943450000000  0.4679590000000  0.4911070000000 1.0
C      1  0.4933580000000  0.5624010000000  0.4833080000000 1.0
C      1  0.5066580000000  0.5557070000000  0.5322320000000 1.0
C      1  0.4933480000000  0.5163830000000  0.5620930000000 1.0
C      1  0.5066450000000  0.4674590000000  0.5554010000000 1.0
C      1  0.4933390000000  0.4375990000000  0.5160750000000 1.0
C      1  0.5066450000000  0.4442890000000  0.4671530000000 1.0
C      1  0.4933490000000  0.4836170000000  0.4372910000000 1.0
C      1  0.5066580000000  0.5325380000000  0.4439830000000 1.0
C      1  0.4477940000000  0.5721340000000  0.5437170000000 1.0
C      1  0.5522140000000  0.5198620000000  0.5818280000000 1.0
C      1  0.4477760000000  0.4559790000000  0.5718170000000 1.0
C      1  0.5522030000000  0.4178580000000  0.5195640000000 1.0
C      1  0.4477770000000  0.4278790000000  0.4556620000000 1.0
C      1  0.5522150000000  0.4801220000000  0.4175600000000 1.0
C      1  0.4477940000000  0.5440340000000  0.4275620000000 1.0
C      1  0.5522270000000  0.5821260000000  0.4798240000000 1.0
C      1  0.4952610000000  0.4816150000000  0.5309340000000 1.0
C      1  0.5047300000000  0.4649070000000  0.5087840000000 1.0
C      1  0.4952610000000  0.4687580000000  0.4813070000000 1.0
C      1  0.5047360000000  0.4909070000000  0.4646010000000 1.0
C      1  0.4952680000000  0.5183840000000  0.4684500000000 1.0
C      1  0.5047410000000  0.5350900000000  0.4906000000000 1.0
C      1  0.4952680000000  0.5312420000000  0.5180760000000 1.0
C      1  0.5047360000000  0.5090900000000  0.5347830000000 1.0
C      1  0.5324230000000  0.5968200000000  0.5471480000000 1.0
C      1  0.4675900000000  0.5349140000000  0.6017120000000 1.0
C      1  0.5324010000000  0.4525400000000  0.5965190000000 1.0
C      1  0.4675730000000  0.3979820000000  0.5346010000000 1.0
C      1  0.5324000000000  0.4031690000000  0.4522380000000 1.0
C      1  0.4675880000000  0.4650930000000  0.3976690000000 1.0
C      1  0.5324210000000  0.5474500000000  0.4028680000000 1.0
C      1  0.4676040000000  0.6020250000000  0.4647800000000 1.0
C      1  0.4283570000000  0.5433280000000  0.5736480000000 1.0
C      1  0.5716400000000  0.4783240000000  0.5826230000000 1.0
C      1  0.4283420000000  0.4260500000000  0.5430080000000 1.0
C      1  0.5716360000000  0.4170610000000  0.4780290000000 1.0
C      1  0.4283500000000  0.4566900000000  0.4257300000000 1.0
C      1  0.5716530000000  0.5216550000000  0.4167670000000 1.0
C      1  0.4283650000000  0.5739680000000  0.4563700000000 1.0
C      1  0.5716570000000  0.5829170000000  0.5213600000000 1.0
C      1  0.4231020000000  0.4434820000000  0.4503090000000 1.0
C      1  0.5768940000000  0.4949340000000  0.4248070000000 1.0
C      1  0.4231170000000  0.5493900000000  0.4431610000000 1.0
C      1  0.5769030000000  0.5748770000000  0.4946410000000 1.0
C      1  0.4231140000000  0.5565380000000  0.5490690000000 1.0
C      1  0.5768900000000  0.5050430000000  0.5745830000000 1.0
C      1  0.4230990000000  0.4506300000000  0.5562170000000 1.0
C      1  0.5768820000000  0.4251000000000  0.5047490000000 1.0
C      1  0.5035520000000  0.3970240000000  0.4534530000000 1.0
C      1  0.4964340000000  0.4598820000000  0.3941810000000 1.0
C      1  0.5035750000000  0.5462380000000  0.3967170000000 1.0
C      1  0.4964520000000  0.6055100000000  0.4595740000000 1.0
C      1  0.5035770000000  0.6029740000000  0.5459310000000 1.0
C      1  0.4964370000000  0.5401180000000  0.6052020000000 1.0
C      1  0.5035540000000  0.4537590000000  0.6026670000000 1.0
C      1  0.4964200000000  0.3944890000000  0.5398100000000 1.0
C      1  0.5898960000000  0.4496380000000  0.5127030000000 1.0
C      1  0.4100910000000  0.4552120000000  0.4732840000000 1.0
C      1  0.5899040000000  0.4869800000000  0.4493470000000 1.0
C      1  0.4101010000000  0.5264160000000  0.4548890000000 1.0
C      1  0.5899110000000  0.5503350000000  0.4866880000000 1.0
C      1  0.4101010000000  0.5448110000000  0.5260930000000 1.0
C      1  0.5899040000000  0.5129940000000  0.5500440000000 1.0
C      1  0.4100910000000  0.4736070000000  0.5444880000000 1.0
C      1  0.4552000000000  0.5345410000000  0.4900730000000 1.0
C      1  0.5448080000000  0.5312140000000  0.5173130000000 1.0
C      1  0.4551950000000  0.5096230000000  0.5342260000000 1.0
C      1  0.5448010000000  0.4823730000000  0.5309140000000 1.0
C      1  0.4551900000000  0.4654700000000  0.5093080000000 1.0
C      1  0.5448010000000  0.4687720000000  0.4820740000000 1.0
C      1  0.4551950000000  0.4903880000000  0.4651550000000 1.0
C      1  0.5448090000000  0.5176130000000  0.4684730000000 1.0
C      1  0.4935720000000  0.5615350000000  0.4485520000000 1.0
C      1  0.5064490000000  0.5796710000000  0.5070430000000 1.0
C      1  0.4935670000000  0.5511390000000  0.5612260000000 1.0
C      1  0.5064340000000  0.4926480000000  0.5793640000000 1.0
C      1  0.4935510000000  0.4384660000000  0.5508310000000 1.0
C      1  0.5064270000000  0.4203260000000  0.4923420000000 1.0
C      1  0.4935570000000  0.4488610000000  0.4381570000000 1.0
C      1  0.5064420000000  0.5073490000000  0.4200200000000 1.0
C      1  0.5466070000000  0.4769010000000  0.5992080000000 1.0
C      1  0.4533710000000  0.4133100000000  0.5537290000000 1.0
C      1  0.5466020000000  0.4004780000000  0.4766020000000 1.0
C      1  0.4533810000000  0.4459670000000  0.4129940000000 1.0
C      1  0.5466220000000  0.5230840000000  0.4001790000000 1.0
C      1  0.4534000000000  0.5867010000000  0.4456510000000 1.0
C      1  0.5466270000000  0.5995070000000  0.5227850000000 1.0
C      1  0.4533900000000  0.5540450000000  0.5863860000000 1.0
C      1  0.4268670000000  0.4239370000000  0.5149830000000 1.0
C      1  0.5731150000000  0.4353830000000  0.4567180000000 1.0
C      1  0.4268790000000  0.4847150000000  0.4236170000000 1.0
C      1  0.5731310000000  0.5429660000000  0.4350890000000 1.0
C      1  0.4268890000000  0.5760820000000  0.4843950000000 1.0
C      1  0.5731290000000  0.5645950000000  0.5426710000000 1.0
C      1  0.4268770000000  0.5153040000000  0.5757610000000 1.0
C      1  0.5731140000000  0.4570120000000  0.5643010000000 1.0
C      1  0.5364970000000  0.4420260000000  0.5258700000000 1.0
C      1  0.4634860000000  0.4405050000000  0.4772110000000 1.0
C      1  0.5365050000000  0.4738180000000  0.4417250000000 1.0
C      1  0.4634990000000  0.5224840000000  0.4401910000000 1.0
C      1  0.5365160000000  0.5579620000000  0.4735170000000 1.0
C      1  0.4635010000000  0.5595030000000  0.5221700000000 1.0
C      1  0.5365080000000  0.5261710000000  0.5576610000000 1.0
C      1  0.4634880000000  0.4775240000000  0.5591900000000 1.0
C      1  0.4563540000000  0.4589240000000  0.6004830000000 1.0
C      1  0.5436210000000  0.3996730000000  0.5419160000000 1.0
C      1  0.4563510000000  0.3992120000000  0.4586090000000 1.0
C      1  0.5436340000000  0.4577710000000  0.3993730000000 1.0
C      1  0.4563730000000  0.5410870000000  0.3988970000000 1.0
C      1  0.5436520000000  0.6003140000000  0.4574710000000 1.0
C      1  0.4563760000000  0.6007980000000  0.5407720000000 1.0
C      1  0.5436380000000  0.5422150000000  0.6000140000000 1.0
C      1  0.4655430000000  0.5183060000000  0.4696130000000 1.0
C      1  0.5344660000000  0.5342040000000  0.4913660000000 1.0
C      1  0.4655430000000  0.5300820000000  0.5179920000000 1.0
C      1  0.5344600000000  0.5083210000000  0.5339030000000 1.0
C      1  0.4655360000000  0.4817020000000  0.5297680000000 1.0
C      1  0.5344550000000  0.4657850000000  0.5080200000000 1.0
C      1  0.4655360000000  0.4699260000000  0.4813890000000 1.0
C      1  0.5344610000000  0.4916670000000  0.4654840000000 1.0
C      1  0.4785680000000  0.4403550000000  0.5973570000000 1.0
C      1  0.5214040000000  0.3887590000000  0.5265760000000 1.0
C      1  0.4785680000000  0.4023360000000  0.4400440000000 1.0
C      1  0.5214210000000  0.4731130000000  0.3884550000000 1.0
C      1  0.4785920000000  0.5596490000000  0.4020250000000 1.0
C      1  0.5214370000000  0.6112340000000  0.4728090000000 1.0
C      1  0.4785910000000  0.5976680000000  0.5593380000000 1.0
C      1  0.5214200000000  0.5268800000000  0.6109300000000 1.0
C      1  0.5354920000000  0.4596450000000  0.5497940000000 1.0
C      1  0.4644920000000  0.4360460000000  0.5065860000000 1.0
C      1  0.5354940000000  0.4498940000000  0.4593440000000 1.0
C      1  0.4645020000000  0.4931090000000  0.4357330000000 1.0
C      1  0.5355070000000  0.5403440000000  0.4495930000000 1.0
C      1  0.4645100000000  0.5639620000000  0.4927950000000 1.0
C      1  0.5355040000000  0.5500950000000  0.5400430000000 1.0
C      1  0.4644990000000  0.5068990000000  0.5636480000000 1.0
C      1  0.5960900000000  0.4999860000000  0.4996960000000 1.0
C      1  0.4039100000000  0.5000120000000  0.4996880000000 1.0
END
