TITL C-36768-8615-7 -0.115718099140169 125000 -508.199980969324 0 0 73 (C1) n - 1
REM
REM in /rds/project/t2_vol4/rds-t2-cs072/BORA/CARBON/from-Arr/AIRSS/Generating-Clusters/GAP-ML-2020/Higher-Symm/SD-CG/HFTN-CG
REM
REM
REM
REM
REM
REM ./C.cell (b20cbc046b6831c77cfcea5457e17084)
REM AIRSS Version 0.9.1 bugfix July 2018 build 013d7b7c2542+ Fri, 06 Jul 2018 19:26:36 +0100
REM compiler GCC version 9.3.0
REM options -cpp -mtune=generic -march=x86-64 -g -O0
REM seed 616161899 -963000002 -778730067 765483825 -2068029828 -881597510 172158287 -762339933 937206451 1126757211 1569539316 -2054634738 -763228135 -1663293121 1236416224 -873599304 1692222053 -353787914 -1731582360 -1911695651 1488294335 -1037175267 -820543916 314698057 -1221915705 -1163679640 1859936468 1260198166 88375190 229277082 -1589738666 -1724346172 1690561741
REM
CELL 1.54180   50.00000   50.00000   50.00000   90.00000   90.00000   90.00000
LATT -1
SFAC C  
C      1  0.5147650000000  0.5391560000000  0.5511510000000 1.0
C      1  0.5526860000000  0.5371460000000  0.4975860000000 1.0
C      1  0.5188410000000  0.5425460000000  0.4406120000000 1.0
C      1  0.4589420000000  0.5379840000000  0.4665990000000 1.0
C      1  0.4569420000000  0.5383890000000  0.5282240000000 1.0
C      1  0.5145300000000  0.4653520000000  0.4476230000000 1.0
C      1  0.5528340000000  0.4646070000000  0.5020600000000 1.0
C      1  0.5166570000000  0.4626990000000  0.5532740000000 1.0
C      1  0.4583000000000  0.4655020000000  0.5339880000000 1.0
C      1  0.4560270000000  0.4652080000000  0.4723240000000 1.0
C      1  0.4469680000000  0.5626170000000  0.5115650000000 1.0
C      1  0.4958470000000  0.5617410000000  0.5539280000000 1.0
C      1  0.5500310000000  0.5602060000000  0.5193710000000 1.0
C      1  0.5369790000000  0.5634490000000  0.4542970000000 1.0
C      1  0.4719190000000  0.5621290000000  0.4508340000000 1.0
C      1  0.4454550000000  0.4416620000000  0.4897260000000 1.0
C      1  0.4946280000000  0.4435970000000  0.4440700000000 1.0
C      1  0.5487180000000  0.4424880000000  0.4801330000000 1.0
C      1  0.5366420000000  0.4395730000000  0.5454980000000 1.0
C      1  0.4707550000000  0.4415630000000  0.5507540000000 1.0
C      1  0.5149030000000  0.4201660000000  0.5480700000000 1.0
C      1  0.5454870000000  0.4221500000000  0.5004900000000 1.0
C      1  0.5144100000000  0.4231540000000  0.4514030000000 1.0
C      1  0.4611920000000  0.4223990000000  0.4748460000000 1.0
C      1  0.4614520000000  0.4222540000000  0.5313720000000 1.0
C      1  0.5156930000000  0.5834300000000  0.4540620000000 1.0
C      1  0.5471540000000  0.5808920000000  0.4991730000000 1.0
C      1  0.5145280000000  0.5819080000000  0.5444670000000 1.0
C      1  0.4619560000000  0.5825390000000  0.5264120000000 1.0
C      1  0.4634950000000  0.5820110000000  0.4704810000000 1.0
C      1  0.4800490000000  0.6004200000000  0.5142010000000 1.0
C      1  0.5081530000000  0.5999100000000  0.5238760000000 1.0
C      1  0.5256200000000  0.5994320000000  0.4999700000000 1.0
C      1  0.5086530000000  0.5992690000000  0.4761920000000 1.0
C      1  0.4809140000000  0.5994830000000  0.4847710000000 1.0
C      1  0.4783270000000  0.4044360000000  0.4882450000000 1.0
C      1  0.5144410000000  0.3961720000000  0.4524170000000 1.0
C      1  0.5232860000000  0.4049330000000  0.5019600000000 1.0
C      1  0.5069990000000  0.4051120000000  0.5257760000000 1.0
C      1  0.4794780000000  0.4058050000000  0.5171730000000 1.0
C      1  0.5701250000000  0.4884570000000  0.5004190000000 1.0
C      1  0.5092200000000  0.4931490000000  0.4505530000000 1.0
C      1  0.4429100000000  0.4895200000000  0.4618900000000 1.0
C      1  0.4437020000000  0.4893770000000  0.5418480000000 1.0
C      1  0.5193430000000  0.4889670000000  0.5614800000000 1.0
C      1  0.5696840000000  0.5133410000000  0.4991230000000 1.0
C      1  0.5102620000000  0.5109550000000  0.5486110000000 1.0
C      1  0.4442680000000  0.5143750000000  0.5388540000000 1.0
C      1  0.4438210000000  0.5143960000000  0.4592480000000 1.0
C      1  0.5179250000000  0.5163100000000  0.4395860000000 1.0
C      1  0.4701890000000  0.5620110000000  0.5446160000000 1.0
C      1  0.5341220000000  0.5601000000000  0.5417550000000 1.0
C      1  0.5514920000000  0.5618110000000  0.4775150000000 1.0
C      1  0.4975560000000  0.5642340000000  0.4416590000000 1.0
C      1  0.4482820000000  0.5618150000000  0.4845540000000 1.0
C      1  0.4696820000000  0.4422280000000  0.4557960000000 1.0
C      1  0.5339880000000  0.4447720000000  0.4566690000000 1.0
C      1  0.5514920000000  0.4401870000000  0.5224310000000 1.0
C      1  0.4966070000000  0.4397270000000  0.5595190000000 1.0
C      1  0.4461090000000  0.4422140000000  0.5169400000000 1.0
C      1  0.4741360000000  0.5208220000000  0.5111340000000 1.0
C      1  0.4941080000000  0.5032630000000  0.5218460000000 1.0
C      1  0.5273950000000  0.5246130000000  0.4923390000000 1.0
C      1  0.5052000000000  0.5418570000000  0.4856670000000 1.0
C      1  0.4807660000000  0.5240280000000  0.4822430000000 1.0
C      1  0.4772550000000  0.4772250000000  0.4885960000000 1.0
C      1  0.4939120000000  0.4975810000000  0.4770330000000 1.0
C      1  0.5266800000000  0.4754650000000  0.5062480000000 1.0
C      1  0.5080460000000  0.4619310000000  0.5221180000000 1.0
C      1  0.4822600000000  0.4755810000000  0.5172560000000 1.0
C      1  0.4996360000000  0.5583430000000  0.5046250000000 1.0
C      1  0.5058000000000  0.4013710000000  0.4790480000000 1.0
C      1  0.5149640000000  0.5003010000000  0.4993760000000 1.0
END
