TITL C-36743-7567-5 0.121766477108673 125000 -849.229354477184 0 0 123 (C1) n - 1
REM
REM in /rds/project/t2_vol4/rds-t2-cs072/BORA/CARBON/from-Arr/AIRSS/Generating-Clusters/GAP-ML-2020/Higher-Symm/SD-CG/HFTN-CG
REM
REM
REM
REM
REM
REM ./C.cell (b20cbc046b6831c77cfcea5457e17084)
REM AIRSS Version 0.9.1 bugfix July 2018 build 013d7b7c2542+ Fri, 06 Jul 2018 19:26:36 +0100
REM compiler GCC version 9.3.0
REM options -cpp -mtune=generic -march=x86-64 -g -O0
REM seed 1878482295 95977771 90194907 -577073005 -1198116536 52890352 537158395 -696062406 700860948 -622589105 -755783375 -396036655 -522274417 -1935782938 1566620477 65150709 -1657210714 -96947196 630265262 -1268475248 -156144124 2071241681 823583453 1427022481 384945083 1730469019 -927946107 1051875085 696543376 766859279 809090559 -1838267663 -195544549
REM
CELL 1.54180   50.00000   50.00000   50.00000   90.00000   90.00000   90.00000
LATT -1
SFAC C  
C      1  0.5966980000000  0.4749710000000  0.4908410000000 1.0
C      1  0.5964820000000  0.5072370000000  0.4744470000000 1.0
C      1  0.5963160000000  0.5251580000000  0.4971570000000 1.0
C      1  0.5965650000000  0.5106570000000  0.5227210000000 1.0
C      1  0.5980580000000  0.4814120000000  0.5189850000000 1.0
C      1  0.5041130000000  0.4763020000000  0.5002280000000 1.0
C      1  0.5016870000000  0.4939600000000  0.4766590000000 1.0
C      1  0.4947390000000  0.5202960000000  0.4878160000000 1.0
C      1  0.4815110000000  0.5157120000000  0.5136030000000 1.0
C      1  0.5009330000000  0.4955940000000  0.5235960000000 1.0
C      1  0.3757950000000  0.4751010000000  0.4933260000000 1.0
C      1  0.3754760000000  0.4984900000000  0.4750950000000 1.0
C      1  0.3751900000000  0.5230900000000  0.4917120000000 1.0
C      1  0.3752300000000  0.5147850000000  0.5202440000000 1.0
C      1  0.3756240000000  0.4850900000000  0.5212100000000 1.0
C      1  0.5648440000000  0.4866180000000  0.4422030000000 1.0
C      1  0.5623510000000  0.5491570000000  0.4712200000000 1.0
C      1  0.5621900000000  0.5427600000000  0.5383200000000 1.0
C      1  0.5661920000000  0.4765050000000  0.5564550000000 1.0
C      1  0.5669460000000  0.4382630000000  0.4967930000000 1.0
C      1  0.5808260000000  0.5211380000000  0.5437620000000 1.0
C      1  0.5838260000000  0.4643450000000  0.5363660000000 1.0
C      1  0.5833480000000  0.4534330000000  0.4784600000000 1.0
C      1  0.5815220000000  0.5091360000000  0.4509570000000 1.0
C      1  0.5801030000000  0.5479680000000  0.4936990000000 1.0
C      1  0.5306910000000  0.5249280000000  0.5960580000000 1.0
C      1  0.5326150000000  0.4156440000000  0.5550700000000 1.0
C      1  0.5315850000000  0.4230280000000  0.4380330000000 1.0
C      1  0.5311870000000  0.5380970000000  0.4062570000000 1.0
C      1  0.5301080000000  0.5990370000000  0.5066120000000 1.0
C      1  0.4927470000000  0.4521150000000  0.4576810000000 1.0
C      1  0.4914550000000  0.5263780000000  0.4410510000000 1.0
C      1  0.4896050000000  0.5635970000000  0.5070590000000 1.0
C      1  0.4905070000000  0.5134680000000  0.5635970000000 1.0
C      1  0.4926360000000  0.4446060000000  0.5328760000000 1.0
C      1  0.4066970000000  0.4738570000000  0.4928890000000 1.0
C      1  0.4063360000000  0.4987590000000  0.4733460000000 1.0
C      1  0.4061650000000  0.5249730000000  0.4912580000000 1.0
C      1  0.4062490000000  0.5162280000000  0.5216620000000 1.0
C      1  0.4065540000000  0.4845630000000  0.5227480000000 1.0
C      1  0.4859410000000  0.4294800000000  0.5719840000000 1.0
C      1  0.4847550000000  0.4104010000000  0.4555290000000 1.0
C      1  0.4845110000000  0.5154570000000  0.4007020000000 1.0
C      1  0.4840720000000  0.5990340000000  0.4842610000000 1.0
C      1  0.4849020000000  0.5463150000000  0.5894060000000 1.0
C      1  0.4261830000000  0.4526740000000  0.4873030000000 1.0
C      1  0.4256460000000  0.4975800000000  0.4511740000000 1.0
C      1  0.4251410000000  0.5459770000000  0.4831900000000 1.0
C      1  0.4247940000000  0.5307370000000  0.5390960000000 1.0
C      1  0.4257110000000  0.4725400000000  0.5415810000000 1.0
C      1  0.4978350000000  0.5613490000000  0.5697910000000 1.0
C      1  0.4988350000000  0.4520520000000  0.5820450000000 1.0
C      1  0.4980230000000  0.4071630000000  0.4801150000000 1.0
C      1  0.4979720000000  0.4913650000000  0.4056120000000 1.0
C      1  0.4976540000000  0.5865880000000  0.4631710000000 1.0
C      1  0.4920970000000  0.5006330000000  0.5915140000000 1.0
C      1  0.4940430000000  0.4143540000000  0.5292120000000 1.0
C      1  0.4942940000000  0.4465120000000  0.4274740000000 1.0
C      1  0.4928910000000  0.5531950000000  0.4264380000000 1.0
C      1  0.4926700000000  0.5855610000000  0.5273070000000 1.0
C      1  0.5351240000000  0.5299380000000  0.5466250000000 1.0
C      1  0.5393710000000  0.4637910000000  0.5487080000000 1.0
C      1  0.5389860000000  0.4411740000000  0.4834720000000 1.0
C      1  0.5378330000000  0.5031280000000  0.4398550000000 1.0
C      1  0.5355620000000  0.5540510000000  0.4858510000000 1.0
C      1  0.4648400000000  0.5313080000000  0.5665160000000 1.0
C      1  0.4670910000000  0.4477180000000  0.5498920000000 1.0
C      1  0.4672720000000  0.4366990000000  0.4659820000000 1.0
C      1  0.4663040000000  0.5133280000000  0.4291730000000 1.0
C      1  0.4649360000000  0.5723020000000  0.4909070000000 1.0
C      1  0.4413770000000  0.4490250000000  0.5349500000000 1.0
C      1  0.4415930000000  0.4515300000000  0.4627060000000 1.0
C      1  0.4406040000000  0.5208420000000  0.4424800000000 1.0
C      1  0.4394360000000  0.5620220000000  0.5026210000000 1.0
C      1  0.4399360000000  0.5169260000000  0.5598810000000 1.0
C      1  0.5307510000000  0.5050750000000  0.4721150000000 1.0
C      1  0.5263570000000  0.5248510000000  0.4953000000000 1.0
C      1  0.5285340000000  0.5093710000000  0.5234040000000 1.0
C      1  0.5417460000000  0.4823760000000  0.5231360000000 1.0
C      1  0.5338690000000  0.4693970000000  0.4982850000000 1.0
C      1  0.5683990000000  0.4596160000000  0.4526080000000 1.0
C      1  0.5673100000000  0.5344070000000  0.4472250000000 1.0
C      1  0.5664040000000  0.5601120000000  0.5166090000000 1.0
C      1  0.5683770000000  0.5037400000000  0.5635890000000 1.0
C      1  0.5700440000000  0.4409350000000  0.5250150000000 1.0
C      1  0.4673870000000  0.4325450000000  0.4961820000000 1.0
C      1  0.4671150000000  0.4833740000000  0.4343940000000 1.0
C      1  0.4653950000000  0.5582860000000  0.4635890000000 1.0
C      1  0.4643440000000  0.5535750000000  0.5450700000000 1.0
C      1  0.4672450000000  0.4746970000000  0.5633440000000 1.0
C      1  0.4825960000000  0.5771600000000  0.5518360000000 1.0
C      1  0.4829170000000  0.4744730000000  0.5901750000000 1.0
C      1  0.4832410000000  0.4070860000000  0.5045650000000 1.0
C      1  0.4832480000000  0.4676600000000  0.4128170000000 1.0
C      1  0.4824200000000  0.5735850000000  0.4423780000000 1.0
C      1  0.5048050000000  0.4122490000000  0.5547670000000 1.0
C      1  0.5040140000000  0.4212180000000  0.4338000000000 1.0
C      1  0.5031850000000  0.5398690000000  0.4043570000000 1.0
C      1  0.5025850000000  0.6031740000000  0.5081550000000 1.0
C      1  0.5031100000000  0.5244350000000  0.6001070000000 1.0
C      1  0.4389670000000  0.5536580000000  0.5299480000000 1.0
C      1  0.4413260000000  0.4885810000000  0.5591400000000 1.0
C      1  0.4418200000000  0.4408550000000  0.5079200000000 1.0
C      1  0.4416970000000  0.4745460000000  0.4463350000000 1.0
C      1  0.4402470000000  0.5438100000000  0.4591970000000 1.0
C      1  0.4919870000000  0.4500620000000  0.5035670000000 1.0
C      1  0.4922240000000  0.4816810000000  0.4528770000000 1.0
C      1  0.4894100000000  0.5395800000000  0.4680070000000 1.0
C      1  0.4860280000000  0.5414270000000  0.5273580000000 1.0
C      1  0.4927180000000  0.4871650000000  0.5497570000000 1.0
C      1  0.5471730000000  0.4395170000000  0.4537090000000 1.0
C      1  0.5463440000000  0.5287360000000  0.4271800000000 1.0
C      1  0.5445120000000  0.5757310000000  0.5054350000000 1.0
C      1  0.5450080000000  0.5188170000000  0.5735890000000 1.0
C      1  0.5478930000000  0.4354650000000  0.5436900000000 1.0
C      1  0.5099930000000  0.4624560000000  0.5542450000000 1.0
C      1  0.5095670000000  0.4358920000000  0.4816560000000 1.0
C      1  0.5091100000000  0.4993320000000  0.4333850000000 1.0
C      1  0.5073690000000  0.5616280000000  0.4796480000000 1.0
C      1  0.5064860000000  0.5376070000000  0.5508530000000 1.0
C      1  0.4625870000000  0.5004470000000  0.5009740000000 1.0
C      1  0.5756490000000  0.4944670000000  0.4889620000000 1.0
C      1  0.5490610000000  0.4877880000000  0.4834840000000 1.0
END
