TITL C-36755-7446-5 -0.041723178806971 125000 -506.816528686757 0 0 73 (C1) n - 1
REM
REM in /rds/project/t2_vol4/rds-t2-cs072/BORA/CARBON/from-Arr/AIRSS/Generating-Clusters/GAP-ML-2020/Higher-Symm/SD-CG/HFTN-CG
REM
REM
REM
REM
REM
REM ./C.cell (b20cbc046b6831c77cfcea5457e17084)
REM AIRSS Version 0.9.1 bugfix July 2018 build 013d7b7c2542+ Fri, 06 Jul 2018 19:26:36 +0100
REM compiler GCC version 9.3.0
REM options -cpp -mtune=generic -march=x86-64 -g -O0
REM seed -903501691 1230553198 742161370 -2088136724 264257857 2063375915 -559289013 -2044588860 1857849020 1868901088 -1913393951 1845527782 447250837 1672066818 -612164028 -1444285389 -61721746 1824112204 1666835832 -1112931373 -54144724 338449842 80564849 670928597 646385628 1974755944 1365049236 -917734684 151281104 636913046 813092013 -48747865 -899562865
REM
CELL 1.54180   50.00000   50.00000   50.00000   90.00000   90.00000   90.00000
LATT -1
SFAC C  
C      1  0.4845210000000  0.5244220000000  0.5650380000000 1.0
C      1  0.4512920000000  0.5257980000000  0.4545210000000 1.0
C      1  0.5640190000000  0.5252180000000  0.4815780000000 1.0
C      1  0.5011370000000  0.5249590000000  0.4714440000000 1.0
C      1  0.5248100000000  0.5258230000000  0.5166690000000 1.0
C      1  0.4740160000000  0.5237690000000  0.5136570000000 1.0
C      1  0.4829060000000  0.4771280000000  0.5742530000000 1.0
C      1  0.4421480000000  0.4805460000000  0.4427170000000 1.0
C      1  0.5736990000000  0.4774030000000  0.4812830000000 1.0
C      1  0.5202660000000  0.4356120000000  0.5028060000000 1.0
C      1  0.4912850000000  0.4320820000000  0.5020810000000 1.0
C      1  0.4807610000000  0.4334500000000  0.4756420000000 1.0
C      1  0.4801270000000  0.4846900000000  0.4816780000000 1.0
C      1  0.5265770000000  0.4878010000000  0.4923960000000 1.0
C      1  0.4958150000000  0.4868070000000  0.5275030000000 1.0
C      1  0.4976270000000  0.5006760000000  0.5758680000000 1.0
C      1  0.4346550000000  0.5020630000000  0.4584320000000 1.0
C      1  0.5674140000000  0.5002490000000  0.4662280000000 1.0
C      1  0.5755900000000  0.4794250000000  0.5102170000000 1.0
C      1  0.4592670000000  0.4748770000000  0.5583060000000 1.0
C      1  0.4670640000000  0.4815840000000  0.4271310000000 1.0
C      1  0.5344060000000  0.4422120000000  0.4772790000000 1.0
C      1  0.5159560000000  0.4387790000000  0.5721190000000 1.0
C      1  0.4535890000000  0.4425040000000  0.4762010000000 1.0
C      1  0.5368180000000  0.5752430000000  0.5084930000000 1.0
C      1  0.4732990000000  0.5742940000000  0.5292450000000 1.0
C      1  0.4878580000000  0.5747180000000  0.4644090000000 1.0
C      1  0.5254160000000  0.4989130000000  0.5738400000000 1.0
C      1  0.4256760000000  0.4962440000000  0.4846140000000 1.0
C      1  0.5495220000000  0.4957580000000  0.4449340000000 1.0
C      1  0.4931710000000  0.4515410000000  0.5651260000000 1.0
C      1  0.4483130000000  0.4545270000000  0.4520020000000 1.0
C      1  0.5598600000000  0.4521990000000  0.4838130000000 1.0
C      1  0.5585460000000  0.4992350000000  0.5495660000000 1.0
C      1  0.4303810000000  0.4948140000000  0.5253600000000 1.0
C      1  0.5125820000000  0.4959530000000  0.4272580000000 1.0
C      1  0.5613830000000  0.4542740000000  0.5130580000000 1.0
C      1  0.4694070000000  0.4496090000000  0.5469220000000 1.0
C      1  0.4736430000000  0.4549190000000  0.4364230000000 1.0
C      1  0.5199010000000  0.4963650000000  0.5184370000000 1.0
C      1  0.4759910000000  0.4943220000000  0.5075270000000 1.0
C      1  0.5054200000000  0.4951330000000  0.4754660000000 1.0
C      1  0.5423220000000  0.4778400000000  0.5615250000000 1.0
C      1  0.4297370000000  0.4740240000000  0.5042230000000 1.0
C      1  0.5302040000000  0.4741570000000  0.4382300000000 1.0
C      1  0.5275300000000  0.5387360000000  0.5444010000000 1.0
C      1  0.4482030000000  0.5367480000000  0.5026110000000 1.0
C      1  0.5240590000000  0.5371900000000  0.4548650000000 1.0
C      1  0.5328950000000  0.4519410000000  0.5530440000000 1.0
C      1  0.4461160000000  0.4503620000000  0.5026130000000 1.0
C      1  0.5214570000000  0.4507690000000  0.4528250000000 1.0
C      1  0.5567690000000  0.5240990000000  0.5087160000000 1.0
C      1  0.4649660000000  0.5209420000000  0.5452300000000 1.0
C      1  0.4786400000000  0.5232980000000  0.4481670000000 1.0
C      1  0.5382430000000  0.4442040000000  0.5249250000000 1.0
C      1  0.4682090000000  0.4411550000000  0.5198310000000 1.0
C      1  0.4938560000000  0.4438660000000  0.4521860000000 1.0
C      1  0.4970740000000  0.5684050000000  0.5416220000000 1.0
C      1  0.4651440000000  0.5681640000000  0.4786020000000 1.0
C      1  0.5361740000000  0.5682870000000  0.4819020000000 1.0
C      1  0.5686540000000  0.5028690000000  0.5238660000000 1.0
C      1  0.4472840000000  0.4981450000000  0.5474210000000 1.0
C      1  0.4853850000000  0.5024900000000  0.4297850000000 1.0
C      1  0.5482780000000  0.5451180000000  0.4700580000000 1.0
C      1  0.5015720000000  0.5453610000000  0.5578110000000 1.0
C      1  0.4489570000000  0.5452690000000  0.4740430000000 1.0
C      1  0.5415270000000  0.5195260000000  0.5611630000000 1.0
C      1  0.4275870000000  0.5159900000000  0.5059190000000 1.0
C      1  0.5314280000000  0.5162340000000  0.4354990000000 1.0
C      1  0.5133430000000  0.5670770000000  0.4618030000000 1.0
C      1  0.5261840000000  0.5680610000000  0.5320010000000 1.0
C      1  0.4585880000000  0.5665300000000  0.5085000000000 1.0
C      1  0.4996820000000  0.5343720000000  0.5006890000000 1.0
END
