TITL C-36764-7542-9 0.177025917585343 125000 -456.479685921356 0 0 69 (C1) n - 1
REM
REM in /rds/project/t2_vol4/rds-t2-cs072/BORA/CARBON/from-Arr/AIRSS/Generating-Clusters/GAP-ML-2020/Higher-Symm/SD-CG/HFTN-CG
REM
REM
REM
REM
REM
REM ./C.cell (b20cbc046b6831c77cfcea5457e17084)
REM AIRSS Version 0.9.1 bugfix July 2018 build 013d7b7c2542+ Fri, 06 Jul 2018 19:26:36 +0100
REM compiler GCC version 9.3.0
REM options -cpp -mtune=generic -march=x86-64 -g -O0
REM seed 772770055 1304062200 1583593316 2081175266 -2131998482 1118881957 -1850318725 1764299496 663799819 -209354661 -750710727 738316611 166519538 -1430873530 -851105828 739572566 -1432569067 1112680026 799144820 -511023297 -548057251 -994950392 181841609 -1428231489 -1871761787 255302771 -1539756162 -1181535173 -2102510876 580077913 -286622593 -2043572479 -894175244
REM
CELL 1.54180   50.00000   50.00000   50.00000   90.00000   90.00000   90.00000
LATT -1
SFAC C  
C      1  0.4928820000000  0.5774950000000  0.4655460000000 1.0
C      1  0.4774100000000  0.5789800000000  0.4899830000000 1.0
C      1  0.4870750000000  0.5658380000000  0.5346450000000 1.0
C      1  0.5229330000000  0.5810090000000  0.5029870000000 1.0
C      1  0.5221970000000  0.5779370000000  0.4738360000000 1.0
C      1  0.4926460000000  0.4191710000000  0.5204640000000 1.0
C      1  0.4731480000000  0.4174850000000  0.4973540000000 1.0
C      1  0.4856570000000  0.4120840000000  0.4709470000000 1.0
C      1  0.5276540000000  0.4127430000000  0.4845660000000 1.0
C      1  0.5223640000000  0.4174610000000  0.5136820000000 1.0
C      1  0.5527200000000  0.4604840000000  0.5147690000000 1.0
C      1  0.5399700000000  0.4590120000000  0.4483510000000 1.0
C      1  0.4656510000000  0.4557520000000  0.4508240000000 1.0
C      1  0.4374950000000  0.4726600000000  0.5205280000000 1.0
C      1  0.4998450000000  0.4703740000000  0.5671680000000 1.0
C      1  0.5655340000000  0.5214690000000  0.4781190000000 1.0
C      1  0.5401450000000  0.5501580000000  0.5383300000000 1.0
C      1  0.4576940000000  0.5356330000000  0.5554940000000 1.0
C      1  0.4414380000000  0.5427330000000  0.4804410000000 1.0
C      1  0.5010190000000  0.5250690000000  0.4374350000000 1.0
C      1  0.4564140000000  0.5235790000000  0.4629440000000 1.0
C      1  0.4484130000000  0.5243510000000  0.5292360000000 1.0
C      1  0.5067040000000  0.5207640000000  0.5628060000000 1.0
C      1  0.5548330000000  0.5177300000000  0.5072520000000 1.0
C      1  0.5226170000000  0.5226790000000  0.4570120000000 1.0
C      1  0.4624090000000  0.4772780000000  0.5358680000000 1.0
C      1  0.4537760000000  0.4732300000000  0.4722960000000 1.0
C      1  0.5143120000000  0.4743550000000  0.4437180000000 1.0
C      1  0.5687550000000  0.4702720000000  0.4913420000000 1.0
C      1  0.5237240000000  0.4758770000000  0.5505270000000 1.0
C      1  0.4391770000000  0.5448480000000  0.5082370000000 1.0
C      1  0.4822940000000  0.5340260000000  0.5685070000000 1.0
C      1  0.5595590000000  0.5435030000000  0.5199120000000 1.0
C      1  0.5483390000000  0.5373950000000  0.4615190000000 1.0
C      1  0.4758820000000  0.5380300000000  0.4431600000000 1.0
C      1  0.4402170000000  0.4568240000000  0.4963470000000 1.0
C      1  0.4901510000000  0.4557600000000  0.4379690000000 1.0
C      1  0.5574340000000  0.4558810000000  0.4683450000000 1.0
C      1  0.5448750000000  0.4569200000000  0.5438730000000 1.0
C      1  0.4774610000000  0.4578590000000  0.5533040000000 1.0
C      1  0.4839370000000  0.4896560000000  0.5186770000000 1.0
C      1  0.5131690000000  0.4855320000000  0.5230450000000 1.0
C      1  0.5252020000000  0.4668320000000  0.5063090000000 1.0
C      1  0.5066600000000  0.4806140000000  0.4754050000000 1.0
C      1  0.4797180000000  0.4853000000000  0.4880280000000 1.0
C      1  0.4812980000000  0.5157560000000  0.4869440000000 1.0
C      1  0.5113600000000  0.5113270000000  0.4834720000000 1.0
C      1  0.5250970000000  0.5112370000000  0.5119110000000 1.0
C      1  0.5179240000000  0.5303550000000  0.5360320000000 1.0
C      1  0.4767330000000  0.5200060000000  0.5160380000000 1.0
C      1  0.5437050000000  0.5682490000000  0.5182050000000 1.0
C      1  0.5430510000000  0.5642050000000  0.4625450000000 1.0
C      1  0.4802180000000  0.5648040000000  0.4448280000000 1.0
C      1  0.4529940000000  0.5642080000000  0.4927910000000 1.0
C      1  0.4738280000000  0.5586330000000  0.5572940000000 1.0
C      1  0.5340320000000  0.4386420000000  0.4710520000000 1.0
C      1  0.5421070000000  0.4355660000000  0.5260380000000 1.0
C      1  0.4846690000000  0.4341360000000  0.5417300000000 1.0
C      1  0.4494110000000  0.4313450000000  0.4979620000000 1.0
C      1  0.4802110000000  0.4323640000000  0.4497210000000 1.0
C      1  0.4456060000000  0.4977990000000  0.4606480000000 1.0
C      1  0.4387950000000  0.4963380000000  0.5330390000000 1.0
C      1  0.5155030000000  0.5024630000000  0.4353080000000 1.0
C      1  0.5116530000000  0.4945110000000  0.5708980000000 1.0
C      1  0.5715870000000  0.4987090000000  0.4909660000000 1.0
C      1  0.4949760000000  0.5410790000000  0.5233310000000 1.0
C      1  0.5132080000000  0.4542970000000  0.4854750000000 1.0
C      1  0.5087240000000  0.3979270000000  0.4714480000000 1.0
C      1  0.4954510000000  0.5803000000000  0.5120350000000 1.0
END
