TITL C-36743-7567-2 0.15335962489742 125000 -423.779340500622 0 0 62 (Cs) n - 1
REM
REM in /rds/project/t2_vol4/rds-t2-cs072/BORA/CARBON/from-Arr/AIRSS/Generating-Clusters/GAP-ML-2020/Higher-Symm/SD-CG/HFTN-CG
REM
REM
REM
REM
REM
REM ./C.cell (b20cbc046b6831c77cfcea5457e17084)
REM AIRSS Version 0.9.1 bugfix July 2018 build 013d7b7c2542+ Fri, 06 Jul 2018 19:26:36 +0100
REM compiler GCC version 9.3.0
REM options -cpp -mtune=generic -march=x86-64 -g -O0
REM seed 161053331 1997490151 1698823144 -890022102 -1616549976 -955156862 -107994829 -1664095002 530854885 -1740248953 -1048757539 -1116491474 1174782009 6217296 830759428 -1746769197 -158771431 -129465269 -764421893 2000216283 -175969956 -1975069395 812456122 1471705680 62043876 776708407 -102708089 97843286 -114559211 -63653761 -1350112167 -1883106985 -1885871421
REM
CELL 1.54180   50.00000   50.00000   50.00000   90.00000   90.00000   90.00000
LATT -1
SFAC C  
C      1  0.4967070000000  0.4368880000000  0.5254000000000 1.0
C      1  0.4758210000000  0.4359440000000  0.5054410000000 1.0
C      1  0.4870400000000  0.4363230000000  0.4792400000000 1.0
C      1  0.5147920000000  0.4386360000000  0.4825330000000 1.0
C      1  0.5205750000000  0.4453220000000  0.5110400000000 1.0
C      1  0.4967440000000  0.5651800000000  0.5254400000000 1.0
C      1  0.4758580000000  0.5661480000000  0.5054820000000 1.0
C      1  0.4870770000000  0.5657790000000  0.4792810000000 1.0
C      1  0.5148280000000  0.5634480000000  0.4825720000000 1.0
C      1  0.5206070000000  0.5567410000000  0.5110740000000 1.0
C      1  0.4749460000000  0.5164240000000  0.4913990000000 1.0
C      1  0.4977470000000  0.5164310000000  0.4731030000000 1.0
C      1  0.5229750000000  0.5155340000000  0.4894730000000 1.0
C      1  0.5272550000000  0.5168600000000  0.5418730000000 1.0
C      1  0.4863920000000  0.5161610000000  0.5182670000000 1.0
C      1  0.4749370000000  0.4856770000000  0.4913890000000 1.0
C      1  0.4977380000000  0.4856690000000  0.4730930000000 1.0
C      1  0.5229670000000  0.4865410000000  0.4894640000000 1.0
C      1  0.5272460000000  0.4851800000000  0.5418630000000 1.0
C      1  0.4863830000000  0.4859170000000  0.5182570000000 1.0
C      1  0.5527850000000  0.4722640000000  0.5357710000000 1.0
C      1  0.4703650000000  0.4717830000000  0.5431210000000 1.0
C      1  0.4475380000000  0.4710210000000  0.4879940000000 1.0
C      1  0.4916450000000  0.4711230000000  0.4464480000000 1.0
C      1  0.5455290000000  0.4717810000000  0.4741920000000 1.0
C      1  0.5528020000000  0.5297650000000  0.5357890000000 1.0
C      1  0.4703820000000  0.5302890000000  0.5431400000000 1.0
C      1  0.4475550000000  0.5310980000000  0.4880130000000 1.0
C      1  0.4916620000000  0.5309970000000  0.4464670000000 1.0
C      1  0.5455460000000  0.5302910000000  0.4742110000000 1.0
C      1  0.5200950000000  0.5357780000000  0.4413280000000 1.0
C      1  0.5624760000000  0.5367420000000  0.4968620000000 1.0
C      1  0.5083100000000  0.5305310000000  0.5600890000000 1.0
C      1  0.4450870000000  0.5356530000000  0.5297500000000 1.0
C      1  0.4520560000000  0.5358350000000  0.4595220000000 1.0
C      1  0.5200750000000  0.4663290000000  0.4413060000000 1.0
C      1  0.5624560000000  0.4653060000000  0.4968400000000 1.0
C      1  0.5082930000000  0.4715080000000  0.5600710000000 1.0
C      1  0.4450670000000  0.4664410000000  0.5297290000000 1.0
C      1  0.4520360000000  0.4663000000000  0.4595000000000 1.0
C      1  0.4648380000000  0.4874640000000  0.4426870000000 1.0
C      1  0.5403560000000  0.4874570000000  0.4476770000000 1.0
C      1  0.5683140000000  0.4872920000000  0.5162600000000 1.0
C      1  0.4846210000000  0.4875330000000  0.5653860000000 1.0
C      1  0.4338630000000  0.4873430000000  0.5113940000000 1.0
C      1  0.4648460000000  0.5146740000000  0.4426960000000 1.0
C      1  0.5403630000000  0.5146340000000  0.4476860000000 1.0
C      1  0.5683220000000  0.5147410000000  0.5162680000000 1.0
C      1  0.4846290000000  0.5145170000000  0.5653950000000 1.0
C      1  0.4338710000000  0.5147690000000  0.5114020000000 1.0
C      1  0.5302210000000  0.5527160000000  0.4626040000000 1.0
C      1  0.5485850000000  0.5521030000000  0.5169320000000 1.0
C      1  0.4909380000000  0.5509530000000  0.5480820000000 1.0
C      1  0.4514860000000  0.5532850000000  0.5076250000000 1.0
C      1  0.4751500000000  0.5530590000000  0.4576530000000 1.0
C      1  0.5301920000000  0.4493720000000  0.4625710000000 1.0
C      1  0.5485560000000  0.4499410000000  0.5169000000000 1.0
C      1  0.4909100000000  0.4511040000000  0.5480510000000 1.0
C      1  0.4514560000000  0.4488190000000  0.5075920000000 1.0
C      1  0.4751200000000  0.4490630000000  0.4576200000000 1.0
C      1  0.5141510000000  0.5255930000000  0.5151730000000 1.0
C      1  0.5141370000000  0.4764720000000  0.5151570000000 1.0
END
