TITL C-36741-8643-9 224.964235287827 125000 -1110.25544987075 0 0 161 (C3) n - 1
REM
REM in /rds/project/t2_vol4/rds-t2-cs072/BORA/CARBON/from-Arr/AIRSS/Generating-Clusters/GAP-ML-2020/Higher-Symm/SD-CG/HFTN-CG
REM
REM
REM
REM
REM
REM ./C.cell (b20cbc046b6831c77cfcea5457e17084)
REM AIRSS Version 0.9.1 bugfix July 2018 build 013d7b7c2542+ Fri, 06 Jul 2018 19:26:36 +0100
REM compiler GCC version 9.3.0
REM options -cpp -mtune=generic -march=x86-64 -g -O0
REM seed 935141254 232841043 312408786 -74647819 -1290786837 1309473177 -64588206 76567749 1945115685 -1352150785 169210392 1893401708 -1472243602 -1073555745 1812151729 610161400 800230441 54225914 -1570080748 -836763331 -1629601679 1270708968 400489630 -1405901257 1665154346 1419122694 1504289369 542350093 1290974109 -1995060030 -1261714473 -66412849 645545323
REM
CELL 1.54180   50.00000   50.00000   50.00000   90.00000   90.00000   90.00000
LATT -1
SFAC C  
C      1  0.4408690000000  0.5879310000000  0.4936250000000 1.0
C      1  0.5347410000000  0.5879300000000  0.4522140000000 1.0
C      1  0.5236670000000  0.5879310000000  0.5542150000000 1.0
C      1  0.5300360000000  0.4260700000000  0.4640030000000 1.0
C      1  0.5158100000000  0.4260710000000  0.5442500000000 1.0
C      1  0.4534270000000  0.4260710000000  0.4918060000000 1.0
C      1  0.5048610000000  0.5104360000000  0.6085540000000 1.0
C      1  0.4032130000000  0.5104350000000  0.4501700000000 1.0
C      1  0.5912010000000  0.5104340000000  0.4413320000000 1.0
C      1  0.4501940000000  0.5496390000000  0.4250920000000 1.0
C      1  0.5894290000000  0.5496400000000  0.4945570000000 1.0
C      1  0.4596540000000  0.5496410000000  0.5804060000000 1.0
C      1  0.4459970000000  0.5041640000000  0.5269530000000 1.0
C      1  0.5033130000000  0.5041630000000  0.4399930000000 1.0
C      1  0.5499650000000  0.5041640000000  0.5331100000000 1.0
C      1  0.4055690000000  0.5545390000000  0.5098220000000 1.0
C      1  0.5383640000000  0.5545370000000  0.4135450000000 1.0
C      1  0.5553440000000  0.5545390000000  0.5766880000000 1.0
C      1  0.5340120000000  0.4077650000000  0.5286590000000 1.0
C      1  0.4578290000000  0.4077650000000  0.5153650000000 1.0
C      1  0.5074330000000  0.4077640000000  0.4560360000000 1.0
C      1  0.4389730000000  0.4880530000000  0.4623240000000 1.0
C      1  0.5627960000000  0.4880530000000  0.4662250000000 1.0
C      1  0.4975060000000  0.4880540000000  0.5715080000000 1.0
C      1  0.5279500000000  0.4365380000000  0.4322830000000 1.0
C      1  0.5443240000000  0.4365390000000  0.5583030000000 1.0
C      1  0.4270000000000  0.4365390000000  0.5094730000000 1.0
C      1  0.4920930000000  0.4619470000000  0.4709930000000 1.0
C      1  0.5287280000000  0.4619480000000  0.5078940000000 1.0
C      1  0.4784530000000  0.4619480000000  0.5211700000000 1.0
C      1  0.5462120000000  0.5272380000000  0.4170150000000 1.0
C      1  0.5484150000000  0.5272400000000  0.5817500000000 1.0
C      1  0.4046490000000  0.5272390000000  0.5012900000000 1.0
C      1  0.4896570000000  0.4746940000000  0.4396390000000 1.0
C      1  0.5571000000000  0.4746950000000  0.5214610000000 1.0
C      1  0.4525180000000  0.4746950000000  0.5389570000000 1.0
C      1  0.5315500000000  0.4758080000000  0.4140800000000 1.0
C      1  0.5582880000000  0.4758100000000  0.5705210000000 1.0
C      1  0.4094370000000  0.4758100000000  0.5154560000000 1.0
C      1  0.4333080000000  0.4779150000000  0.4325810000000 1.0
C      1  0.5913860000000  0.4779150000000  0.4761900000000 1.0
C      1  0.4745810000000  0.4779170000000  0.5912860000000 1.0
C      1  0.5053280000000  0.5910680000000  0.4435220000000 1.0
C      1  0.5459010000000  0.5910690000000  0.5330890000000 1.0
C      1  0.4480480000000  0.5910690000000  0.5234420000000 1.0
C      1  0.5658420000000  0.5121420000000  0.4816290000000 1.0
C      1  0.4826430000000  0.5121430000000  0.5664440000000 1.0
C      1  0.4507900000000  0.5121420000000  0.4519830000000 1.0
C      1  0.5581120000000  0.4177820000000  0.5389270000000 1.0
C      1  0.4368870000000  0.4177830000000  0.5311030000000 1.0
C      1  0.5042750000000  0.4177810000000  0.4300300000000 1.0
C      1  0.5602920000000  0.4601010000000  0.5474730000000 1.0
C      1  0.4283950000000  0.4601020000000  0.5287160000000 1.0
C      1  0.5105880000000  0.4601000000000  0.4238680000000 1.0
C      1  0.4643060000000  0.5485690000000  0.5111270000000 1.0
C      1  0.5078640000000  0.5485690000000  0.4637610000000 1.0
C      1  0.5271060000000  0.5485690000000  0.5251670000000 1.0
C      1  0.5903580000000  0.5400900000000  0.5449330000000 1.0
C      1  0.4155620000000  0.5400920000000  0.5560220000000 1.0
C      1  0.4933560000000  0.5400890000000  0.3990990000000 1.0
C      1  0.5134670000000  0.5601220000000  0.4035150000000 1.0
C      1  0.5764790000000  0.5601230000000  0.5601410000000 1.0
C      1  0.4093300000000  0.5601240000000  0.5363980000000 1.0
C      1  0.5203060000000  0.5008260000000  0.5323640000000 1.0
C      1  0.4614730000000  0.5008260000000  0.5016410000000 1.0
C      1  0.5174970000000  0.5008250000000  0.4660510000000 1.0
C      1  0.4895700000000  0.5336560000000  0.4466000000000 1.0
C      1  0.5511140000000  0.5336560000000  0.5179040000000 1.0
C      1  0.4585910000000  0.5336570000000  0.5355510000000 1.0
C      1  0.4187090000000  0.5557210000000  0.4665820000000 1.0
C      1  0.5692400000000  0.5557200000000  0.4465450000000 1.0
C      1  0.5113270000000  0.5557220000000  0.5869280000000 1.0
C      1  0.4192650000000  0.4538190000000  0.4416070000000 1.0
C      1  0.5905910000000  0.4538180000000  0.4595170000000 1.0
C      1  0.4894180000000  0.4538210000000  0.5989340000000 1.0
C      1  0.4972780000000  0.4879330000000  0.4827520000000 1.0
C      1  0.5159520000000  0.4879330000000  0.5065050000000 1.0
C      1  0.4860450000000  0.4879330000000  0.5108000000000 1.0
C      1  0.4777610000000  0.5530080000000  0.4207440000000 1.0
C      1  0.5794110000000  0.5530090000000  0.5206050000000 1.0
C      1  0.4421040000000  0.5530100000000  0.5587060000000 1.0
C      1  0.5169550000000  0.4882620000000  0.5969860000000 1.0
C      1  0.4071840000000  0.4882610000000  0.4664280000000 1.0
C      1  0.5751360000000  0.4882600000000  0.4366430000000 1.0
C      1  0.5678700000000  0.5602610000000  0.4755510000000 1.0
C      1  0.4868930000000  0.5602630000000  0.5712380000000 1.0
C      1  0.4445140000000  0.5602610000000  0.4532650000000 1.0
C      1  0.4463920000000  0.5193800000000  0.4226200000000 1.0
C      1  0.5934710000000  0.5193800000000  0.4925010000000 1.0
C      1  0.4594130000000  0.5193820000000  0.5849340000000 1.0
C      1  0.4763130000000  0.5908290000000  0.5311800000000 1.0
C      1  0.4844940000000  0.5908280000000  0.4641320000000 1.0
C      1  0.5384700000000  0.5908290000000  0.5047410000000 1.0
C      1  0.5953850000000  0.5013580000000  0.5182390000000 1.0
C      1  0.4361660000000  0.5013590000000  0.5737240000000 1.0
C      1  0.4677240000000  0.5013570000000  0.4080930000000 1.0
C      1  0.4883700000000  0.3991330000000  0.4741780000000 1.0
C      1  0.5278320000000  0.3991330000000  0.5030790000000 1.0
C      1  0.4830720000000  0.3991330000000  0.5228030000000 1.0
C      1  0.4327860000000  0.5759750000000  0.5415930000000 1.0
C      1  0.4972410000000  0.5759730000000  0.4212300000000 1.0
C      1  0.5692500000000  0.5759740000000  0.5372310000000 1.0
C      1  0.4619420000000  0.4083630000000  0.4693280000000 1.0
C      1  0.5452450000000  0.4083630000000  0.4826170000000 1.0
C      1  0.4920860000000  0.4083640000000  0.5481150000000 1.0
C      1  0.4972460000000  0.5727040000000  0.4820940000000 1.0
C      1  0.5165380000000  0.5727040000000  0.5068040000000 1.0
C      1  0.4854930000000  0.5727040000000  0.5111560000000 1.0
C      1  0.4857800000000  0.5329960000000  0.5478410000000 1.0
C      1  0.4653320000000  0.5329950000000  0.4640010000000 1.0
C      1  0.5481640000000  0.5329950000000  0.4882130000000 1.0
C      1  0.4702310000000  0.5284810000000  0.4921470000000 1.0
C      1  0.5213390000000  0.5284800000000  0.4783820000000 1.0
C      1  0.5077060000000  0.5284810000000  0.5295260000000 1.0
C      1  0.4718160000000  0.4145370000000  0.5664170000000 1.0
C      1  0.4562270000000  0.4145350000000  0.4426230000000 1.0
C      1  0.5712300000000  0.4145350000000  0.4910190000000 1.0
C      1  0.5861640000000  0.4745070000000  0.5080200000000 1.0
C      1  0.4496260000000  0.4745080000000  0.5708480000000 1.0
C      1  0.4634850000000  0.4745060000000  0.4211890000000 1.0
C      1  0.5508560000000  0.4541990000000  0.4214810000000 1.0
C      1  0.5422260000000  0.4542010000000  0.5835400000000 1.0
C      1  0.4061930000000  0.4542010000000  0.4950360000000 1.0
C      1  0.5236170000000  0.5048500000000  0.4150740000000 1.0
C      1  0.5613930000000  0.5048510000000  0.5631530000000 1.0
C      1  0.4142650000000  0.5048520000000  0.5218290000000 1.0
C      1  0.5189170000000  0.4599190000000  0.5991510000000 1.0
C      1  0.4043280000000  0.4599180000000  0.4670460000000 1.0
C      1  0.5760290000000  0.4599170000000  0.4338610000000 1.0
C      1  0.4381930000000  0.4351010000000  0.4330040000000 1.0
C      1  0.5885780000000  0.4351010000000  0.4802110000000 1.0
C      1  0.4725030000000  0.4351020000000  0.5868440000000 1.0
C      1  0.4603990000000  0.4451740000000  0.4163110000000 1.0
C      1  0.5919310000000  0.4451740000000  0.5077870000000 1.0
C      1  0.4469440000000  0.4451760000000  0.5759600000000 1.0
C      1  0.5714220000000  0.5301230000000  0.4326860000000 1.0
C      1  0.5222390000000  0.5301250000000  0.5957470000000 1.0
C      1  0.4056160000000  0.5301250000000  0.4716220000000 1.0
C      1  0.4446370000000  0.4226470000000  0.5577210000000 1.0
C      1  0.4773470000000  0.4226450000000  0.4234330000000 1.0
C      1  0.5772890000000  0.4226460000000  0.5189050000000 1.0
C      1  0.6024780000000  0.5047770000000  0.4683650000000 1.0
C      1  0.4758120000000  0.5047790000000  0.6048040000000 1.0
C      1  0.4209850000000  0.5047770000000  0.4268870000000 1.0
C      1  0.5321890000000  0.5714740000000  0.5763200000000 1.0
C      1  0.4174640000000  0.5714740000000  0.4899520000000 1.0
C      1  0.5496240000000  0.5714730000000  0.4337820000000 1.0
C      1  0.5106880000000  0.4781460000000  0.5489670000000 1.0
C      1  0.4519030000000  0.4781450000000  0.4850100000000 1.0
C      1  0.5366840000000  0.4781450000000  0.4660800000000 1.0
C      1  0.5068610000000  0.4536470000000  0.5311730000000 1.0
C      1  0.4692270000000  0.4536460000000  0.4905940000000 1.0
C      1  0.5231870000000  0.4536460000000  0.4782910000000 1.0
C      1  0.5883640000000  0.5120220000000  0.5452960000000 1.0
C      1  0.4162440000000  0.5120230000000  0.5541150000000 1.0
C      1  0.4946670000000  0.5120210000000  0.4006450000000 1.0
C      1  0.4559350000000  0.5847160000000  0.4676230000000 1.0
C      1  0.5497260000000  0.5847160000000  0.4782630000000 1.0
C      1  0.4936160000000  0.5847170000000  0.5541680000000 1.0
C      1  0.4997590000000  0.5298460000000  0.5000180000000 1.0
C      1  0.4997580000000  0.3963430000000  0.5000200000000 1.0
END
