TITL C-36759-7663-3 -0.0890928483319241 125000 -724.957312955444 0 0 106 (C1) n - 1
REM
REM in /rds/project/t2_vol4/rds-t2-cs072/BORA/CARBON/from-Arr/AIRSS/Generating-Clusters/GAP-ML-2020/Higher-Symm/SD-CG/HFTN-CG
REM
REM
REM
REM
REM
REM ./C.cell (b20cbc046b6831c77cfcea5457e17084)
REM AIRSS Version 0.9.1 bugfix July 2018 build 013d7b7c2542+ Fri, 06 Jul 2018 19:26:36 +0100
REM compiler GCC version 9.3.0
REM options -cpp -mtune=generic -march=x86-64 -g -O0
REM seed 418410023 427929763 128084176 383354272 -2123903124 -1405713800 -1448996644 1584898267 1515980217 -20570675 -567490132 1153346123 -1994209212 1630197403 -2127433884 1525357691 2052403675 739665830 -1840341056 -1594582965 2115093818 -181582568 -1960455397 357459639 249317754 999955745 350325003 -1404765241 -1718222752 1192452466 2093273986 45205413 384403664
REM
CELL 1.54180   50.00000   50.00000   50.00000   90.00000   90.00000   90.00000
LATT -1
SFAC C  
C      1  0.4122910000000  0.4713960000000  0.4890880000000 1.0
C      1  0.4874200000000  0.4146930000000  0.4722820000000 1.0
C      1  0.4637560000000  0.4869560000000  0.4133490000000 1.0
C      1  0.5820680000000  0.5332380000000  0.4855680000000 1.0
C      1  0.5832080000000  0.4736110000000  0.5267460000000 1.0
C      1  0.4049640000000  0.5239770000000  0.5098100000000 1.0
C      1  0.5091310000000  0.5889420000000  0.4749260000000 1.0
C      1  0.5115380000000  0.4063750000000  0.5244860000000 1.0
C      1  0.4945650000000  0.5852770000000  0.5292020000000 1.0
C      1  0.5342330000000  0.4998450000000  0.4060620000000 1.0
C      1  0.5251640000000  0.4882700000000  0.5907110000000 1.0
C      1  0.4766280000000  0.5116560000000  0.5892360000000 1.0
C      1  0.5411560000000  0.5210910000000  0.5648670000000 1.0
C      1  0.5721500000000  0.5309320000000  0.5310720000000 1.0
C      1  0.5306920000000  0.5588310000000  0.5397060000000 1.0
C      1  0.4626080000000  0.4692790000000  0.5677590000000 1.0
C      1  0.4529350000000  0.5289050000000  0.4337520000000 1.0
C      1  0.5591370000000  0.4651010000000  0.4340120000000 1.0
C      1  0.4331290000000  0.4575550000000  0.5299220000000 1.0
C      1  0.4283190000000  0.5395400000000  0.4709590000000 1.0
C      1  0.5674650000000  0.4605400000000  0.4806920000000 1.0
C      1  0.4694860000000  0.4279330000000  0.5423780000000 1.0
C      1  0.4681200000000  0.5678850000000  0.4621570000000 1.0
C      1  0.5288020000000  0.4346790000000  0.4623130000000 1.0
C      1  0.4923340000000  0.5781460000000  0.4523250000000 1.0
C      1  0.4539480000000  0.4935550000000  0.5805840000000 1.0
C      1  0.5725720000000  0.4536240000000  0.5074710000000 1.0
C      1  0.5032260000000  0.4285210000000  0.4507170000000 1.0
C      1  0.5065890000000  0.5692540000000  0.5507080000000 1.0
C      1  0.4932830000000  0.4142170000000  0.5479730000000 1.0
C      1  0.5501640000000  0.4991470000000  0.5808240000000 1.0
C      1  0.5576610000000  0.4881060000000  0.4213770000000 1.0
C      1  0.4434520000000  0.5018070000000  0.4292100000000 1.0
C      1  0.4131910000000  0.5478540000000  0.4926690000000 1.0
C      1  0.4255870000000  0.4488210000000  0.5040810000000 1.0
C      1  0.5744560000000  0.5477450000000  0.5089800000000 1.0
C      1  0.5301510000000  0.5073550000000  0.4973130000000 1.0
C      1  0.5107140000000  0.5274730000000  0.5048760000000 1.0
C      1  0.4974770000000  0.5184910000000  0.5315890000000 1.0
C      1  0.4576250000000  0.5001670000000  0.5218090000000 1.0
C      1  0.4643430000000  0.5101010000000  0.4911750000000 1.0
C      1  0.5389780000000  0.5020080000000  0.4693510000000 1.0
C      1  0.4872180000000  0.4641650000000  0.5112740000000 1.0
C      1  0.4878760000000  0.5304000000000  0.4842630000000 1.0
C      1  0.5150220000000  0.4604780000000  0.5042620000000 1.0
C      1  0.4842310000000  0.4896460000000  0.5307340000000 1.0
C      1  0.4995600000000  0.5238670000000  0.4537990000000 1.0
C      1  0.5124770000000  0.4957270000000  0.4519950000000 1.0
C      1  0.4688410000000  0.5769770000000  0.5375580000000 1.0
C      1  0.5326800000000  0.4639970000000  0.5786180000000 1.0
C      1  0.5677190000000  0.5455780000000  0.4645440000000 1.0
C      1  0.5347800000000  0.4202620000000  0.5363370000000 1.0
C      1  0.5334280000000  0.5819850000000  0.4613030000000 1.0
C      1  0.4636530000000  0.4291300000000  0.4657540000000 1.0
C      1  0.4669750000000  0.5374270000000  0.5792460000000 1.0
C      1  0.4626100000000  0.4634320000000  0.4297010000000 1.0
C      1  0.5375680000000  0.5270780000000  0.4144020000000 1.0
C      1  0.4260820000000  0.4637830000000  0.4649280000000 1.0
C      1  0.4219720000000  0.5353810000000  0.5301420000000 1.0
C      1  0.5710500000000  0.4601660000000  0.5495070000000 1.0
C      1  0.4826360000000  0.4502440000000  0.4459670000000 1.0
C      1  0.4442730000000  0.4797470000000  0.4495810000000 1.0
C      1  0.4446660000000  0.4445020000000  0.4806560000000 1.0
C      1  0.5175390000000  0.5683010000000  0.4411460000000 1.0
C      1  0.5158640000000  0.4299190000000  0.5559790000000 1.0
C      1  0.4783500000000  0.5569400000000  0.5583940000000 1.0
C      1  0.5610800000000  0.5161290000000  0.4280230000000 1.0
C      1  0.5597180000000  0.4718810000000  0.5717830000000 1.0
C      1  0.4461960000000  0.5186790000000  0.5684540000000 1.0
C      1  0.5555870000000  0.5702610000000  0.4735250000000 1.0
C      1  0.5538720000000  0.4435000000000  0.5301330000000 1.0
C      1  0.4299890000000  0.5575500000000  0.5140280000000 1.0
C      1  0.4900170000000  0.4768300000000  0.5587390000000 1.0
C      1  0.5679530000000  0.4880270000000  0.4753770000000 1.0
C      1  0.4772730000000  0.5604840000000  0.4901440000000 1.0
C      1  0.5137110000000  0.5172800000000  0.5582780000000 1.0
C      1  0.5115620000000  0.4927980000000  0.4196020000000 1.0
C      1  0.4805710000000  0.5249440000000  0.4306660000000 1.0
C      1  0.4358320000000  0.5151260000000  0.4838150000000 1.0
C      1  0.4328040000000  0.4853100000000  0.5230300000000 1.0
C      1  0.5740230000000  0.5013690000000  0.5202560000000 1.0
C      1  0.5200320000000  0.4363730000000  0.4893940000000 1.0
C      1  0.5256120000000  0.5572200000000  0.5101490000000 1.0
C      1  0.4806210000000  0.4348310000000  0.5172710000000 1.0
C      1  0.5492000000000  0.5265230000000  0.4525150000000 1.0
C      1  0.4591050000000  0.5601020000000  0.5144780000000 1.0
C      1  0.5151640000000  0.4590720000000  0.5549210000000 1.0
C      1  0.4676130000000  0.4869460000000  0.4723320000000 1.0
C      1  0.4472280000000  0.5221400000000  0.5393350000000 1.0
C      1  0.5416470000000  0.4923780000000  0.5188320000000 1.0
C      1  0.5312600000000  0.4657320000000  0.5276540000000 1.0
C      1  0.5530890000000  0.5643650000000  0.5007490000000 1.0
C      1  0.4677650000000  0.4647710000000  0.4900030000000 1.0
C      1  0.4718860000000  0.5378920000000  0.5344530000000 1.0
C      1  0.4916940000000  0.4766330000000  0.4602320000000 1.0
C      1  0.5231750000000  0.5392640000000  0.4400230000000 1.0
C      1  0.5025690000000  0.5763940000000  0.5007860000000 1.0
C      1  0.5006640000000  0.4992610000000  0.5772040000000 1.0
C      1  0.4863610000000  0.5029810000000  0.4131900000000 1.0
C      1  0.5814450000000  0.5062950000000  0.4920280000000 1.0
C      1  0.4170620000000  0.4982070000000  0.5011380000000 1.0
C      1  0.4990960000000  0.4182850000000  0.5000090000000 1.0
C      1  0.5531510000000  0.4490920000000  0.4568140000000 1.0
C      1  0.4470030000000  0.5499000000000  0.4522870000000 1.0
C      1  0.4512080000000  0.4489300000000  0.5506090000000 1.0
C      1  0.5521560000000  0.5408830000000  0.5488430000000 1.0
END
