TITL C-36763-7542-1 141.454309303793 125000 -1198.75124132366 0 0 173 (C2) n - 1
REM
REM in /rds/project/t2_vol4/rds-t2-cs072/BORA/CARBON/from-Arr/AIRSS/Generating-Clusters/GAP-ML-2020/Higher-Symm/SD-CG/HFTN-CG
REM
REM
REM
REM
REM
REM ./C.cell (b20cbc046b6831c77cfcea5457e17084)
REM AIRSS Version 0.9.1 bugfix July 2018 build 013d7b7c2542+ Fri, 06 Jul 2018 19:26:36 +0100
REM compiler GCC version 9.3.0
REM options -cpp -mtune=generic -march=x86-64 -g -O0
REM seed 995059492 944965504 -950282794 -1792577895 -2146414393 -2101941192 -1816126272 423710849 -787076978 -820513334 490341320 -1817510385 1611073001 -22441681 -1974946727 1696169564 -827104646 869570301 -585650378 1566769260 556430022 1411430877 -1154153489 -1842469662 769544356 389185146 -249026749 -1065067579 -1518834574 -616074619 925758557 -1189082979 385876343
REM
CELL 1.54180   50.00000   50.00000   50.00000   90.00000   90.00000   90.00000
LATT -1
SFAC C  
C      1  0.5171640000000  0.4723510000000  0.4722350000000 1.0
C      1  0.4827630000000  0.5271230000000  0.4722370000000 1.0
C      1  0.5220770000000  0.4766010000000  0.5278310000000 1.0
C      1  0.4778510000000  0.5228700000000  0.5278330000000 1.0
C      1  0.4825040000000  0.4720330000000  0.4724140000000 1.0
C      1  0.5174230000000  0.5274420000000  0.4724160000000 1.0
C      1  0.4772910000000  0.4744170000000  0.5284710000000 1.0
C      1  0.5226370000000  0.5250540000000  0.5284720000000 1.0
C      1  0.4232800000000  0.4522020000000  0.4217400000000 1.0
C      1  0.5766470000000  0.5472750000000  0.4217420000000 1.0
C      1  0.4239230000000  0.4478170000000  0.5771440000000 1.0
C      1  0.5760050000000  0.5516510000000  0.5771470000000 1.0
C      1  0.5755900000000  0.4505860000000  0.4216830000000 1.0
C      1  0.4243360000000  0.5488910000000  0.4216870000000 1.0
C      1  0.5777820000000  0.4535830000000  0.5775210000000 1.0
C      1  0.4221460000000  0.5458850000000  0.5775240000000 1.0
C      1  0.5148210000000  0.4187120000000  0.4753030000000 1.0
C      1  0.4851060000000  0.5807620000000  0.4753080000000 1.0
C      1  0.5159830000000  0.4198590000000  0.5259350000000 1.0
C      1  0.4839450000000  0.5796120000000  0.5259400000000 1.0
C      1  0.4842350000000  0.4188360000000  0.4757080000000 1.0
C      1  0.5156920000000  0.5806380000000  0.4757130000000 1.0
C      1  0.4844800000000  0.4201450000000  0.5281850000000 1.0
C      1  0.5154480000000  0.5793260000000  0.5281900000000 1.0
C      1  0.5148280000000  0.4844150000000  0.4169620000000 1.0
C      1  0.4850980000000  0.5150630000000  0.4169630000000 1.0
C      1  0.5158010000000  0.4851090000000  0.5826140000000 1.0
C      1  0.4841280000000  0.5143590000000  0.5826160000000 1.0
C      1  0.4849170000000  0.4845510000000  0.4169960000000 1.0
C      1  0.5150090000000  0.5149270000000  0.4169960000000 1.0
C      1  0.4851480000000  0.4843910000000  0.5830590000000 1.0
C      1  0.5147800000000  0.5150770000000  0.5830600000000 1.0
C      1  0.5785950000000  0.5729450000000  0.4686600000000 1.0
C      1  0.4213320000000  0.4265300000000  0.4686560000000 1.0
C      1  0.5846900000000  0.5724430000000  0.5282180000000 1.0
C      1  0.4152380000000  0.4270280000000  0.5282140000000 1.0
C      1  0.4225050000000  0.5737370000000  0.4696550000000 1.0
C      1  0.5774220000000  0.4257380000000  0.4696500000000 1.0
C      1  0.4212710000000  0.5722430000000  0.5298540000000 1.0
C      1  0.5786570000000  0.4272270000000  0.5298480000000 1.0
C      1  0.5145810000000  0.5777740000000  0.4462820000000 1.0
C      1  0.4853450000000  0.4217020000000  0.4462770000000 1.0
C      1  0.5098740000000  0.5770950000000  0.5569830000000 1.0
C      1  0.4900540000000  0.4223740000000  0.5569780000000 1.0
C      1  0.4867000000000  0.5777720000000  0.4460960000000 1.0
C      1  0.5132270000000  0.4217040000000  0.4460910000000 1.0
C      1  0.4820430000000  0.5762920000000  0.5547020000000 1.0
C      1  0.5178850000000  0.4231780000000  0.5546970000000 1.0
C      1  0.5379590000000  0.4712520000000  0.6000800000000 1.0
C      1  0.4619700000000  0.5282140000000  0.6000830000000 1.0
C      1  0.5349130000000  0.4682700000000  0.3999150000000 1.0
C      1  0.4650130000000  0.5312090000000  0.3999170000000 1.0
C      1  0.4656180000000  0.4680640000000  0.6010750000000 1.0
C      1  0.5343110000000  0.5314020000000  0.6010770000000 1.0
C      1  0.4645490000000  0.4687060000000  0.3999430000000 1.0
C      1  0.5353770000000  0.5307730000000  0.3999450000000 1.0
C      1  0.5925060000000  0.4847770000000  0.4678260000000 1.0
C      1  0.4074200000000  0.5146980000000  0.4678280000000 1.0
C      1  0.5958180000000  0.4851220000000  0.5300360000000 1.0
C      1  0.4041100000000  0.5143490000000  0.5300380000000 1.0
C      1  0.4072280000000  0.4862440000000  0.4669080000000 1.0
C      1  0.5926990000000  0.5132310000000  0.4669080000000 1.0
C      1  0.4033620000000  0.4860700000000  0.5287330000000 1.0
C      1  0.5965660000000  0.5134010000000  0.5287330000000 1.0
C      1  0.4361830000000  0.4094600000000  0.4856090000000 1.0
C      1  0.5637440000000  0.5900130000000  0.4856130000000 1.0
C      1  0.4346440000000  0.4108600000000  0.5146670000000 1.0
C      1  0.5652830000000  0.5886110000000  0.5146720000000 1.0
C      1  0.5623270000000  0.4080770000000  0.4856410000000 1.0
C      1  0.4376000000000  0.5913960000000  0.4856470000000 1.0
C      1  0.5626690000000  0.4092340000000  0.5147470000000 1.0
C      1  0.4372580000000  0.5902380000000  0.5147530000000 1.0
C      1  0.6080560000000  0.4662520000000  0.5131010000000 1.0
C      1  0.3918720000000  0.5332200000000  0.5131040000000 1.0
C      1  0.6065870000000  0.4662930000000  0.4839270000000 1.0
C      1  0.3933400000000  0.5331810000000  0.4839310000000 1.0
C      1  0.3902460000000  0.4680010000000  0.5110210000000 1.0
C      1  0.6096810000000  0.5314710000000  0.5110220000000 1.0
C      1  0.3923520000000  0.4678620000000  0.4819070000000 1.0
C      1  0.6075740000000  0.5316120000000  0.4819070000000 1.0
C      1  0.4844880000000  0.5499420000000  0.5135470000000 1.0
C      1  0.5154390000000  0.4495300000000  0.5135440000000 1.0
C      1  0.4769270000000  0.5524540000000  0.4861670000000 1.0
C      1  0.5230000000000  0.4470200000000  0.4861630000000 1.0
C      1  0.5150890000000  0.5506010000000  0.5143080000000 1.0
C      1  0.4848390000000  0.4488710000000  0.5143050000000 1.0
C      1  0.5232520000000  0.5527630000000  0.4865970000000 1.0
C      1  0.4766750000000  0.4467110000000  0.4865940000000 1.0
C      1  0.5605620000000  0.5280970000000  0.4124200000000 1.0
C      1  0.4393640000000  0.4713810000000  0.4124190000000 1.0
C      1  0.5601540000000  0.5324720000000  0.5876980000000 1.0
C      1  0.4397750000000  0.4669960000000  0.5876970000000 1.0
C      1  0.4397430000000  0.5291710000000  0.4124060000000 1.0
C      1  0.5601830000000  0.4703070000000  0.4124030000000 1.0
C      1  0.4367920000000  0.5257840000000  0.5873920000000 1.0
C      1  0.5631360000000  0.4736830000000  0.5873900000000 1.0
C      1  0.4631910000000  0.4041590000000  0.5163710000000 1.0
C      1  0.5367360000000  0.5953120000000  0.5163760000000 1.0
C      1  0.4641750000000  0.4019120000000  0.4875440000000 1.0
C      1  0.5357520000000  0.5975620000000  0.4875490000000 1.0
C      1  0.5347150000000  0.4018030000000  0.5149030000000 1.0
C      1  0.4652120000000  0.5976690000000  0.5149090000000 1.0
C      1  0.5342970000000  0.4005340000000  0.4860930000000 1.0
C      1  0.4656300000000  0.5989390000000  0.4860990000000 1.0
C      1  0.4311820000000  0.5241330000000  0.5378510000000 1.0
C      1  0.5687460000000  0.4753380000000  0.5378490000000 1.0
C      1  0.4343210000000  0.5258640000000  0.4621910000000 1.0
C      1  0.5656050000000  0.4736110000000  0.4621880000000 1.0
C      1  0.5711520000000  0.5263470000000  0.5374700000000 1.0
C      1  0.4287750000000  0.4731240000000  0.5374700000000 1.0
C      1  0.5658260000000  0.5252040000000  0.4619350000000 1.0
C      1  0.4341010000000  0.4742710000000  0.4619350000000 1.0
C      1  0.5237700000000  0.5575990000000  0.5703740000000 1.0
C      1  0.4761580000000  0.4418690000000  0.5703710000000 1.0
C      1  0.5334170000000  0.5581140000000  0.4362130000000 1.0
C      1  0.4665100000000  0.4413630000000  0.4362090000000 1.0
C      1  0.4636880000000  0.5557920000000  0.5638070000000 1.0
C      1  0.5362400000000  0.4436770000000  0.5638030000000 1.0
C      1  0.4675940000000  0.5584240000000  0.4361320000000 1.0
C      1  0.5323320000000  0.4410520000000  0.4361280000000 1.0
C      1  0.5553110000000  0.4878180000000  0.5618730000000 1.0
C      1  0.4446170000000  0.5116510000000  0.5618740000000 1.0
C      1  0.5523320000000  0.4850050000000  0.4382420000000 1.0
C      1  0.4475940000000  0.5144720000000  0.4382440000000 1.0
C      1  0.4448000000000  0.4824180000000  0.5621100000000 1.0
C      1  0.5551280000000  0.5170510000000  0.5621110000000 1.0
C      1  0.4475890000000  0.4857500000000  0.4382280000000 1.0
C      1  0.5523370000000  0.5137270000000  0.4382290000000 1.0
C      1  0.4329680000000  0.5537270000000  0.5507450000000 1.0
C      1  0.5669600000000  0.4457430000000  0.5507410000000 1.0
C      1  0.4350260000000  0.5562890000000  0.4488300000000 1.0
C      1  0.5649010000000  0.4431870000000  0.4488260000000 1.0
C      1  0.5785620000000  0.5538610000000  0.5496720000000 1.0
C      1  0.4213650000000  0.4456080000000  0.5496690000000 1.0
C      1  0.5654330000000  0.5555400000000  0.4483540000000 1.0
C      1  0.4344930000000  0.4439360000000  0.4483520000000 1.0
C      1  0.4551670000000  0.5151260000000  0.4846830000000 1.0
C      1  0.5447600000000  0.4843480000000  0.4846820000000 1.0
C      1  0.4517240000000  0.5145250000000  0.5154920000000 1.0
C      1  0.5482030000000  0.4849470000000  0.5154900000000 1.0
C      1  0.5449250000000  0.5157760000000  0.4847790000000 1.0
C      1  0.4550020000000  0.4836980000000  0.4847780000000 1.0
C      1  0.5485910000000  0.5165850000000  0.5157030000000 1.0
C      1  0.4513360000000  0.4828870000000  0.5157020000000 1.0
C      1  0.4712610000000  0.5264620000000  0.5575510000000 1.0
C      1  0.5286660000000  0.4730080000000  0.5575490000000 1.0
C      1  0.4743040000000  0.5286760000000  0.4424630000000 1.0
C      1  0.5256220000000  0.4708010000000  0.4424610000000 1.0
C      1  0.5272510000000  0.5296810000000  0.5584300000000 1.0
C      1  0.4726770000000  0.4697880000000  0.5584290000000 1.0
C      1  0.5258900000000  0.5284530000000  0.4425490000000 1.0
C      1  0.4740360000000  0.4710230000000  0.4425470000000 1.0
C      1  0.5254170000000  0.5571840000000  0.4056700000000 1.0
C      1  0.4745090000000  0.4422950000000  0.4056660000000 1.0
C      1  0.5193160000000  0.5557360000000  0.5989170000000 1.0
C      1  0.4806120000000  0.4437310000000  0.5989140000000 1.0
C      1  0.4755000000000  0.5574220000000  0.4055800000000 1.0
C      1  0.5244270000000  0.4420560000000  0.4055760000000 1.0
C      1  0.4703710000000  0.5549550000000  0.5950930000000 1.0
C      1  0.5295570000000  0.4445120000000  0.5950890000000 1.0
C      1  0.5976480000000  0.4383800000000  0.4847660000000 1.0
C      1  0.4022790000000  0.5610940000000  0.4847710000000 1.0
C      1  0.5988050000000  0.4384910000000  0.5133870000000 1.0
C      1  0.4011220000000  0.5609810000000  0.5133920000000 1.0
C      1  0.4001150000000  0.4395770000000  0.4821590000000 1.0
C      1  0.5998120000000  0.5598970000000  0.4821610000000 1.0
C      1  0.3969930000000  0.4394520000000  0.5104240000000 1.0
C      1  0.6029340000000  0.5600200000000  0.5104270000000 1.0
C      1  0.5058990000000  0.4368580000000  0.6061220000000 1.0
C      1  0.4940290000000  0.5626080000000  0.6061260000000 1.0
C      1  0.4994300000000  0.4347730000000  0.3983530000000 1.0
C      1  0.5004960000000  0.5647060000000  0.3983570000000 1.0
C      1  0.4999640000000  0.4997360000000  0.5247880000000 1.0
END
