TITL C-36741-8643-1 -0.667730662958496 125000 -669.972574084935 0 0 98 (C1) n - 1
REM
REM in /rds/project/t2_vol4/rds-t2-cs072/BORA/CARBON/from-Arr/AIRSS/Generating-Clusters/GAP-ML-2020/Higher-Symm/SD-CG/HFTN-CG
REM
REM
REM
REM
REM
REM ./C.cell (b20cbc046b6831c77cfcea5457e17084)
REM AIRSS Version 0.9.1 bugfix July 2018 build 013d7b7c2542+ Fri, 06 Jul 2018 19:26:36 +0100
REM compiler GCC version 9.3.0
REM options -cpp -mtune=generic -march=x86-64 -g -O0
REM seed 2021606462 259651662 497040352 -2112954150 1312993617 1626060048 -1180572779 736502410 -1110551588 -306244932 61386901 1777888110 -16192303 -282496469 255022435 -686393185 890293509 412460936 1724393750 66425868 49294888 1569238977 1489906909 -329115418 695656629 1996282840 -1055164377 -467035345 -875724287 -2055662093 -1582765140 1150120217 1319909088
REM
CELL 1.54180   50.00000   50.00000   50.00000   90.00000   90.00000   90.00000
LATT -1
SFAC C  
C      1  0.5813110000000  0.4835430000000  0.5329660000000 1.0
C      1  0.4839900000000  0.4867920000000  0.4135270000000 1.0
C      1  0.4356140000000  0.4859340000000  0.5567130000000 1.0
C      1  0.5808380000000  0.5128850000000  0.5285000000000 1.0
C      1  0.4829430000000  0.5165150000000  0.4128000000000 1.0
C      1  0.4354160000000  0.5148390000000  0.5570740000000 1.0
C      1  0.4193810000000  0.4852090000000  0.5308150000000 1.0
C      1  0.5141390000000  0.4885270000000  0.4178330000000 1.0
C      1  0.5635830000000  0.4880510000000  0.5578940000000 1.0
C      1  0.4187600000000  0.5156740000000  0.5312330000000 1.0
C      1  0.5133440000000  0.5184330000000  0.4134960000000 1.0
C      1  0.5671720000000  0.5172680000000  0.5556260000000 1.0
C      1  0.4804000000000  0.5341280000000  0.5211240000000 1.0
C      1  0.5285290000000  0.5341300000000  0.5053070000000 1.0
C      1  0.4904220000000  0.5355530000000  0.4712870000000 1.0
C      1  0.4795690000000  0.4665810000000  0.5213490000000 1.0
C      1  0.5467720000000  0.4641850000000  0.5098590000000 1.0
C      1  0.4869600000000  0.4624150000000  0.4627030000000 1.0
C      1  0.5278930000000  0.5353960000000  0.5349200000000 1.0
C      1  0.4553990000000  0.5342620000000  0.5055470000000 1.0
C      1  0.5162360000000  0.5374190000000  0.4574950000000 1.0
C      1  0.5231810000000  0.4664490000000  0.5264900000000 1.0
C      1  0.4558990000000  0.4664170000000  0.5041760000000 1.0
C      1  0.5104110000000  0.4660970000000  0.4776670000000 1.0
C      1  0.4712480000000  0.4477770000000  0.5677900000000 1.0
C      1  0.5780310000000  0.4442240000000  0.4927080000000 1.0
C      1  0.4519700000000  0.4491510000000  0.4387920000000 1.0
C      1  0.4728140000000  0.5515690000000  0.5683570000000 1.0
C      1  0.5730230000000  0.5498420000000  0.4896690000000 1.0
C      1  0.4533860000000  0.5520390000000  0.4413400000000 1.0
C      1  0.5284040000000  0.4489830000000  0.5697270000000 1.0
C      1  0.4223430000000  0.4462730000000  0.4905120000000 1.0
C      1  0.5441850000000  0.4521220000000  0.4442230000000 1.0
C      1  0.5306890000000  0.5566230000000  0.5704640000000 1.0
C      1  0.4227310000000  0.5550570000000  0.4914870000000 1.0
C      1  0.5464270000000  0.5565470000000  0.4376440000000 1.0
C      1  0.5848920000000  0.5542020000000  0.4646940000000 1.0
C      1  0.4257770000000  0.5555770000000  0.4443780000000 1.0
C      1  0.4885760000000  0.5567670000000  0.5909920000000 1.0
C      1  0.5880420000000  0.4455620000000  0.4667480000000 1.0
C      1  0.4245980000000  0.4462990000000  0.4425950000000 1.0
C      1  0.4867960000000  0.4413700000000  0.5902680000000 1.0
C      1  0.4110080000000  0.5563010000000  0.4664080000000 1.0
C      1  0.5740490000000  0.5568100000000  0.4405550000000 1.0
C      1  0.5149290000000  0.5584290000000  0.5932500000000 1.0
C      1  0.4109250000000  0.4457160000000  0.4653700000000 1.0
C      1  0.5719880000000  0.4487510000000  0.4458030000000 1.0
C      1  0.5127780000000  0.4418040000000  0.5918880000000 1.0
C      1  0.5158730000000  0.5618730000000  0.5436670000000 1.0
C      1  0.5307060000000  0.5630290000000  0.4637050000000 1.0
C      1  0.4530880000000  0.5616390000000  0.4915090000000 1.0
C      1  0.5161570000000  0.4410420000000  0.5425840000000 1.0
C      1  0.5295920000000  0.4418540000000  0.4691140000000 1.0
C      1  0.4526890000000  0.4389770000000  0.4899040000000 1.0
C      1  0.4846740000000  0.5595200000000  0.5410630000000 1.0
C      1  0.4708180000000  0.5601680000000  0.4658270000000 1.0
C      1  0.5436020000000  0.5594980000000  0.4920870000000 1.0
C      1  0.4835710000000  0.4408910000000  0.5408430000000 1.0
C      1  0.4692330000000  0.4394910000000  0.4627460000000 1.0
C      1  0.5475590000000  0.4378510000000  0.4943310000000 1.0
C      1  0.5280320000000  0.5843620000000  0.4999830000000 1.0
C      1  0.4857240000000  0.5845470000000  0.4756490000000 1.0
C      1  0.4855600000000  0.5841520000000  0.5238130000000 1.0
C      1  0.5284300000000  0.4157360000000  0.5013830000000 1.0
C      1  0.4861550000000  0.4169960000000  0.4750680000000 1.0
C      1  0.4852120000000  0.4166520000000  0.5239430000000 1.0
C      1  0.4709950000000  0.5840610000000  0.5002310000000 1.0
C      1  0.5136650000000  0.5848050000000  0.4750930000000 1.0
C      1  0.5143270000000  0.5841850000000  0.5240300000000 1.0
C      1  0.4715340000000  0.4172080000000  0.4993850000000 1.0
C      1  0.5140290000000  0.4171900000000  0.4763390000000 1.0
C      1  0.5140140000000  0.4165810000000  0.5249090000000 1.0
C      1  0.5487380000000  0.5377980000000  0.5569580000000 1.0
C      1  0.5248790000000  0.5385040000000  0.4287160000000 1.0
C      1  0.4263500000000  0.5352370000000  0.5129740000000 1.0
C      1  0.5390740000000  0.4758350000000  0.5651620000000 1.0
C      1  0.5307140000000  0.4764990000000  0.4367760000000 1.0
C      1  0.4267100000000  0.4659270000000  0.5120940000000 1.0
C      1  0.4601700000000  0.5267420000000  0.5620780000000 1.0
C      1  0.4662970000000  0.5280810000000  0.4323130000000 1.0
C      1  0.5737590000000  0.5247700000000  0.5040680000000 1.0
C      1  0.4604030000000  0.4738330000000  0.5626030000000 1.0
C      1  0.4652610000000  0.4741290000000  0.4305160000000 1.0
C      1  0.5760170000000  0.4621230000000  0.5162380000000 1.0
C      1  0.5469340000000  0.5132830000000  0.4936860000000 1.0
C      1  0.4733730000000  0.5152790000000  0.4590980000000 1.0
C      1  0.4817060000000  0.5142810000000  0.5428940000000 1.0
C      1  0.5462510000000  0.4846810000000  0.4887320000000 1.0
C      1  0.4715780000000  0.4853670000000  0.4572880000000 1.0
C      1  0.4813920000000  0.4847460000000  0.5443070000000 1.0
C      1  0.4549130000000  0.5138830000000  0.4832640000000 1.0
C      1  0.5338990000000  0.5162500000000  0.4669840000000 1.0
C      1  0.5107130000000  0.5143150000000  0.5466070000000 1.0
C      1  0.4548960000000  0.4864370000000  0.4822040000000 1.0
C      1  0.5279230000000  0.4878050000000  0.4652480000000 1.0
C      1  0.5160350000000  0.4864890000000  0.5482260000000 1.0
C      1  0.4997280000000  0.5327160000000  0.4992320000000 1.0
C      1  0.5035240000000  0.4694620000000  0.5056730000000 1.0
END
