TITL C-36760-7589-9 -0.349907882746485 125000 -955.42295682329 0 0 137 (C2) n - 1
REM
REM in /rds/project/t2_vol4/rds-t2-cs072/BORA/CARBON/from-Arr/AIRSS/Generating-Clusters/GAP-ML-2020/Higher-Symm/SD-CG/HFTN-CG
REM
REM
REM
REM
REM
REM ./C.cell (b20cbc046b6831c77cfcea5457e17084)
REM AIRSS Version 0.9.1 bugfix July 2018 build 013d7b7c2542+ Fri, 06 Jul 2018 19:26:36 +0100
REM compiler GCC version 9.3.0
REM options -cpp -mtune=generic -march=x86-64 -g -O0
REM seed 226346709 997598591 -404102680 670154596 -356386671 1971052490 870852324 905013185 -125144655 1208650113 -869796632 1973903586 850659792 1200664004 449009553 1716865115 -151987136 1298863841 -1533191534 1733511851 -487546460 -68790574 -1184635732 1622772685 218468405 -620601762 -1908786676 -2023306473 -86971915 -1019520334 1757285626 -1511551011 641928578
REM
CELL 1.54180   50.00000   50.00000   50.00000   90.00000   90.00000   90.00000
LATT -1
SFAC C  
C      1  0.4280340000000  0.4458550000000  0.4454710000000 1.0
C      1  0.4280180000000  0.5539320000000  0.5549860000000 1.0
C      1  0.5308190000000  0.5110280000000  0.5436730000000 1.0
C      1  0.5308180000000  0.4888030000000  0.4567700000000 1.0
C      1  0.5057630000000  0.5258990000000  0.4865490000000 1.0
C      1  0.5057760000000  0.4739210000000  0.5138980000000 1.0
C      1  0.5315560000000  0.4319790000000  0.4377980000000 1.0
C      1  0.5315360000000  0.5678520000000  0.5626460000000 1.0
C      1  0.4955300000000  0.4189660000000  0.5366420000000 1.0
C      1  0.4954910000000  0.5808490000000  0.4638060000000 1.0
C      1  0.5658460000000  0.4507390000000  0.5681070000000 1.0
C      1  0.5658160000000  0.5491070000000  0.4323320000000 1.0
C      1  0.5369200000000  0.5706670000000  0.4923950000000 1.0
C      1  0.5369520000000  0.4291660000000  0.5080480000000 1.0
C      1  0.4875640000000  0.5433840000000  0.5852630000000 1.0
C      1  0.4875710000000  0.4564280000000  0.4151870000000 1.0
C      1  0.5089320000000  0.5299260000000  0.4575550000000 1.0
C      1  0.5089500000000  0.4698950000000  0.5428920000000 1.0
C      1  0.5319800000000  0.5128710000000  0.4069360000000 1.0
C      1  0.5319990000000  0.4869600000000  0.5935070000000 1.0
C      1  0.4293390000000  0.5744500000000  0.5256800000000 1.0
C      1  0.4293670000000  0.4253380000000  0.4747770000000 1.0
C      1  0.4214800000000  0.4742160000000  0.4456770000000 1.0
C      1  0.4214770000000  0.5255680000000  0.5547820000000 1.0
C      1  0.6000720000000  0.4870460000000  0.4938910000000 1.0
C      1  0.6000670000000  0.5128140000000  0.5065440000000 1.0
C      1  0.4491690000000  0.4295350000000  0.5218510000000 1.0
C      1  0.4491360000000  0.5702610000000  0.4786030000000 1.0
C      1  0.5904090000000  0.4881180000000  0.4668570000000 1.0
C      1  0.5904090000000  0.5117380000000  0.5335790000000 1.0
C      1  0.5350920000000  0.5439370000000  0.5782490000000 1.0
C      1  0.5351000000000  0.4558950000000  0.4221940000000 1.0
C      1  0.5201850000000  0.4640310000000  0.4713500000000 1.0
C      1  0.5201740000000  0.5357950000000  0.5290950000000 1.0
C      1  0.5087820000000  0.5035320000000  0.5961270000000 1.0
C      1  0.5087700000000  0.4962890000000  0.4043190000000 1.0
C      1  0.4124450000000  0.5759840000000  0.5446310000000 1.0
C      1  0.4124710000000  0.4237960000000  0.4558290000000 1.0
C      1  0.4471390000000  0.4885040000000  0.4381740000000 1.0
C      1  0.4471430000000  0.5112910000000  0.5622810000000 1.0
C      1  0.4365680000000  0.5539280000000  0.4576570000000 1.0
C      1  0.4365960000000  0.4458630000000  0.5427990000000 1.0
C      1  0.4892080000000  0.5536510000000  0.4543530000000 1.0
C      1  0.4892370000000  0.4461620000000  0.5460960000000 1.0
C      1  0.4835060000000  0.5130820000000  0.4074550000000 1.0
C      1  0.4835240000000  0.4867290000000  0.5929950000000 1.0
C      1  0.5805490000000  0.4451650000000  0.4984460000000 1.0
C      1  0.5805260000000  0.5546860000000  0.5019910000000 1.0
C      1  0.4536720000000  0.4418220000000  0.4316780000000 1.0
C      1  0.4536570000000  0.5579760000000  0.5687760000000 1.0
C      1  0.5282470000000  0.4629130000000  0.4988430000000 1.0
C      1  0.5282320000000  0.5369160000000  0.5016010000000 1.0
C      1  0.5394240000000  0.5758570000000  0.4458520000000 1.0
C      1  0.5394640000000  0.4239770000000  0.5545900000000 1.0
C      1  0.4050050000000  0.5164520000000  0.4554640000000 1.0
C      1  0.4050190000000  0.4833250000000  0.5449970000000 1.0
C      1  0.5120200000000  0.5315560000000  0.5906500000000 1.0
C      1  0.5120210000000  0.4682660000000  0.4097970000000 1.0
C      1  0.4030990000000  0.4901730000000  0.4624580000000 1.0
C      1  0.4031000000000  0.5096030000000  0.5380030000000 1.0
C      1  0.4135810000000  0.4612050000000  0.5323260000000 1.0
C      1  0.4135600000000  0.5385760000000  0.4681340000000 1.0
C      1  0.4406240000000  0.4719950000000  0.4939910000000 1.0
C      1  0.4406130000000  0.5277970000000  0.5064650000000 1.0
C      1  0.5223500000000  0.4597870000000  0.5908910000000 1.0
C      1  0.5223210000000  0.5400400000000  0.4095540000000 1.0
C      1  0.4911240000000  0.4607710000000  0.4704540000000 1.0
C      1  0.4911110000000  0.5390430000000  0.5299950000000 1.0
C      1  0.5063440000000  0.5891040000000  0.5279440000000 1.0
C      1  0.5063780000000  0.4107160000000  0.4725030000000 1.0
C      1  0.5725420000000  0.5220290000000  0.4344460000000 1.0
C      1  0.5725610000000  0.4778190000000  0.5659920000000 1.0
C      1  0.4858260000000  0.4160010000000  0.4923250000000 1.0
C      1  0.4857910000000  0.5838110000000  0.5081250000000 1.0
C      1  0.5498470000000  0.4897300000000  0.5322170000000 1.0
C      1  0.5498380000000  0.5101080000000  0.4682240000000 1.0
C      1  0.4840210000000  0.5118080000000  0.5281890000000 1.0
C      1  0.4840220000000  0.4880030000000  0.4722610000000 1.0
C      1  0.5328720000000  0.5840500000000  0.5191760000000 1.0
C      1  0.5329050000000  0.4157810000000  0.4812680000000 1.0
C      1  0.5798360000000  0.5146530000000  0.4625090000000 1.0
C      1  0.5798470000000  0.4851980000000  0.5379280000000 1.0
C      1  0.5232230000000  0.4179780000000  0.5325670000000 1.0
C      1  0.5231830000000  0.5818490000000  0.4678770000000 1.0
C      1  0.4746110000000  0.4122860000000  0.5189830000000 1.0
C      1  0.4745710000000  0.5875200000000  0.4814680000000 1.0
C      1  0.5653450000000  0.4327700000000  0.5450320000000 1.0
C      1  0.5653100000000  0.5670750000000  0.4554070000000 1.0
C      1  0.4609730000000  0.5328410000000  0.5781760000000 1.0
C      1  0.4609760000000  0.4669600000000  0.4222780000000 1.0
C      1  0.5562890000000  0.4969390000000  0.5806290000000 1.0
C      1  0.5562770000000  0.5029020000000  0.4198110000000 1.0
C      1  0.4563190000000  0.4798560000000  0.5174480000000 1.0
C      1  0.4563080000000  0.5199430000000  0.4830060000000 1.0
C      1  0.5915610000000  0.4680400000000  0.5122360000000 1.0
C      1  0.5915460000000  0.5318160000000  0.4882000000000 1.0
C      1  0.4509770000000  0.5411800000000  0.4332960000000 1.0
C      1  0.4510030000000  0.4586170000000  0.5671580000000 1.0
C      1  0.4763720000000  0.4431080000000  0.4894320000000 1.0
C      1  0.4763490000000  0.5566990000000  0.5110200000000 1.0
C      1  0.4932270000000  0.5391280000000  0.4096710000000 1.0
C      1  0.4932560000000  0.4606860000000  0.5907780000000 1.0
C      1  0.4564850000000  0.5136050000000  0.4243280000000 1.0
C      1  0.4565020000000  0.4861940000000  0.5761260000000 1.0
C      1  0.4463110000000  0.5586480000000  0.5071610000000 1.0
C      1  0.4463350000000  0.4411460000000  0.4932940000000 1.0
C      1  0.4823320000000  0.5677870000000  0.5704250000000 1.0
C      1  0.4823510000000  0.4320230000000  0.4300250000000 1.0
C      1  0.4547320000000  0.5074710000000  0.5286860000000 1.0
C      1  0.4547320000000  0.4923270000000  0.4717680000000 1.0
C      1  0.5045850000000  0.5791460000000  0.5558200000000 1.0
C      1  0.5046110000000  0.4206730000000  0.4446280000000 1.0
C      1  0.5708830000000  0.4445490000000  0.4699460000000 1.0
C      1  0.5708630000000  0.5552990000000  0.5304920000000 1.0
C      1  0.4124070000000  0.4689470000000  0.5039140000000 1.0
C      1  0.4123930000000  0.5308330000000  0.4965460000000 1.0
C      1  0.5400450000000  0.4418000000000  0.5777320000000 1.0
C      1  0.5400100000000  0.5580350000000  0.4227110000000 1.0
C      1  0.3959940000000  0.4882450000000  0.4918200000000 1.0
C      1  0.3959910000000  0.5115280000000  0.5086430000000 1.0
C      1  0.5444800000000  0.5132540000000  0.4948210000000 1.0
C      1  0.5444870000000  0.4865820000000  0.5056210000000 1.0
C      1  0.5042570000000  0.4971010000000  0.5468300000000 1.0
C      1  0.5042500000000  0.5027180000000  0.4536180000000 1.0
C      1  0.4794050000000  0.4603320000000  0.5168520000000 1.0
C      1  0.4793860000000  0.5394770000000  0.4835990000000 1.0
C      1  0.5529970000000  0.5233920000000  0.5663650000000 1.0
C      1  0.5529980000000  0.4764480000000  0.4340760000000 1.0
C      1  0.5648390000000  0.4315080000000  0.5169730000000 1.0
C      1  0.5648080000000  0.5683370000000  0.4834660000000 1.0
C      1  0.5491880000000  0.4273120000000  0.4608150000000 1.0
C      1  0.5491620000000  0.5725260000000  0.5396270000000 1.0
C      1  0.4758830000000  0.5527910000000  0.4285040000000 1.0
C      1  0.4759150000000  0.4470170000000  0.5719470000000 1.0
C      1  0.5748800000000  0.5322580000000  0.5463360000000 1.0
C      1  0.5748870000000  0.4675910000000  0.4541010000000 1.0
C      1  0.4949610000000  0.4999080000000  0.5002240000000 1.0
END
