TITL C-36740-7474-7 24.1121514530438 125000 -373.959528143322 0 0 57 (C1) n - 1
REM
REM in /rds/project/t2_vol4/rds-t2-cs072/BORA/CARBON/from-Arr/AIRSS/Generating-Clusters/GAP-ML-2020/Higher-Symm/SD-CG/HFTN-CG
REM
REM
REM
REM
REM
REM ./C.cell (b20cbc046b6831c77cfcea5457e17084)
REM AIRSS Version 0.9.1 bugfix July 2018 build 013d7b7c2542+ Fri, 06 Jul 2018 19:26:36 +0100
REM compiler GCC version 9.3.0
REM options -cpp -mtune=generic -march=x86-64 -g -O0
REM seed 435952597 99265454 -2003852497 1582953797 644230188 -1822592024 -599815958 886871368 1388068927 656543243 16657255 -1738874511 -1697324255 -195752088 148284877 -1641060665 -1522951960 1998782870 126615033 -636957141 104590690 44303093 1953472147 -1285193116 -1744087728 114772244 -1332731120 -1005435057 -985157836 -378474612 -1520107784 247675074 -944165053
REM
CELL 1.54180   50.00000   50.00000   50.00000   90.00000   90.00000   90.00000
LATT -1
SFAC C  
C      1  0.4344470000000  0.5281130000000  0.5320220000000 1.0
C      1  0.5651420000000  0.5283200000000  0.4667040000000 1.0
C      1  0.5659890000000  0.4710090000000  0.5321420000000 1.0
C      1  0.4347330000000  0.4715570000000  0.4657980000000 1.0
C      1  0.4914030000000  0.4403700000000  0.5151430000000 1.0
C      1  0.5241480000000  0.4401500000000  0.4825150000000 1.0
C      1  0.5244670000000  0.5593590000000  0.5163800000000 1.0
C      1  0.4758260000000  0.5600810000000  0.4838130000000 1.0
C      1  0.4335520000000  0.5359510000000  0.5045410000000 1.0
C      1  0.5666280000000  0.5357920000000  0.4940880000000 1.0
C      1  0.5645300000000  0.4626970000000  0.5051350000000 1.0
C      1  0.4317280000000  0.4636190000000  0.4926760000000 1.0
C      1  0.5206430000000  0.4393350000000  0.5142040000000 1.0
C      1  0.4728700000000  0.4397420000000  0.4931630000000 1.0
C      1  0.4737580000000  0.5614770000000  0.5122300000000 1.0
C      1  0.5266770000000  0.5620430000000  0.4881310000000 1.0
C      1  0.4303300000000  0.4996590000000  0.4614900000000 1.0
C      1  0.5713610000000  0.4993550000000  0.5362920000000 1.0
C      1  0.5696870000000  0.5000390000000  0.4617080000000 1.0
C      1  0.4293930000000  0.4998190000000  0.5362310000000 1.0
C      1  0.5444370000000  0.4979440000000  0.4450560000000 1.0
C      1  0.4540450000000  0.4969480000000  0.5533950000000 1.0
C      1  0.4555730000000  0.5023160000000  0.4449680000000 1.0
C      1  0.5470250000000  0.5024710000000  0.5542360000000 1.0
C      1  0.4819970000000  0.5388200000000  0.5320720000000 1.0
C      1  0.5181350000000  0.5396800000000  0.4680100000000 1.0
C      1  0.5200280000000  0.4636800000000  0.5350540000000 1.0
C      1  0.4817630000000  0.4609690000000  0.4688040000000 1.0
C      1  0.5102830000000  0.4561330000000  0.4623940000000 1.0
C      1  0.4909360000000  0.4579630000000  0.5393050000000 1.0
C      1  0.4894750000000  0.5441280000000  0.4624880000000 1.0
C      1  0.5107830000000  0.5427660000000  0.5374660000000 1.0
C      1  0.5492740000000  0.5568600000000  0.5025370000000 1.0
C      1  0.4511670000000  0.5570760000000  0.4973800000000 1.0
C      1  0.4462940000000  0.4409800000000  0.4977980000000 1.0
C      1  0.5455010000000  0.4417990000000  0.4987650000000 1.0
C      1  0.5651680000000  0.4880140000000  0.4885440000000 1.0
C      1  0.4338450000000  0.4885480000000  0.5093590000000 1.0
C      1  0.4345750000000  0.5109140000000  0.4884890000000 1.0
C      1  0.5661270000000  0.5105850000000  0.5097640000000 1.0
C      1  0.4594420000000  0.5271710000000  0.5480120000000 1.0
C      1  0.5399550000000  0.5282060000000  0.4512290000000 1.0
C      1  0.5428090000000  0.4725980000000  0.5502210000000 1.0
C      1  0.4602900000000  0.4719790000000  0.4514630000000 1.0
C      1  0.4639420000000  0.5125800000000  0.4830230000000 1.0
C      1  0.5368000000000  0.5122570000000  0.5164360000000 1.0
C      1  0.5359220000000  0.4875400000000  0.4825080000000 1.0
C      1  0.4630920000000  0.4859910000000  0.5154930000000 1.0
C      1  0.5234490000000  0.5156540000000  0.4872680000000 1.0
C      1  0.4760100000000  0.5148580000000  0.5126370000000 1.0
C      1  0.4766760000000  0.4843600000000  0.4869480000000 1.0
C      1  0.5241110000000  0.4845260000000  0.5127630000000 1.0
C      1  0.5308800000000  0.5233770000000  0.5432190000000 1.0
C      1  0.4699610000000  0.5243090000000  0.4563940000000 1.0
C      1  0.4687600000000  0.4749460000000  0.5421580000000 1.0
C      1  0.5295620000000  0.4760010000000  0.4560020000000 1.0
C      1  0.5000000000000  0.4999820000000  0.5001880000000 1.0
END
