TITL C-36744-7472-12 0.00894239103521632 125000 -114.009125697978 0 0 18 (C1) n - 1
REM
REM in /rds/project/t2_vol4/rds-t2-cs072/BORA/CARBON/from-Arr/AIRSS/Generating-Clusters/GAP-ML-2020/Higher-Symm/SD-CG/HFTN-CG
REM
REM
REM
REM
REM
REM ./C.cell (b20cbc046b6831c77cfcea5457e17084)
REM AIRSS Version 0.9.1 bugfix July 2018 build 013d7b7c2542+ Fri, 06 Jul 2018 19:26:36 +0100
REM compiler GCC version 9.3.0
REM options -cpp -mtune=generic -march=x86-64 -g -O0
REM seed -998111156 -2060984609 957706830 358333729 1514033867 -1998136401 120657122 1961756825 1935179231 -932533616 -1156191348 -609145601 302795190 365489918 -696246604 1805482546 -1167141047 -385621069 1830457277 -1733927590 -51664369 1883777352 -1974550189 1999438073 -1201870777 517481045 956005260 -368013978 1895544540 -289020297 -1505061774 -562115787 33930563
REM
CELL 1.54180   50.00000   50.00000   50.00000   90.00000   90.00000   90.00000
LATT -1
SFAC C  
C      1  0.5338080000000  0.5166780000000  0.5147160000000 1.0
C      1  0.5385560000000  0.4604710000000  0.4674170000000 1.0
C      1  0.5438870000000  0.5348090000000  0.4791380000000 1.0
C      1  0.4758320000000  0.5496620000000  0.4830450000000 1.0
C      1  0.4494120000000  0.5111810000000  0.4844240000000 1.0
C      1  0.4689770000000  0.4643810000000  0.5013220000000 1.0
C      1  0.5242620000000  0.5394860000000  0.4990700000000 1.0
C      1  0.5112530000000  0.5027540000000  0.5252210000000 1.0
C      1  0.5094420000000  0.4799570000000  0.5408030000000 1.0
C      1  0.5480930000000  0.5068330000000  0.4909150000000 1.0
C      1  0.4538110000000  0.5362430000000  0.4778740000000 1.0
C      1  0.4668240000000  0.4961390000000  0.5000480000000 1.0
C      1  0.4865800000000  0.4560590000000  0.4826220000000 1.0
C      1  0.4693930000000  0.4514140000000  0.5281750000000 1.0
C      1  0.4953890000000  0.5374600000000  0.4980190000000 1.0
C      1  0.4885080000000  0.5118040000000  0.5102870000000 1.0
C      1  0.5446310000000  0.4825290000000  0.4786080000000 1.0
C      1  0.4913430000000  0.4621380000000  0.5382970000000 1.0
END
