TITL C-36748-7693-2 -4.82810888018251 125000 -90.0938422407747 0 0 14 (C2) n - 1
REM
REM in /rds/project/t2_vol4/rds-t2-cs072/BORA/CARBON/from-Arr/AIRSS/Generating-Clusters/GAP-ML-2020/Higher-Symm/SD-CG/HFTN-CG
REM
REM
REM
REM
REM
REM ./C.cell (b20cbc046b6831c77cfcea5457e17084)
REM AIRSS Version 0.9.1 bugfix July 2018 build 013d7b7c2542+ Fri, 06 Jul 2018 19:26:36 +0100
REM compiler GCC version 9.3.0
REM options -cpp -mtune=generic -march=x86-64 -g -O0
REM seed -675177701 911532861 -1060755332 2125289148 903245211 1441227845 -1664328460 1774124122 -1660878094 -1384768947 -1357566279 -340300085 -1338239301 291960360 -2071158886 1692633550 232750282 -943992953 -1158342194 989516447 -1501242474 -1337066361 1344390263 1462791464 -108281751 725903449 -1741862916 -1631343315 706618183 1012194536 -1473042717 992606055 1158275562
REM
CELL 1.54180   50.00000   50.00000   50.00000   90.00000   90.00000   90.00000
LATT -1
SFAC C  
C      1  0.5186240000000  0.4978550000000  0.5523890000000 1.0
C      1  0.4839770000000  0.5109110000000  0.4475200000000 1.0
C      1  0.4732140000000  0.4821050000000  0.5385450000000 1.0
C      1  0.5051380000000  0.4679900000000  0.4620700000000 1.0
C      1  0.5362750000000  0.4999860000000  0.4844540000000 1.0
C      1  0.5198820000000  0.5134730000000  0.5035130000000 1.0
C      1  0.4945260000000  0.5238630000000  0.4960530000000 1.0
C      1  0.4735560000000  0.5262780000000  0.5152450000000 1.0
C      1  0.4663370000000  0.5045990000000  0.5262450000000 1.0
C      1  0.5259910000000  0.4793150000000  0.4739630000000 1.0
C      1  0.5251400000000  0.5086490000000  0.5298390000000 1.0
C      1  0.4871720000000  0.5236180000000  0.4697870000000 1.0
C      1  0.4909300000000  0.4852990000000  0.4491160000000 1.0
C      1  0.4956050000000  0.4845970000000  0.5512610000000 1.0
END
