TITL C-38724-7406-11 -0.00508156640489019 125000 -51.3110357192706 0 0 8 (D(inf)h) n - 1
REM
REM in /rds/project/t2_vol4/rds-t2-cs072/BORA/CARBON/from-Arr/AIRSS/Generating-Clusters/GAP-ML-2020/Higher-Symm/SD-CG/HFTN-CG
REM
REM
REM
REM
REM
REM ./C.cell (b20cbc046b6831c77cfcea5457e17084)
REM AIRSS Version 0.9.1 bugfix July 2018 build 013d7b7c2542+ Fri, 06 Jul 2018 19:26:36 +0100
REM compiler GCC version 9.3.0
REM options -cpp -mtune=generic -march=x86-64 -g -O0
REM seed -1504385253 -1122635496 -229313771 905189964 -1493862716 -614520543 958209177 -2016863504 1996980748 -5035933 -1807346197 188221943 -1480934937 -1294489048 -1262846274 751899057 -2091832316 1859608778 92030785 -661049396 1235049476 485870757 -1347619605 1225189867 -151835806 -961233653 -1891605729 -1746622901 -433078480 395297313 -1490882024 411861733 -36424301
REM
CELL 1.54180   50.00000   50.00000   50.00000   90.00000   90.00000   90.00000
LATT -1
SFAC C  
C      1  0.5006810000000  0.5381020000000  0.5013640000000 1.0
C      1  0.5006810000000  0.4618980000000  0.5013640000000 1.0
C      1  0.5006810000000  0.5896510000000  0.5013640000000 1.0
C      1  0.5006810000000  0.4358710000000  0.5013640000000 1.0
C      1  0.5006810000000  0.5130250000000  0.5013640000000 1.0
C      1  0.5006810000000  0.4869750000000  0.5013640000000 1.0
C      1  0.5006810000000  0.4103490000000  0.5013640000000 1.0
C      1  0.5006810000000  0.5641290000000  0.5013640000000 1.0
END
