TITL C-38616-858-3 0.0209204790119663 125000 -158.959122793355 0 0 24 (Ci) n - 1
REM
REM in /rds/project/t2_vol4/rds-t2-cs072/BORA/CARBON/from-Arr/AIRSS/Generating-Clusters/GAP-ML-2020/Higher-Symm/SD-CG/HFTN-CG
REM
REM
REM
REM
REM
REM ./C.cell (b20cbc046b6831c77cfcea5457e17084)
REM AIRSS Version 0.9.1 bugfix July 2018 build 013d7b7c2542+ Fri, 06 Jul 2018 19:26:36 +0100
REM compiler GCC version 9.3.0
REM options -cpp -mtune=generic -march=x86-64 -g -O0
REM seed -473904291 317894797 1996657197 1293743714 1651338393 -1040297598 -1562418441 1007137948 1237875797 -523219857 1727562977 1248589831 134011645 1954033996 -27872014 -1567958967 -1410965859 -1937222835 1143729552 130095845 521120690 91255147 -2104389691 -1112535809 -1504396810 662560099 -660378759 -2030881425 1570632399 -1216254099 198824816 1145112053 1121748825
REM
CELL 1.54180   50.00000   50.00000   50.00000   90.00000   90.00000   90.00000
LATT -1
SFAC C  
C      1  0.4610630000000  0.4832860000000  0.5234950000000 1.0
C      1  0.5389370000000  0.5167140000000  0.4765050000000 1.0
C      1  0.5409820000000  0.4612730000000  0.5234120000000 1.0
C      1  0.4590180000000  0.5387270000000  0.4765880000000 1.0
C      1  0.5365570000000  0.4689830000000  0.4803060000000 1.0
C      1  0.4634430000000  0.5310170000000  0.5196940000000 1.0
C      1  0.5038500000000  0.5424970000000  0.4502220000000 1.0
C      1  0.4961500000000  0.4575030000000  0.5497780000000 1.0
C      1  0.4940130000000  0.4846410000000  0.4578100000000 1.0
C      1  0.5059870000000  0.5153590000000  0.5421900000000 1.0
C      1  0.5151220000000  0.4722310000000  0.4629460000000 1.0
C      1  0.4848780000000  0.5277690000000  0.5370540000000 1.0
C      1  0.4540180000000  0.5094070000000  0.4800940000000 1.0
C      1  0.5459820000000  0.4905930000000  0.5199060000000 1.0
C      1  0.5248180000000  0.5313450000000  0.4620130000000 1.0
C      1  0.4751820000000  0.4686550000000  0.5379870000000 1.0
C      1  0.5206800000000  0.4678760000000  0.5442880000000 1.0
C      1  0.4793200000000  0.5321240000000  0.4557120000000 1.0
C      1  0.4596140000000  0.5517630000000  0.5006150000000 1.0
C      1  0.5403860000000  0.4482370000000  0.4993850000000 1.0
C      1  0.4741580000000  0.5034940000000  0.4595280000000 1.0
C      1  0.5258420000000  0.4965060000000  0.5404720000000 1.0
C      1  0.4540700000000  0.5051640000000  0.5084640000000 1.0
C      1  0.5459300000000  0.4948360000000  0.4915360000000 1.0
END
