TITL C-38606-720-4 -0.100470158229113 125000 -791.555933824078 0 0 115 (Cs) n - 1
REM
REM in /rds/project/t2_vol4/rds-t2-cs072/BORA/CARBON/from-Arr/AIRSS/Generating-Clusters/GAP-ML-2020/Higher-Symm/SD-CG/HFTN-CG
REM
REM
REM
REM
REM
REM ./C.cell (b20cbc046b6831c77cfcea5457e17084)
REM AIRSS Version 0.9.1 bugfix July 2018 build 013d7b7c2542+ Fri, 06 Jul 2018 19:26:36 +0100
REM compiler GCC version 9.3.0
REM options -cpp -mtune=generic -march=x86-64 -g -O0
REM seed 639490838 1114196236 -1002425219 -2097271405 -1663653755 -1702298301 1355033894 -242455404 822829259 944305579 429737773 1146496613 -211884881 1727173950 1860053454 1742259030 607466887 279134136 98802622 1957121651 975141128 1719813191 -478450344 -953537230 437307292 426661064 1758344745 -2115753404 1562452603 -1468569653 940757307 -356661810 708083088
REM
CELL 1.54180   50.00000   50.00000   50.00000   90.00000   90.00000   90.00000
LATT -1
SFAC C  
C      1  0.5761860000000  0.4805540000000  0.5239880000000 1.0
C      1  0.5755860000000  0.5109420000000  0.5291240000000 1.0
C      1  0.5752580000000  0.5305930000000  0.5054790000000 1.0
C      1  0.5753150000000  0.5204310000000  0.4764190000000 1.0
C      1  0.5754650000000  0.4900920000000  0.4706640000000 1.0
C      1  0.5760620000000  0.4698540000000  0.4945260000000 1.0
C      1  0.4232720000000  0.4805420000000  0.5239880000000 1.0
C      1  0.4238670000000  0.5109310000000  0.5291240000000 1.0
C      1  0.4241930000000  0.5305810000000  0.5054790000000 1.0
C      1  0.4241370000000  0.5204190000000  0.4764190000000 1.0
C      1  0.4239920000000  0.4900810000000  0.4706640000000 1.0
C      1  0.4233970000000  0.4698420000000  0.4945260000000 1.0
C      1  0.4782720000000  0.5759650000000  0.5377480000000 1.0
C      1  0.4782590000000  0.5708360000000  0.4535920000000 1.0
C      1  0.4781540000000  0.4955070000000  0.4158210000000 1.0
C      1  0.4776650000000  0.4256680000000  0.4621590000000 1.0
C      1  0.4776620000000  0.4306080000000  0.5457640000000 1.0
C      1  0.4780280000000  0.5056610000000  0.5845070000000 1.0
C      1  0.5211710000000  0.5759680000000  0.5377480000000 1.0
C      1  0.5211860000000  0.5708390000000  0.4535910000000 1.0
C      1  0.5213010000000  0.4955100000000  0.4158210000000 1.0
C      1  0.5218010000000  0.4256710000000  0.4621590000000 1.0
C      1  0.5218040000000  0.4306110000000  0.5457640000000 1.0
C      1  0.5214260000000  0.5056640000000  0.5845070000000 1.0
C      1  0.5155480000000  0.5265310000000  0.4849170000000 1.0
C      1  0.5157790000000  0.4997410000000  0.4698300000000 1.0
C      1  0.5235820000000  0.4759470000000  0.4854410000000 1.0
C      1  0.5235920000000  0.4759680000000  0.5147120000000 1.0
C      1  0.5157120000000  0.4996050000000  0.5306020000000 1.0
C      1  0.5155310000000  0.5265180000000  0.5154610000000 1.0
C      1  0.4839030000000  0.5265290000000  0.4849170000000 1.0
C      1  0.4836760000000  0.4997390000000  0.4698300000000 1.0
C      1  0.4758760000000  0.4759440000000  0.4854410000000 1.0
C      1  0.4758670000000  0.4759640000000  0.5147120000000 1.0
C      1  0.4837430000000  0.4996030000000  0.5306020000000 1.0
C      1  0.4839200000000  0.5265150000000  0.5154610000000 1.0
C      1  0.3927670000000  0.4830590000000  0.5220070000000 1.0
C      1  0.3928830000000  0.5112440000000  0.5268040000000 1.0
C      1  0.3932570000000  0.5292210000000  0.5044810000000 1.0
C      1  0.3932380000000  0.5190920000000  0.4776630000000 1.0
C      1  0.3932870000000  0.4908420000000  0.4730510000000 1.0
C      1  0.3932120000000  0.4730460000000  0.4953230000000 1.0
C      1  0.6066910000000  0.4830750000000  0.5220070000000 1.0
C      1  0.6065710000000  0.5112600000000  0.5268040000000 1.0
C      1  0.6061940000000  0.5292370000000  0.5044800000000 1.0
C      1  0.6062140000000  0.5191080000000  0.4776630000000 1.0
C      1  0.6061690000000  0.4908580000000  0.4730510000000 1.0
C      1  0.6062470000000  0.4730620000000  0.4953230000000 1.0
C      1  0.4861290000000  0.5711820000000  0.5647230000000 1.0
C      1  0.4861270000000  0.5917990000000  0.4712120000000 1.0
C      1  0.4861290000000  0.5212460000000  0.4064870000000 1.0
C      1  0.4860640000000  0.4306000000000  0.4354650000000 1.0
C      1  0.4861330000000  0.4104230000000  0.5278810000000 1.0
C      1  0.4861530000000  0.4798400000000  0.5932220000000 1.0
C      1  0.5133150000000  0.5711840000000  0.5647230000000 1.0
C      1  0.5133150000000  0.5918010000000  0.4712120000000 1.0
C      1  0.5133230000000  0.5212480000000  0.4064870000000 1.0
C      1  0.5134010000000  0.4306020000000  0.4354650000000 1.0
C      1  0.5133360000000  0.4104250000000  0.5278810000000 1.0
C      1  0.5133050000000  0.4798420000000  0.5932220000000 1.0
C      1  0.4761570000000  0.4591770000000  0.5763340000000 1.0
C      1  0.4762100000000  0.5463650000000  0.5745370000000 1.0
C      1  0.4762060000000  0.5879240000000  0.4975860000000 1.0
C      1  0.4762190000000  0.5421240000000  0.4230190000000 1.0
C      1  0.4759180000000  0.4550160000000  0.4252020000000 1.0
C      1  0.4757550000000  0.4136610000000  0.5017090000000 1.0
C      1  0.5233040000000  0.4591800000000  0.5763340000000 1.0
C      1  0.5232380000000  0.5463690000000  0.5745370000000 1.0
C      1  0.5232360000000  0.5879280000000  0.4975860000000 1.0
C      1  0.5232290000000  0.5421270000000  0.4230190000000 1.0
C      1  0.5235440000000  0.4550190000000  0.4252020000000 1.0
C      1  0.5237130000000  0.4136650000000  0.5017090000000 1.0
C      1  0.4551270000000  0.5693690000000  0.4935100000000 1.0
C      1  0.4550670000000  0.5293090000000  0.4368670000000 1.0
C      1  0.4539340000000  0.4601840000000  0.4425230000000 1.0
C      1  0.4533090000000  0.4306640000000  0.5064390000000 1.0
C      1  0.4542340000000  0.4719440000000  0.5636010000000 1.0
C      1  0.4550550000000  0.5407230000000  0.5565320000000 1.0
C      1  0.5443180000000  0.5693760000000  0.4935100000000 1.0
C      1  0.5443840000000  0.5293160000000  0.4368670000000 1.0
C      1  0.5455270000000  0.4601910000000  0.4425230000000 1.0
C      1  0.5461560000000  0.4306710000000  0.5064390000000 1.0
C      1  0.5452250000000  0.4719500000000  0.5636010000000 1.0
C      1  0.5443940000000  0.5407300000000  0.5565320000000 1.0
C      1  0.4401630000000  0.5173720000000  0.5527780000000 1.0
C      1  0.4403640000000  0.5544050000000  0.5118500000000 1.0
C      1  0.4403910000000  0.5377400000000  0.4590370000000 1.0
C      1  0.4398050000000  0.4839350000000  0.4467340000000 1.0
C      1  0.4381310000000  0.4454230000000  0.4878400000000 1.0
C      1  0.4382490000000  0.4629500000000  0.5421860000000 1.0
C      1  0.5592900000000  0.5173810000000  0.5527780000000 1.0
C      1  0.5590830000000  0.5544140000000  0.5118500000000 1.0
C      1  0.5590590000000  0.5377490000000  0.4590370000000 1.0
C      1  0.5596520000000  0.4839440000000  0.4467340000000 1.0
C      1  0.5613320000000  0.4454320000000  0.4878400000000 1.0
C      1  0.5612120000000  0.4629590000000  0.5421860000000 1.0
C      1  0.4630280000000  0.5512020000000  0.5300290000000 1.0
C      1  0.4630290000000  0.5517170000000  0.4711010000000 1.0
C      1  0.4629110000000  0.5010990000000  0.4410320000000 1.0
C      1  0.4600090000000  0.4489990000000  0.4689740000000 1.0
C      1  0.4594210000000  0.4476820000000  0.5296170000000 1.0
C      1  0.4624780000000  0.5000280000000  0.5595390000000 1.0
C      1  0.5364190000000  0.5512080000000  0.5300290000000 1.0
C      1  0.5364180000000  0.5517220000000  0.4711010000000 1.0
C      1  0.5365440000000  0.5011040000000  0.4410320000000 1.0
C      1  0.5394530000000  0.4490050000000  0.4689740000000 1.0
C      1  0.5400420000000  0.4476880000000  0.5296170000000 1.0
C      1  0.5369770000000  0.5000340000000  0.5595390000000 1.0
C      1  0.4997260000000  0.5273560000000  0.5852210000000 1.0
C      1  0.4997340000000  0.4146300000000  0.4800430000000 1.0
C      1  0.4997320000000  0.4408980000000  0.5641990000000 1.0
C      1  0.4997210000000  0.5877510000000  0.5192260000000 1.0
C      1  0.4997230000000  0.5606980000000  0.4341500000000 1.0
C      1  0.4997290000000  0.4737990000000  0.4151810000000 1.0
C      1  0.4997300000000  0.4660360000000  0.5002940000000 1.0
END
