TITL C-38734-7493-10 -82.7385917958032 125000 -336.181351139402 0 0 51 (C1) n - 1
REM
REM in /rds/project/t2_vol4/rds-t2-cs072/BORA/CARBON/from-Arr/AIRSS/Generating-Clusters/GAP-ML-2020/Higher-Symm/SD-CG/HFTN-CG
REM
REM
REM
REM
REM
REM ./C.cell (b20cbc046b6831c77cfcea5457e17084)
REM AIRSS Version 0.9.1 bugfix July 2018 build 013d7b7c2542+ Fri, 06 Jul 2018 19:26:36 +0100
REM compiler GCC version 9.3.0
REM options -cpp -mtune=generic -march=x86-64 -g -O0
REM seed -23744903 -125147099 -1803373103 1601916392 -299193800 59335172 1125925303 -1393586340 1565114710 1769885158 587860659 1569521339 1865585264 214886306 -1413257104 1006045978 1260862564 668892365 -518766966 1018400098 -2129096356 -200839708 -1539269818 -739813610 -1245291399 995571467 1251533264 1070484235 -663940937 -459588110 673534428 -1787203971 -1456065220
REM
CELL 1.54180   50.00000   50.00000   50.00000   90.00000   90.00000   90.00000
LATT -1
SFAC C  
C      1  0.4592800000000  0.5026360000000  0.5494080000000 1.0
C      1  0.4452450000000  0.5106830000000  0.4389080000000 1.0
C      1  0.4589770000000  0.4904270000000  0.4534250000000 1.0
C      1  0.4473070000000  0.5258180000000  0.5592420000000 1.0
C      1  0.5068400000000  0.5669240000000  0.5260110000000 1.0
C      1  0.5049530000000  0.4310780000000  0.4755550000000 1.0
C      1  0.5070890000000  0.5681090000000  0.4653030000000 1.0
C      1  0.5068370000000  0.4289820000000  0.5348570000000 1.0
C      1  0.4931250000000  0.4159710000000  0.4575090000000 1.0
C      1  0.4966710000000  0.5844820000000  0.5434820000000 1.0
C      1  0.5012480000000  0.4058050000000  0.5459790000000 1.0
C      1  0.4986560000000  0.5890220000000  0.4515450000000 1.0
C      1  0.5350200000000  0.5607020000000  0.5167930000000 1.0
C      1  0.5343710000000  0.4357980000000  0.4828880000000 1.0
C      1  0.5348760000000  0.5607020000000  0.4738870000000 1.0
C      1  0.5352080000000  0.4363930000000  0.5266100000000 1.0
C      1  0.5278520000000  0.5104920000000  0.5241000000000 1.0
C      1  0.5281270000000  0.4861030000000  0.4758510000000 1.0
C      1  0.5245020000000  0.5134180000000  0.4636420000000 1.0
C      1  0.5271740000000  0.4839450000000  0.5377210000000 1.0
C      1  0.4474630000000  0.5340420000000  0.4491560000000 1.0
C      1  0.4552780000000  0.4860400000000  0.5268360000000 1.0
C      1  0.4528540000000  0.5463450000000  0.5441880000000 1.0
C      1  0.4511060000000  0.4793110000000  0.4779810000000 1.0
C      1  0.4980070000000  0.5170880000000  0.5193440000000 1.0
C      1  0.4996400000000  0.4788210000000  0.4807680000000 1.0
C      1  0.4966690000000  0.5190750000000  0.4691760000000 1.0
C      1  0.5005960000000  0.4764880000000  0.5392390000000 1.0
C      1  0.4584510000000  0.4536090000000  0.4868530000000 1.0
C      1  0.4599890000000  0.5502290000000  0.5177160000000 1.0
C      1  0.4590100000000  0.4571530000000  0.5272010000000 1.0
C      1  0.4582400000000  0.5478920000000  0.4709550000000 1.0
C      1  0.4896270000000  0.4531260000000  0.4914030000000 1.0
C      1  0.4892480000000  0.5453500000000  0.5110420000000 1.0
C      1  0.4898150000000  0.4527990000000  0.5243220000000 1.0
C      1  0.4884660000000  0.5463220000000  0.4778810000000 1.0
C      1  0.5447580000000  0.4628360000000  0.5292140000000 1.0
C      1  0.5431270000000  0.5338590000000  0.4703590000000 1.0
C      1  0.5457470000000  0.4616910000000  0.4795780000000 1.0
C      1  0.5450460000000  0.5344530000000  0.5194960000000 1.0
C      1  0.5466680000000  0.4234570000000  0.5047490000000 1.0
C      1  0.5484300000000  0.5728110000000  0.4950700000000 1.0
C      1  0.4455210000000  0.5542620000000  0.4945320000000 1.0
C      1  0.4440740000000  0.4437020000000  0.5082430000000 1.0
C      1  0.4854730000000  0.5001190000000  0.5405260000000 1.0
C      1  0.4859810000000  0.4936370000000  0.4570380000000 1.0
C      1  0.5554890000000  0.5239010000000  0.4944610000000 1.0
C      1  0.5560740000000  0.4724200000000  0.5046820000000 1.0
C      1  0.4878720000000  0.5026270000000  0.4954930000000 1.0
C      1  0.4602340000000  0.4950980000000  0.5001690000000 1.0
C      1  0.5446870000000  0.4981950000000  0.4995100000000 1.0
END
