TITL C-38750-7383-8 0.00227587156258035 125000 -40.1418403272222 0 0 7 (C2v) n - 1
REM
REM in /rds/project/t2_vol4/rds-t2-cs072/BORA/CARBON/from-Arr/AIRSS/Generating-Clusters/GAP-ML-2020/Higher-Symm/SD-CG/HFTN-CG
REM
REM
REM
REM
REM
REM ./C.cell (b20cbc046b6831c77cfcea5457e17084)
REM AIRSS Version 0.9.1 bugfix July 2018 build 013d7b7c2542+ Fri, 06 Jul 2018 19:26:36 +0100
REM compiler GCC version 9.3.0
REM options -cpp -mtune=generic -march=x86-64 -g -O0
REM seed 746321650 939753021 -2002659550 -180949090 41538849 -2019373919 -1375122409 -1702332087 1503972837 2072899634 -2010610793 -824869525 506380638 -292730816 -1164014076 -891996952 -321492481 -1605130710 -1812850270 69825610 -613129514 1183390853 840553173 2100602110 -1424493496 -2015284412 1074135825 854840930 1049333271 -862935317 157582005 -1143184080 1949366401
REM
CELL 1.54180   50.00000   50.00000   50.00000   90.00000   90.00000   90.00000
LATT -1
SFAC C  
C      1  0.4852400000000  0.5119570000000  0.5188470000000 1.0
C      1  0.4928190000000  0.4946190000000  0.4970460000000 1.0
C      1  0.4857240000000  0.5080630000000  0.4725050000000 1.0
C      1  0.4770730000000  0.5301670000000  0.5347080000000 1.0
C      1  0.4943000000000  0.4618400000000  0.4998150000000 1.0
C      1  0.4779200000000  0.5233580000000  0.4536620000000 1.0
C      1  0.5173750000000  0.4727790000000  0.4991370000000 1.0
END
