TITL C-38627-590-1 0.0991180060580043 125000 -533.134430888687 0 0 76 (C1) n - 1
REM
REM in /rds/project/t2_vol4/rds-t2-cs072/BORA/CARBON/from-Arr/AIRSS/Generating-Clusters/GAP-ML-2020/Higher-Symm/SD-CG/HFTN-CG
REM
REM
REM
REM
REM
REM ./C.cell (b20cbc046b6831c77cfcea5457e17084)
REM AIRSS Version 0.9.1 bugfix July 2018 build 013d7b7c2542+ Fri, 06 Jul 2018 19:26:36 +0100
REM compiler GCC version 9.3.0
REM options -cpp -mtune=generic -march=x86-64 -g -O0
REM seed 385255770 1375222451 -39639988 1607976406 106635017 2008524917 2004706576 1304039510 1544454536 391507626 692992371 1753079685 233178123 1517005557 -2004941660 1875339359 -780964086 -835123791 -2116238188 -988802946 1375139017 -283304006 163623646 709064540 111913440 -1168191790 651286574 127627888 105167021 1756777539 236436669 -20076558 -1026175220
REM
CELL 1.54180   50.00000   50.00000   50.00000   90.00000   90.00000   90.00000
LATT -1
SFAC C  
C      1  0.5158270000000  0.4925840000000  0.4053850000000 1.0
C      1  0.5084230000000  0.5208590000000  0.4089140000000 1.0
C      1  0.4799540000000  0.5127930000000  0.4072290000000 1.0
C      1  0.4874760000000  0.4845770000000  0.4055490000000 1.0
C      1  0.5233270000000  0.4940640000000  0.5839910000000 1.0
C      1  0.5137150000000  0.5217520000000  0.5814290000000 1.0
C      1  0.4867220000000  0.5120160000000  0.5868560000000 1.0
C      1  0.4964840000000  0.4848250000000  0.5887570000000 1.0
C      1  0.5147920000000  0.4554780000000  0.5140300000000 1.0
C      1  0.5692530000000  0.5114850000000  0.5101980000000 1.0
C      1  0.4678400000000  0.5623640000000  0.5160130000000 1.0
C      1  0.4557760000000  0.4848100000000  0.5173420000000 1.0
C      1  0.5139030000000  0.4572770000000  0.4829260000000 1.0
C      1  0.5566400000000  0.5043920000000  0.4844810000000 1.0
C      1  0.4730560000000  0.5518410000000  0.4881830000000 1.0
C      1  0.4553690000000  0.4885420000000  0.4863540000000 1.0
C      1  0.4997720000000  0.5586160000000  0.4746830000000 1.0
C      1  0.4402730000000  0.5132030000000  0.4689890000000 1.0
C      1  0.4932460000000  0.4437770000000  0.4657440000000 1.0
C      1  0.5589660000000  0.4816370000000  0.4639730000000 1.0
C      1  0.4920270000000  0.5690010000000  0.5299840000000 1.0
C      1  0.4398550000000  0.5018540000000  0.5357520000000 1.0
C      1  0.4907700000000  0.4439050000000  0.5308780000000 1.0
C      1  0.5687730000000  0.4915530000000  0.5300870000000 1.0
C      1  0.4612260000000  0.4699850000000  0.5609660000000 1.0
C      1  0.5320010000000  0.4556780000000  0.5562190000000 1.0
C      1  0.5397460000000  0.5268000000000  0.5414940000000 1.0
C      1  0.4679200000000  0.5435160000000  0.5583760000000 1.0
C      1  0.4545020000000  0.4747890000000  0.4418410000000 1.0
C      1  0.5256450000000  0.4584910000000  0.4375310000000 1.0
C      1  0.5427270000000  0.5240030000000  0.4446140000000 1.0
C      1  0.4701150000000  0.5423400000000  0.4432870000000 1.0
C      1  0.4133070000000  0.5210660000000  0.4814510000000 1.0
C      1  0.4648980000000  0.4217060000000  0.4969390000000 1.0
C      1  0.5839140000000  0.4645520000000  0.4734470000000 1.0
C      1  0.5226340000000  0.5644650000000  0.4926660000000 1.0
C      1  0.4137580000000  0.5290290000000  0.5058070000000 1.0
C      1  0.4773290000000  0.4190820000000  0.5192030000000 1.0
C      1  0.5816600000000  0.4573460000000  0.4980930000000 1.0
C      1  0.5147350000000  0.5735780000000  0.5169170000000 1.0
C      1  0.4851950000000  0.5262230000000  0.4941080000000 1.0
C      1  0.4835420000000  0.5015210000000  0.4797950000000 1.0
C      1  0.5086740000000  0.4883980000000  0.4798130000000 1.0
C      1  0.5287440000000  0.5030820000000  0.4934460000000 1.0
C      1  0.4934870000000  0.5208630000000  0.5198180000000 1.0
C      1  0.4832390000000  0.4958370000000  0.5291440000000 1.0
C      1  0.5089380000000  0.4838630000000  0.5276840000000 1.0
C      1  0.5211300000000  0.5097120000000  0.5199980000000 1.0
C      1  0.5180940000000  0.5345840000000  0.4317650000000 1.0
C      1  0.4614890000000  0.5211660000000  0.4257130000000 1.0
C      1  0.4775520000000  0.4667960000000  0.4251900000000 1.0
C      1  0.5344830000000  0.4806370000000  0.4216560000000 1.0
C      1  0.5193140000000  0.5397170000000  0.5610580000000 1.0
C      1  0.4637200000000  0.5192060000000  0.5734530000000 1.0
C      1  0.4856920000000  0.4635780000000  0.5747880000000 1.0
C      1  0.5412720000000  0.4813010000000  0.5678020000000 1.0
C      1  0.5037090000000  0.4488440000000  0.5577590000000 1.0
C      1  0.5545870000000  0.5011640000000  0.5518050000000 1.0
C      1  0.4946660000000  0.5547310000000  0.5548440000000 1.0
C      1  0.4495660000000  0.4966480000000  0.5615990000000 1.0
C      1  0.4978870000000  0.4514000000000  0.4390810000000 1.0
C      1  0.5511590000000  0.4969260000000  0.4391020000000 1.0
C      1  0.4980450000000  0.5489910000000  0.4475300000000 1.0
C      1  0.4463190000000  0.5022350000000  0.4416580000000 1.0
C      1  0.5566380000000  0.5355370000000  0.5178310000000 1.0
C      1  0.4524330000000  0.5477660000000  0.5349150000000 1.0
C      1  0.4645560000000  0.4618730000000  0.5341410000000 1.0
C      1  0.5404800000000  0.4521720000000  0.5291170000000 1.0
C      1  0.5512090000000  0.5298680000000  0.4715140000000 1.0
C      1  0.4562820000000  0.5403760000000  0.4669160000000 1.0
C      1  0.4526820000000  0.4646110000000  0.4687080000000 1.0
C      1  0.5362960000000  0.4603730000000  0.4632740000000 1.0
C      1  0.4314670000000  0.5282320000000  0.5280730000000 1.0
C      1  0.4664030000000  0.4397850000000  0.4752800000000 1.0
C      1  0.5657310000000  0.4638140000000  0.5209530000000 1.0
C      1  0.5469650000000  0.5485370000000  0.4930180000000 1.0
END
