TITL C-38500-6095-9 26.1311581752815 125000 -305.444586234384 0 0 45 (C1) n - 1
REM
REM in /rds/project/t2_vol4/rds-t2-cs072/BORA/CARBON/from-Arr/AIRSS/Generating-Clusters/GAP-ML-2020/Higher-Symm/SD-CG/HFTN-CG
REM
REM
REM
REM
REM
REM ./C.cell (b20cbc046b6831c77cfcea5457e17084)
REM AIRSS Version 0.9.1 bugfix July 2018 build 013d7b7c2542+ Fri, 06 Jul 2018 19:26:36 +0100
REM compiler GCC version 9.3.0
REM options -cpp -mtune=generic -march=x86-64 -g -O0
REM seed 206782678 1576781408 -1664345878 -1627401236 1734158407 -636414650 1147732205 1509508389 538327609 1469844923 -56206520 -1736565622 119790441 -939893165 169297715 -453220453 177579373 -1964527947 1207387520 -2137903962 1356077529 -941517194 -808513637 183983049 -1940879176 -844290533 1390739518 -155224332 -806726405 1320764284 -1453833603 631063947 -511135556
REM
CELL 1.54180   50.00000   50.00000   50.00000   90.00000   90.00000   90.00000
LATT -1
SFAC C  
C      1  0.4538020000000  0.4893990000000  0.5347990000000 1.0
C      1  0.4964020000000  0.4517380000000  0.5354370000000 1.0
C      1  0.5459480000000  0.4817820000000  0.5353980000000 1.0
C      1  0.5320790000000  0.5382810000000  0.5326510000000 1.0
C      1  0.4742760000000  0.5412290000000  0.5346900000000 1.0
C      1  0.4445180000000  0.4982840000000  0.4727040000000 1.0
C      1  0.4825620000000  0.4481850000000  0.4725080000000 1.0
C      1  0.5452250000000  0.4673790000000  0.4739840000000 1.0
C      1  0.5476870000000  0.5307680000000  0.4766730000000 1.0
C      1  0.4615250000000  0.5509960000000  0.4768080000000 1.0
C      1  0.5166710000000  0.5195800000000  0.5484130000000 1.0
C      1  0.4882450000000  0.5214970000000  0.5490890000000 1.0
C      1  0.4773240000000  0.4951640000000  0.5491630000000 1.0
C      1  0.4988250000000  0.4765900000000  0.5489040000000 1.0
C      1  0.5230920000000  0.4918680000000  0.5484730000000 1.0
C      1  0.5071810000000  0.5240360000000  0.4959370000000 1.0
C      1  0.4791440000000  0.5146820000000  0.4956700000000 1.0
C      1  0.4796980000000  0.4852150000000  0.4956730000000 1.0
C      1  0.5074580000000  0.4758620000000  0.4961860000000 1.0
C      1  0.5240220000000  0.4997280000000  0.4967170000000 1.0
C      1  0.5084960000000  0.4787220000000  0.4462890000000 1.0
C      1  0.5253450000000  0.5013550000000  0.4474130000000 1.0
C      1  0.5096100000000  0.5244900000000  0.4497140000000 1.0
C      1  0.4822090000000  0.5162160000000  0.4481180000000 1.0
C      1  0.4819170000000  0.4879270000000  0.4461870000000 1.0
C      1  0.4388680000000  0.5081050000000  0.5196680000000 1.0
C      1  0.4730390000000  0.4453700000000  0.5200830000000 1.0
C      1  0.5435250000000  0.4574850000000  0.5202110000000 1.0
C      1  0.5540480000000  0.5283140000000  0.5170330000000 1.0
C      1  0.4890810000000  0.5598060000000  0.5180390000000 1.0
C      1  0.5649570000000  0.5393690000000  0.4942520000000 1.0
C      1  0.4766740000000  0.5623690000000  0.4934890000000 1.0
C      1  0.4300780000000  0.4995800000000  0.4942880000000 1.0
C      1  0.4770540000000  0.4351710000000  0.4942610000000 1.0
C      1  0.5553240000000  0.4565050000000  0.4950350000000 1.0
C      1  0.5198770000000  0.5380550000000  0.4723340000000 1.0
C      1  0.4635930000000  0.5229320000000  0.4689790000000 1.0
C      1  0.4671400000000  0.4760370000000  0.4675930000000 1.0
C      1  0.5126330000000  0.4617750000000  0.4684660000000 1.0
C      1  0.5422750000000  0.4987340000000  0.4698550000000 1.0
C      1  0.4622430000000  0.4708190000000  0.5157980000000 1.0
C      1  0.5160260000000  0.4550870000000  0.5161600000000 1.0
C      1  0.5473070000000  0.5015660000000  0.5158560000000 1.0
C      1  0.5130800000000  0.5464380000000  0.5142780000000 1.0
C      1  0.4599160000000  0.5255110000000  0.5167240000000 1.0
END
