TITL C-38739-372-6 -0.0726797045069993 125000 -416.772814880487 0 0 62 (C1) n - 1
REM
REM in /rds/project/t2_vol4/rds-t2-cs072/BORA/CARBON/from-Arr/AIRSS/Generating-Clusters/GAP-ML-2020/Higher-Symm/SD-CG/HFTN-CG
REM
REM
REM
REM
REM
REM ./C.cell (b20cbc046b6831c77cfcea5457e17084)
REM AIRSS Version 0.9.1 bugfix July 2018 build 013d7b7c2542+ Fri, 06 Jul 2018 19:26:36 +0100
REM compiler GCC version 9.3.0
REM options -cpp -mtune=generic -march=x86-64 -g -O0
REM seed 10721664 1806646714 -951720740 893242869 252796174 400518873 -954025009 -314907376 -1159477413 1398646729 -894410354 83571147 -448305508 -1692739869 208632334 952931066 24586045 1294294166 97682963 -1004071491 -1299044376 -1241518937 1254264580 502530894 635997761 -789428685 -2130330573 1004226744 -823541171 1455325695 -2007591566 -78868561 1117583312
REM
CELL 1.54180   50.00000   50.00000   50.00000   90.00000   90.00000   90.00000
LATT -1
SFAC C  
C      1  0.5620180000000  0.5089390000000  0.4506810000000 1.0
C      1  0.5361190000000  0.4687850000000  0.4531800000000 1.0
C      1  0.4982430000000  0.4387740000000  0.4480110000000 1.0
C      1  0.4523340000000  0.4610220000000  0.4445880000000 1.0
C      1  0.4553360000000  0.5101540000000  0.4493430000000 1.0
C      1  0.4777730000000  0.5457700000000  0.4481420000000 1.0
C      1  0.5236350000000  0.5386140000000  0.4480910000000 1.0
C      1  0.4762420000000  0.4614720000000  0.5408280000000 1.0
C      1  0.4673680000000  0.4895800000000  0.5443710000000 1.0
C      1  0.4831780000000  0.5347590000000  0.5464490000000 1.0
C      1  0.5071460000000  0.5502200000000  0.5395680000000 1.0
C      1  0.5333740000000  0.5388730000000  0.5392980000000 1.0
C      1  0.5324460000000  0.4547190000000  0.5402230000000 1.0
C      1  0.5037470000000  0.4528820000000  0.5459120000000 1.0
C      1  0.5224540000000  0.5745300000000  0.4972610000000 1.0
C      1  0.5691680000000  0.5263290000000  0.5034430000000 1.0
C      1  0.5669580000000  0.4568210000000  0.5014690000000 1.0
C      1  0.5106360000000  0.4235080000000  0.5048870000000 1.0
C      1  0.4460420000000  0.4462870000000  0.4980360000000 1.0
C      1  0.4309770000000  0.5028070000000  0.5033860000000 1.0
C      1  0.4581630000000  0.5547670000000  0.5075320000000 1.0
C      1  0.4226270000000  0.5271470000000  0.4944250000000 1.0
C      1  0.4807120000000  0.5705950000000  0.5012760000000 1.0
C      1  0.5469570000000  0.5669700000000  0.4912920000000 1.0
C      1  0.5802890000000  0.5030620000000  0.4959040000000 1.0
C      1  0.5573310000000  0.4328220000000  0.4921770000000 1.0
C      1  0.4830150000000  0.4274110000000  0.5019250000000 1.0
C      1  0.4210800000000  0.4551120000000  0.4913660000000 1.0
C      1  0.5603790000000  0.5452950000000  0.4820160000000 1.0
C      1  0.5751260000000  0.4788900000000  0.4842310000000 1.0
C      1  0.5307800000000  0.4297120000000  0.4848590000000 1.0
C      1  0.4651890000000  0.4326020000000  0.4801340000000 1.0
C      1  0.4303050000000  0.4805160000000  0.4838980000000 1.0
C      1  0.4424460000000  0.5443740000000  0.4860250000000 1.0
C      1  0.4998070000000  0.5733420000000  0.4789520000000 1.0
C      1  0.5028440000000  0.5576410000000  0.4556960000000 1.0
C      1  0.5518180000000  0.5335300000000  0.4562740000000 1.0
C      1  0.5622620000000  0.4813900000000  0.4580900000000 1.0
C      1  0.5227340000000  0.4433290000000  0.4589830000000 1.0
C      1  0.4710200000000  0.4419270000000  0.4526110000000 1.0
C      1  0.4435480000000  0.4841670000000  0.4562360000000 1.0
C      1  0.4531470000000  0.5378310000000  0.4603530000000 1.0
C      1  0.4609590000000  0.5356120000000  0.5293850000000 1.0
C      1  0.5034060000000  0.5694220000000  0.5195180000000 1.0
C      1  0.5536390000000  0.5307110000000  0.5272740000000 1.0
C      1  0.5476570000000  0.4689320000000  0.5209560000000 1.0
C      1  0.5172080000000  0.4336740000000  0.5310710000000 1.0
C      1  0.4658200000000  0.4434070000000  0.5205830000000 1.0
C      1  0.4546600000000  0.5056730000000  0.5226950000000 1.0
C      1  0.4912650000000  0.5240290000000  0.4945100000000 1.0
C      1  0.5165920000000  0.5251200000000  0.4932050000000 1.0
C      1  0.5300310000000  0.5027790000000  0.4848990000000 1.0
C      1  0.5194930000000  0.4917070000000  0.4558780000000 1.0
C      1  0.5048690000000  0.4703470000000  0.5005610000000 1.0
C      1  0.4835430000000  0.4781410000000  0.4877830000000 1.0
C      1  0.4760140000000  0.5024480000000  0.4983690000000 1.0
C      1  0.5047620000000  0.5031750000000  0.6078110000000 1.0
C      1  0.5289400000000  0.4825300000000  0.5042450000000 1.0
C      1  0.4822670000000  0.5086650000000  0.5601520000000 1.0
C      1  0.4813750000000  0.5178750000000  0.4382930000000 1.0
C      1  0.5097810000000  0.5135040000000  0.4404330000000 1.0
C      1  0.4927070000000  0.5040280000000  0.5856290000000 1.0
END
