TITL C-38511-6086-11 -0.00195207104983172 125000 -65.1959761759989 0 0 11 (C2) n - 1
REM
REM in /rds/project/t2_vol4/rds-t2-cs072/BORA/CARBON/from-Arr/AIRSS/Generating-Clusters/GAP-ML-2020/Higher-Symm/SD-CG/HFTN-CG
REM
REM
REM
REM
REM
REM ./C.cell (b20cbc046b6831c77cfcea5457e17084)
REM AIRSS Version 0.9.1 bugfix July 2018 build 013d7b7c2542+ Fri, 06 Jul 2018 19:26:36 +0100
REM compiler GCC version 9.3.0
REM options -cpp -mtune=generic -march=x86-64 -g -O0
REM seed 783832531 1947567361 -1539259194 -674310902 177437880 1850780933 944830702 1278648353 557155183 -369913143 27540206 26740807 643809725 -3025084 44484365 -1325535929 -1135987126 742964394 1984739543 -1597826804 795338073 1947130964 -2086981170 523927082 -331889712 -408972623 1333687913 1308245381 109722436 -858800853 681681443 1955563709 830091857
REM
CELL 1.54180   50.00000   50.00000   50.00000   90.00000   90.00000   90.00000
LATT -1
SFAC C  
C      1  0.5110260000000  0.5079390000000  0.5208880000000 1.0
C      1  0.5127370000000  0.4990230000000  0.4775900000000 1.0
C      1  0.5239750000000  0.4815450000000  0.4598220000000 1.0
C      1  0.5222280000000  0.5242070000000  0.5397920000000 1.0
C      1  0.4777460000000  0.4822550000000  0.5026530000000 1.0
C      1  0.4807380000000  0.5282270000000  0.4925200000000 1.0
C      1  0.5204870000000  0.4961940000000  0.5432280000000 1.0
C      1  0.5256040000000  0.5095650000000  0.4563800000000 1.0
C      1  0.4529180000000  0.4798480000000  0.5017260000000 1.0
C      1  0.4563450000000  0.5332880000000  0.4909550000000 1.0
C      1  0.4950030000000  0.5043910000000  0.4983840000000 1.0
END
