TITL C-38517-6058-4 0.0675476204121722 125000 -343.332941686396 0 0 51 (C1) n - 1
REM
REM in /rds/project/t2_vol4/rds-t2-cs072/BORA/CARBON/from-Arr/AIRSS/Generating-Clusters/GAP-ML-2020/Higher-Symm/SD-CG/HFTN-CG
REM
REM
REM
REM
REM
REM ./C.cell (b20cbc046b6831c77cfcea5457e17084)
REM AIRSS Version 0.9.1 bugfix July 2018 build 013d7b7c2542+ Fri, 06 Jul 2018 19:26:36 +0100
REM compiler GCC version 9.3.0
REM options -cpp -mtune=generic -march=x86-64 -g -O0
REM seed -323357705 -1243589189 -277046709 2041435294 -172508405 197556843 -1305232554 -1948619065 688177986 -2001037318 933204862 -813255132 1571235008 -238397977 398767456 1494646375 -1890752172 754261899 -13435336 1800284027 -500758148 1747851780 -751960640 -1505694356 1953428698 1073052624 1843591359 452451188 1087732657 733907684 1786839162 1693598198 942621964
REM
CELL 1.54180   50.00000   50.00000   50.00000   90.00000   90.00000   90.00000
LATT -1
SFAC C  
C      1  0.4881670000000  0.4847170000000  0.5700930000000 1.0
C      1  0.5190370000000  0.5126820000000  0.5693560000000 1.0
C      1  0.4912580000000  0.4871540000000  0.4241810000000 1.0
C      1  0.5184590000000  0.5161330000000  0.4366500000000 1.0
C      1  0.4897520000000  0.5137820000000  0.5705410000000 1.0
C      1  0.5171920000000  0.4827710000000  0.5698450000000 1.0
C      1  0.4916250000000  0.5162480000000  0.4244380000000 1.0
C      1  0.5177940000000  0.4862210000000  0.4361140000000 1.0
C      1  0.5232690000000  0.4723550000000  0.4612990000000 1.0
C      1  0.4719310000000  0.5292350000000  0.4404170000000 1.0
C      1  0.5294050000000  0.4648010000000  0.5525220000000 1.0
C      1  0.4731380000000  0.5297020000000  0.5538730000000 1.0
C      1  0.5253700000000  0.5292580000000  0.4617790000000 1.0
C      1  0.4703900000000  0.4737660000000  0.4390810000000 1.0
C      1  0.5336270000000  0.5302440000000  0.5536720000000 1.0
C      1  0.4703720000000  0.4711890000000  0.5522490000000 1.0
C      1  0.5706520000000  0.4906130000000  0.5592270000000 1.0
C      1  0.4248160000000  0.5111590000000  0.5611440000000 1.0
C      1  0.5672360000000  0.4866790000000  0.4490840000000 1.0
C      1  0.4242880000000  0.5114240000000  0.4287540000000 1.0
C      1  0.5825140000000  0.5141420000000  0.5597410000000 1.0
C      1  0.4229200000000  0.4843320000000  0.5665740000000 1.0
C      1  0.5681900000000  0.5122910000000  0.4489040000000 1.0
C      1  0.4238460000000  0.4848550000000  0.4223580000000 1.0
C      1  0.4438770000000  0.5215460000000  0.4438400000000 1.0
C      1  0.5501450000000  0.4749180000000  0.4685550000000 1.0
C      1  0.4459440000000  0.5210170000000  0.5483700000000 1.0
C      1  0.5564150000000  0.4726510000000  0.5450620000000 1.0
C      1  0.4455430000000  0.4724240000000  0.4295260000000 1.0
C      1  0.5522120000000  0.5251410000000  0.4685870000000 1.0
C      1  0.4448260000000  0.4721140000000  0.5602310000000 1.0
C      1  0.5611000000000  0.5245460000000  0.5454740000000 1.0
C      1  0.5497620000000  0.4698070000000  0.5171310000000 1.0
C      1  0.4546290000000  0.5173120000000  0.5209460000000 1.0
C      1  0.5582890000000  0.4848400000000  0.4953410000000 1.0
C      1  0.4504880000000  0.5169180000000  0.4717480000000 1.0
C      1  0.5542860000000  0.5301480000000  0.5178610000000 1.0
C      1  0.4571830000000  0.4901120000000  0.5097660000000 1.0
C      1  0.5598180000000  0.5144280000000  0.4953790000000 1.0
C      1  0.4538950000000  0.4897210000000  0.4822740000000 1.0
C      1  0.4732390000000  0.4739730000000  0.4669420000000 1.0
C      1  0.5027200000000  0.5287340000000  0.4826570000000 1.0
C      1  0.4752240000000  0.4717980000000  0.5237060000000 1.0
C      1  0.5270530000000  0.5387770000000  0.5261060000000 1.0
C      1  0.4765240000000  0.5303230000000  0.4686760000000 1.0
C      1  0.4997370000000  0.4742720000000  0.4809820000000 1.0
C      1  0.4793380000000  0.5329920000000  0.5257080000000 1.0
C      1  0.5224270000000  0.4596610000000  0.5240620000000 1.0
C      1  0.5029230000000  0.5393130000000  0.5113840000000 1.0
C      1  0.4984990000000  0.4630490000000  0.5096750000000 1.0
C      1  0.4961650000000  0.5020760000000  0.4905090000000 1.0
END
