TITL C-38749-7448-4 96.1670456916958 125000 -381.63316034592 0 0 58 (C1) n - 1
REM
REM in /rds/project/t2_vol4/rds-t2-cs072/BORA/CARBON/from-Arr/AIRSS/Generating-Clusters/GAP-ML-2020/Higher-Symm/SD-CG/HFTN-CG
REM
REM
REM
REM
REM
REM ./C.cell (b20cbc046b6831c77cfcea5457e17084)
REM AIRSS Version 0.9.1 bugfix July 2018 build 013d7b7c2542+ Fri, 06 Jul 2018 19:26:36 +0100
REM compiler GCC version 9.3.0
REM options -cpp -mtune=generic -march=x86-64 -g -O0
REM seed -1655087773 880127083 1168900673 -1909295524 -699359370 775361034 1500067842 -487089550 -62549948 -1770354874 -1519914378 743831723 217028853 -1436996195 168329851 -1207605137 329760980 230596887 -503424332 1659750244 765494059 -1874316727 134131959 59670384 495134858 587452621 -260328633 1385825011 -1470187075 -1374502580 -514269174 -644536903 1663474861
REM
CELL 1.54180   50.00000   50.00000   50.00000   90.00000   90.00000   90.00000
LATT -1
SFAC C  
C      1  0.4884330000000  0.5363480000000  0.5674370000000 1.0
C      1  0.5082890000000  0.5208410000000  0.4761320000000 1.0
C      1  0.4365410000000  0.4955820000000  0.4683110000000 1.0
C      1  0.4938590000000  0.5233910000000  0.4311320000000 1.0
C      1  0.5113140000000  0.5459490000000  0.4392130000000 1.0
C      1  0.5634930000000  0.4923800000000  0.5052620000000 1.0
C      1  0.5035340000000  0.4720640000000  0.5660750000000 1.0
C      1  0.4810360000000  0.4503970000000  0.4999360000000 1.0
C      1  0.4708680000000  0.5068020000000  0.4997090000000 1.0
C      1  0.5307910000000  0.4671980000000  0.4540870000000 1.0
C      1  0.5270130000000  0.5214700000000  0.4971250000000 1.0
C      1  0.5143340000000  0.4356760000000  0.5202390000000 1.0
C      1  0.4856140000000  0.5102280000000  0.5261990000000 1.0
C      1  0.4546930000000  0.4931770000000  0.4481300000000 1.0
C      1  0.5526630000000  0.4783220000000  0.5693390000000 1.0
C      1  0.5340050000000  0.5175460000000  0.5434330000000 1.0
C      1  0.5118400000000  0.5014140000000  0.4275330000000 1.0
C      1  0.4676480000000  0.5189750000000  0.4437500000000 1.0
C      1  0.5546220000000  0.5000580000000  0.5527690000000 1.0
C      1  0.5065750000000  0.4335300000000  0.4922680000000 1.0
C      1  0.5159590000000  0.5067880000000  0.5221360000000 1.0
C      1  0.4889620000000  0.4972390000000  0.5715190000000 1.0
C      1  0.5457770000000  0.4908060000000  0.4576960000000 1.0
C      1  0.5402040000000  0.5358670000000  0.4434330000000 1.0
C      1  0.4904320000000  0.4994110000000  0.4799690000000 1.0
C      1  0.5091840000000  0.4743870000000  0.4349340000000 1.0
C      1  0.4542950000000  0.5319180000000  0.4961050000000 1.0
C      1  0.5460500000000  0.4697590000000  0.5098650000000 1.0
C      1  0.4821840000000  0.5374160000000  0.5405890000000 1.0
C      1  0.4899700000000  0.5199130000000  0.5876660000000 1.0
C      1  0.4554900000000  0.4566000000000  0.4833380000000 1.0
C      1  0.5383220000000  0.5086230000000  0.4364820000000 1.0
C      1  0.4589870000000  0.5373010000000  0.4639980000000 1.0
C      1  0.4712970000000  0.4913930000000  0.5461340000000 1.0
C      1  0.5691600000000  0.5038930000000  0.5290660000000 1.0
C      1  0.4658450000000  0.4672320000000  0.4549200000000 1.0
C      1  0.4298670000000  0.4936080000000  0.5164160000000 1.0
C      1  0.5111780000000  0.4524910000000  0.4710340000000 1.0
C      1  0.4907900000000  0.4578650000000  0.4482920000000 1.0
C      1  0.5307930000000  0.4652780000000  0.5582340000000 1.0
C      1  0.5525370000000  0.5080710000000  0.4820860000000 1.0
C      1  0.5004880000000  0.4739820000000  0.4910890000000 1.0
C      1  0.4423540000000  0.5010970000000  0.5394370000000 1.0
C      1  0.5369820000000  0.5457360000000  0.5369140000000 1.0
C      1  0.5342500000000  0.4532300000000  0.5304730000000 1.0
C      1  0.4768280000000  0.5588580000000  0.4723400000000 1.0
C      1  0.4461530000000  0.4858490000000  0.4930750000000 1.0
C      1  0.4708920000000  0.5568670000000  0.5005950000000 1.0
C      1  0.4881190000000  0.5590860000000  0.5230140000000 1.0
C      1  0.5357360000000  0.5480730000000  0.5088050000000 1.0
C      1  0.4351770000000  0.5205700000000  0.5187010000000 1.0
C      1  0.4348870000000  0.4363470000000  0.4806440000000 1.0
C      1  0.4873410000000  0.4441510000000  0.5280960000000 1.0
C      1  0.5554380000000  0.5347790000000  0.4655940000000 1.0
C      1  0.4831210000000  0.4633030000000  0.5477400000000 1.0
C      1  0.5023230000000  0.5506400000000  0.4651530000000 1.0
C      1  0.5191130000000  0.4805030000000  0.5114910000000 1.0
C      1  0.5163510000000  0.5597250000000  0.5248500000000 1.0
END
