TITL C-38523-6054-3 0.130732098166423 125000 -568.496122883488 0 0 83 (C1) n - 1
REM
REM in /rds/project/t2_vol4/rds-t2-cs072/BORA/CARBON/from-Arr/AIRSS/Generating-Clusters/GAP-ML-2020/Higher-Symm/SD-CG/HFTN-CG
REM
REM
REM
REM
REM
REM ./C.cell (b20cbc046b6831c77cfcea5457e17084)
REM AIRSS Version 0.9.1 bugfix July 2018 build 013d7b7c2542+ Fri, 06 Jul 2018 19:26:36 +0100
REM compiler GCC version 9.3.0
REM options -cpp -mtune=generic -march=x86-64 -g -O0
REM seed 214139304 -99379395 2103863336 631898757 -1445611575 301468525 -389992163 -219559286 -1126342324 -297275969 762887750 1856291859 2040952195 1507150987 1349351358 -1491245912 -85639375 -2080681833 132982274 -555495750 1151511442 359227550 1418448867 1253721723 -2089945224 985047863 764048743 2121118406 -84457248 1718755631 -1715837664 -1809247276 -221287822
REM
CELL 1.54180   50.00000   50.00000   50.00000   90.00000   90.00000   90.00000
LATT -1
SFAC C  
C      1  0.5325730000000  0.4391530000000  0.5026750000000 1.0
C      1  0.5393170000000  0.4834170000000  0.4312090000000 1.0
C      1  0.5045970000000  0.5505720000000  0.4533000000000 1.0
C      1  0.5322730000000  0.5353360000000  0.5359050000000 1.0
C      1  0.5293530000000  0.4759380000000  0.5575350000000 1.0
C      1  0.5058900000000  0.5382980000000  0.5846010000000 1.0
C      1  0.4961850000000  0.4374850000000  0.5603510000000 1.0
C      1  0.5019860000000  0.4277480000000  0.4637830000000 1.0
C      1  0.5024980000000  0.5044780000000  0.3999450000000 1.0
C      1  0.4968200000000  0.5785230000000  0.4918750000000 1.0
C      1  0.4707530000000  0.5283820000000  0.4305260000000 1.0
C      1  0.4761770000000  0.5682070000000  0.5269870000000 1.0
C      1  0.4737180000000  0.5039990000000  0.5712500000000 1.0
C      1  0.4738520000000  0.4364600000000  0.5247410000000 1.0
C      1  0.4757830000000  0.4547810000000  0.4470070000000 1.0
C      1  0.5292130000000  0.5602960000000  0.5191860000000 1.0
C      1  0.5270490000000  0.4977550000000  0.5770760000000 1.0
C      1  0.5277710000000  0.4254720000000  0.5276830000000 1.0
C      1  0.5316660000000  0.4579140000000  0.4410950000000 1.0
C      1  0.5156570000000  0.5415490000000  0.4276540000000 1.0
C      1  0.5584450000000  0.4498710000000  0.4894040000000 1.0
C      1  0.5501360000000  0.5079410000000  0.4443620000000 1.0
C      1  0.5604690000000  0.5431390000000  0.4842300000000 1.0
C      1  0.5580910000000  0.5213340000000  0.5469170000000 1.0
C      1  0.5559750000000  0.4629610000000  0.5475610000000 1.0
C      1  0.4642790000000  0.5552350000000  0.5494710000000 1.0
C      1  0.4625400000000  0.4788220000000  0.5596020000000 1.0
C      1  0.4619950000000  0.4392580000000  0.4972100000000 1.0
C      1  0.4609490000000  0.4756090000000  0.4357670000000 1.0
C      1  0.4746030000000  0.5478010000000  0.4506270000000 1.0
C      1  0.5145040000000  0.5117330000000  0.5201100000000 1.0
C      1  0.5183880000000  0.4837980000000  0.5284650000000 1.0
C      1  0.5147190000000  0.4673590000000  0.5059140000000 1.0
C      1  0.5075490000000  0.4848100000000  0.4843590000000 1.0
C      1  0.5059130000000  0.5295390000000  0.4748780000000 1.0
C      1  0.4813190000000  0.5242150000000  0.4873460000000 1.0
C      1  0.4843820000000  0.5155980000000  0.5151090000000 1.0
C      1  0.4594160000000  0.4990300000000  0.5193690000000 1.0
C      1  0.4564160000000  0.4854250000000  0.4951320000000 1.0
C      1  0.4805100000000  0.4949220000000  0.4820440000000 1.0
C      1  0.4429750000000  0.4878450000000  0.5410190000000 1.0
C      1  0.4424580000000  0.4602010000000  0.4940980000000 1.0
C      1  0.4356180000000  0.4886870000000  0.4408960000000 1.0
C      1  0.4603370000000  0.5479270000000  0.4778810000000 1.0
C      1  0.4386420000000  0.5423040000000  0.5522890000000 1.0
C      1  0.5383780000000  0.5603750000000  0.4919060000000 1.0
C      1  0.5461930000000  0.5194700000000  0.5731590000000 1.0
C      1  0.5427340000000  0.4371820000000  0.5500570000000 1.0
C      1  0.5458570000000  0.4443550000000  0.4632330000000 1.0
C      1  0.5384730000000  0.5249970000000  0.4246430000000 1.0
C      1  0.5037340000000  0.4471360000000  0.4418660000000 1.0
C      1  0.4940000000000  0.5277730000000  0.4138930000000 1.0
C      1  0.5040860000000  0.5742890000000  0.5199090000000 1.0
C      1  0.5002600000000  0.5103320000000  0.5813910000000 1.0
C      1  0.4991860000000  0.4246270000000  0.5340780000000 1.0
C      1  0.5730930000000  0.4715000000000  0.4998410000000 1.0
C      1  0.5750260000000  0.4977210000000  0.4883290000000 1.0
C      1  0.5831920000000  0.5422700000000  0.4999090000000 1.0
C      1  0.5765370000000  0.5047980000000  0.5333080000000 1.0
C      1  0.5717970000000  0.4762460000000  0.5287390000000 1.0
C      1  0.4126110000000  0.5273020000000  0.4896830000000 1.0
C      1  0.4051530000000  0.5243000000000  0.5188940000000 1.0
C      1  0.3970550000000  0.4966690000000  0.5231600000000 1.0
C      1  0.3967000000000  0.4826250000000  0.4972210000000 1.0
C      1  0.4031810000000  0.5016290000000  0.4767080000000 1.0
C      1  0.5275860000000  0.4992200000000  0.4095840000000 1.0
C      1  0.5158300000000  0.5669100000000  0.4749660000000 1.0
C      1  0.5265120000000  0.5412080000000  0.5665610000000 1.0
C      1  0.5215800000000  0.4480970000000  0.5669500000000 1.0
C      1  0.5266980000000  0.4266730000000  0.4763410000000 1.0
C      1  0.4755800000000  0.4370260000000  0.4718450000000 1.0
C      1  0.4581340000000  0.5030400000000  0.4311490000000 1.0
C      1  0.4704240000000  0.5703330000000  0.4969560000000 1.0
C      1  0.4617720000000  0.5298330000000  0.5633250000000 1.0
C      1  0.4723420000000  0.4518860000000  0.5514360000000 1.0
C      1  0.4149880000000  0.5381430000000  0.5401150000000 1.0
C      1  0.4174920000000  0.4788390000000  0.5324880000000 1.0
C      1  0.4167810000000  0.4640370000000  0.5057930000000 1.0
C      1  0.4125320000000  0.4910070000000  0.4535280000000 1.0
C      1  0.4322060000000  0.5430140000000  0.4799230000000 1.0
C      1  0.5535640000000  0.5135720000000  0.4737780000000 1.0
C      1  0.5239130000000  0.5102060000000  0.4862780000000 1.0
C      1  0.5852900000000  0.5160040000000  0.5080440000000 1.0
END
