TITL C-38746-7783-7 -0.0438767202153602 125000 -641.67298668185 0 0 95 (C1) n - 1
REM
REM in /rds/project/t2_vol4/rds-t2-cs072/BORA/CARBON/from-Arr/AIRSS/Generating-Clusters/GAP-ML-2020/Higher-Symm/SD-CG/HFTN-CG
REM
REM
REM
REM
REM
REM ./C.cell (b20cbc046b6831c77cfcea5457e17084)
REM AIRSS Version 0.9.1 bugfix July 2018 build 013d7b7c2542+ Fri, 06 Jul 2018 19:26:36 +0100
REM compiler GCC version 9.3.0
REM options -cpp -mtune=generic -march=x86-64 -g -O0
REM seed 2089771199 -478053082 -1475363003 -256741979 654206066 -1111925725 1302574197 -2119800109 -2081081495 2015121477 -1212816785 -1247999908 -1944572980 721933462 -1090691787 -184298024 -911023789 722399467 683530804 -1344912352 -1849964132 -1766453005 -1683100407 2010961217 216458163 188119376 -744951060 2127037909 1863071475 1122618004 -1184154191 -456807144 -747368720
REM
CELL 1.54180   50.00000   50.00000   50.00000   90.00000   90.00000   90.00000
LATT -1
SFAC C  
C      1  0.4470220000000  0.4384960000000  0.4767470000000 1.0
C      1  0.4296370000000  0.4791830000000  0.4475570000000 1.0
C      1  0.4815430000000  0.4420430000000  0.4396890000000 1.0
C      1  0.5686790000000  0.5620000000000  0.4968230000000 1.0
C      1  0.4475770000000  0.5574130000000  0.5278180000000 1.0
C      1  0.5561360000000  0.4416810000000  0.5247010000000 1.0
C      1  0.5587550000000  0.5221410000000  0.4356300000000 1.0
C      1  0.4371180000000  0.5201390000000  0.5598820000000 1.0
C      1  0.5669900000000  0.4835430000000  0.5542920000000 1.0
C      1  0.5222880000000  0.5604920000000  0.4357250000000 1.0
C      1  0.4948370000000  0.5631350000000  0.5845960000000 1.0
C      1  0.5191950000000  0.4361250000000  0.5600490000000 1.0
C      1  0.4700360000000  0.4285530000000  0.4623950000000 1.0
C      1  0.4376970000000  0.4644520000000  0.4712370000000 1.0
C      1  0.4676800000000  0.4649510000000  0.4298610000000 1.0
C      1  0.5338920000000  0.5672440000000  0.4614860000000 1.0
C      1  0.4714290000000  0.5592810000000  0.5429530000000 1.0
C      1  0.5304630000000  0.4342970000000  0.5340450000000 1.0
C      1  0.5625350000000  0.5349660000000  0.4601010000000 1.0
C      1  0.4321580000000  0.5351870000000  0.5365940000000 1.0
C      1  0.5620360000000  0.4687880000000  0.5302760000000 1.0
C      1  0.5337870000000  0.5348760000000  0.4307370000000 1.0
C      1  0.4627810000000  0.5285100000000  0.5681130000000 1.0
C      1  0.5302110000000  0.4602220000000  0.5683800000000 1.0
C      1  0.4676130000000  0.4240460000000  0.5195390000000 1.0
C      1  0.4238510000000  0.5211400000000  0.4785010000000 1.0
C      1  0.5299590000000  0.4536110000000  0.4245270000000 1.0
C      1  0.5234690000000  0.5800900000000  0.5189650000000 1.0
C      1  0.4729310000000  0.5743150000000  0.4870740000000 1.0
C      1  0.5394030000000  0.4238560000000  0.4798880000000 1.0
C      1  0.5728300000000  0.4842770000000  0.4731990000000 1.0
C      1  0.4242950000000  0.4789040000000  0.5262360000000 1.0
C      1  0.5747030000000  0.5176420000000  0.5188780000000 1.0
C      1  0.4738520000000  0.5363340000000  0.4272660000000 1.0
C      1  0.5430840000000  0.5503130000000  0.5757760000000 1.0
C      1  0.4781240000000  0.4633010000000  0.5751910000000 1.0
C      1  0.5154680000000  0.5532920000000  0.4816070000000 1.0
C      1  0.5433670000000  0.4848340000000  0.5137720000000 1.0
C      1  0.4831470000000  0.5107530000000  0.5536240000000 1.0
C      1  0.4921230000000  0.4193010000000  0.4776370000000 1.0
C      1  0.5114450000000  0.4459960000000  0.5144550000000 1.0
C      1  0.4973170000000  0.5512280000000  0.5296160000000 1.0
C      1  0.4469240000000  0.5182060000000  0.5185450000000 1.0
C      1  0.5466720000000  0.5198180000000  0.4805300000000 1.0
C      1  0.4525910000000  0.4838370000000  0.4877630000000 1.0
C      1  0.5142090000000  0.4799000000000  0.5508420000000 1.0
C      1  0.4771000000000  0.4899060000000  0.4392430000000 1.0
C      1  0.5138450000000  0.5185390000000  0.4445550000000 1.0
C      1  0.4823860000000  0.5185990000000  0.4791590000000 1.0
C      1  0.5305690000000  0.5009580000000  0.4621650000000 1.0
C      1  0.4960940000000  0.4667180000000  0.5284340000000 1.0
C      1  0.5289100000000  0.4641490000000  0.4976910000000 1.0
C      1  0.4776980000000  0.4836180000000  0.5115970000000 1.0
C      1  0.5333460000000  0.5388750000000  0.4985010000000 1.0
C      1  0.4642570000000  0.5004850000000  0.4651550000000 1.0
C      1  0.5288080000000  0.5023050000000  0.5361110000000 1.0
C      1  0.4648380000000  0.5006500000000  0.5322520000000 1.0
C      1  0.5057570000000  0.5221650000000  0.5369280000000 1.0
C      1  0.4994500000000  0.5362790000000  0.4637240000000 1.0
C      1  0.5147290000000  0.4826890000000  0.4792740000000 1.0
C      1  0.4436490000000  0.4347340000000  0.5056710000000 1.0
C      1  0.4369680000000  0.5096340000000  0.4526060000000 1.0
C      1  0.5105590000000  0.4384040000000  0.4387980000000 1.0
C      1  0.5449300000000  0.5627600000000  0.5117370000000 1.0
C      1  0.4471770000000  0.5633800000000  0.4993190000000 1.0
C      1  0.5551290000000  0.4431200000000  0.4941780000000 1.0
C      1  0.5558600000000  0.4929580000000  0.4450300000000 1.0
C      1  0.4400220000000  0.4902990000000  0.5518620000000 1.0
C      1  0.5596790000000  0.5114950000000  0.5457040000000 1.0
C      1  0.4908120000000  0.5579720000000  0.4421950000000 1.0
C      1  0.5192290000000  0.5658590000000  0.5710790000000 1.0
C      1  0.4904180000000  0.4379100000000  0.5631580000000 1.0
C      1  0.5174620000000  0.4235520000000  0.4639970000000 1.0
C      1  0.4274880000000  0.4540790000000  0.5180590000000 1.0
C      1  0.4489460000000  0.5267710000000  0.4319620000000 1.0
C      1  0.4789080000000  0.5767460000000  0.4600360000000 1.0
C      1  0.5147880000000  0.5714640000000  0.5436840000000 1.0
C      1  0.4754160000000  0.4246000000000  0.5456060000000 1.0
C      1  0.5827210000000  0.5415050000000  0.5089620000000 1.0
C      1  0.4281790000000  0.5464540000000  0.4868270000000 1.0
C      1  0.5757850000000  0.4599090000000  0.4828140000000 1.0
C      1  0.5469410000000  0.4729430000000  0.4257810000000 1.0
C      1  0.4542190000000  0.4745890000000  0.5707720000000 1.0
C      1  0.5581590000000  0.5322890000000  0.5669290000000 1.0
C      1  0.5620630000000  0.5013550000000  0.4967900000000 1.0
C      1  0.4325810000000  0.5014460000000  0.5011610000000 1.0
C      1  0.4920120000000  0.4257280000000  0.5047230000000 1.0
C      1  0.4992420000000  0.5673450000000  0.5016010000000 1.0
C      1  0.4927430000000  0.4871550000000  0.5688530000000 1.0
C      1  0.4902630000000  0.5121370000000  0.4279860000000 1.0
C      1  0.5547090000000  0.4700940000000  0.5742310000000 1.0
C      1  0.5615920000000  0.5620030000000  0.4683750000000 1.0
C      1  0.4722380000000  0.5549600000000  0.5718180000000 1.0
C      1  0.4388250000000  0.4647010000000  0.4264220000000 1.0
C      1  0.4957860000000  0.4983120000000  0.4935450000000 1.0
END
