TITL C-38618-586-9 0.0367920250677566 125000 -253.616396637524 0 0 38 (C1) n - 1
REM
REM in /rds/project/t2_vol4/rds-t2-cs072/BORA/CARBON/from-Arr/AIRSS/Generating-Clusters/GAP-ML-2020/Higher-Symm/SD-CG/HFTN-CG
REM
REM
REM
REM
REM
REM ./C.cell (b20cbc046b6831c77cfcea5457e17084)
REM AIRSS Version 0.9.1 bugfix July 2018 build 013d7b7c2542+ Fri, 06 Jul 2018 19:26:36 +0100
REM compiler GCC version 9.3.0
REM options -cpp -mtune=generic -march=x86-64 -g -O0
REM seed -1161284603 -1249455386 -344326927 -604762448 -437227164 1395659158 -825025418 -1884575517 -342732850 -1065507355 749180197 232018003 -759211575 923645307 -26566869 458650836 929250297 542279896 370067832 -440037702 590936032 1406385951 -1729031778 -1761132563 1140011258 -1152340153 -1109535657 448910882 297562091 -1692159646 73239679 73587002 1874207395
REM
CELL 1.54180   50.00000   50.00000   50.00000   90.00000   90.00000   90.00000
LATT -1
SFAC C  
C      1  0.4740730000000  0.4989590000000  0.4429820000000 1.0
C      1  0.5349820000000  0.4689080000000  0.4551950000000 1.0
C      1  0.5314730000000  0.4941070000000  0.5363610000000 1.0
C      1  0.4880240000000  0.4664000000000  0.4881500000000 1.0
C      1  0.4550810000000  0.4893810000000  0.5102670000000 1.0
C      1  0.5324020000000  0.4887700000000  0.4762140000000 1.0
C      1  0.5360500000000  0.5186590000000  0.4714660000000 1.0
C      1  0.4865470000000  0.4754400000000  0.5420850000000 1.0
C      1  0.4907430000000  0.5441820000000  0.5339740000000 1.0
C      1  0.5529140000000  0.5297140000000  0.4910220000000 1.0
C      1  0.4523160000000  0.5609690000000  0.4878870000000 1.0
C      1  0.5032910000000  0.4992790000000  0.5355310000000 1.0
C      1  0.4601360000000  0.4885430000000  0.5380850000000 1.0
C      1  0.4636870000000  0.5160500000000  0.5486230000000 1.0
C      1  0.5178520000000  0.4482760000000  0.5230950000000 1.0
C      1  0.4936970000000  0.5078150000000  0.4591900000000 1.0
C      1  0.4451930000000  0.4697260000000  0.4663810000000 1.0
C      1  0.5484670000000  0.5157160000000  0.5296900000000 1.0
C      1  0.4531420000000  0.4832120000000  0.4449110000000 1.0
C      1  0.5379070000000  0.4695880000000  0.5222300000000 1.0
C      1  0.5017500000000  0.5504110000000  0.4828380000000 1.0
C      1  0.5212070000000  0.4386110000000  0.4755430000000 1.0
C      1  0.5633740000000  0.5068530000000  0.5066840000000 1.0
C      1  0.4593730000000  0.4690680000000  0.4899940000000 1.0
C      1  0.5362770000000  0.5376630000000  0.5149300000000 1.0
C      1  0.5078660000000  0.5381020000000  0.5098400000000 1.0
C      1  0.4671360000000  0.5135030000000  0.5010370000000 1.0
C      1  0.5022390000000  0.4910840000000  0.4834110000000 1.0
C      1  0.4960680000000  0.5099340000000  0.5064630000000 1.0
C      1  0.5510650000000  0.4816180000000  0.4989380000000 1.0
C      1  0.4775950000000  0.5619640000000  0.4818890000000 1.0
C      1  0.4534670000000  0.5382790000000  0.5051250000000 1.0
C      1  0.4622680000000  0.5391570000000  0.5314950000000 1.0
C      1  0.4977770000000  0.4507650000000  0.5432920000000 1.0
C      1  0.5112580000000  0.5303940000000  0.4639050000000 1.0
C      1  0.5059560000000  0.4449780000000  0.4962240000000 1.0
C      1  0.5358320000000  0.4425630000000  0.4538830000000 1.0
C      1  0.4915140000000  0.5213590000000  0.5511670000000 1.0
END
