TITL C-38740-9475-8 9.12903048359248 125000 -763.643361345364 0 0 111 (C1) n - 1
REM
REM in /rds/project/t2_vol4/rds-t2-cs072/BORA/CARBON/from-Arr/AIRSS/Generating-Clusters/GAP-ML-2020/Higher-Symm/SD-CG/HFTN-CG
REM
REM
REM
REM
REM
REM ./C.cell (b20cbc046b6831c77cfcea5457e17084)
REM AIRSS Version 0.9.1 bugfix July 2018 build 013d7b7c2542+ Fri, 06 Jul 2018 19:26:36 +0100
REM compiler GCC version 9.3.0
REM options -cpp -mtune=generic -march=x86-64 -g -O0
REM seed 1887275042 712059520 -1337837969 511435321 1486905258 -857773566 -1213861376 -2067327654 503076902 -1682269841 -1329251198 -1587595147 -466782052 589158573 569245810 1416610462 350840615 1432843224 174900841 -1499313242 -442583754 -686691845 1936315307 51851915 -1298953382 235769522 -2089174903 2115070458 -144355842 -767208152 170873477 -99816668 1929294674
REM
CELL 1.54180   50.00000   50.00000   50.00000   90.00000   90.00000   90.00000
LATT -1
SFAC C  
C      1  0.4423000000000  0.5130520000000  0.5247820000000 1.0
C      1  0.4471920000000  0.4785600000000  0.4901150000000 1.0
C      1  0.4463400000000  0.5121170000000  0.4954090000000 1.0
C      1  0.4609680000000  0.4706660000000  0.5711020000000 1.0
C      1  0.4563440000000  0.4533810000000  0.4348640000000 1.0
C      1  0.4541340000000  0.5787350000000  0.4880290000000 1.0
C      1  0.4364020000000  0.4627480000000  0.5552350000000 1.0
C      1  0.4330170000000  0.4715490000000  0.4345460000000 1.0
C      1  0.4324670000000  0.5654060000000  0.5036700000000 1.0
C      1  0.5299690000000  0.4661560000000  0.4354530000000 1.0
C      1  0.5278400000000  0.5747070000000  0.5000280000000 1.0
C      1  0.5318160000000  0.4525120000000  0.5619100000000 1.0
C      1  0.4747470000000  0.5840790000000  0.5074890000000 1.0
C      1  0.4791690000000  0.4493720000000  0.5616150000000 1.0
C      1  0.4781490000000  0.4701560000000  0.4236480000000 1.0
C      1  0.5062280000000  0.4746300000000  0.4187050000000 1.0
C      1  0.5028240000000  0.5862090000000  0.5127550000000 1.0
C      1  0.5061850000000  0.4380110000000  0.5602670000000 1.0
C      1  0.5424700000000  0.5097770000000  0.5201280000000 1.0
C      1  0.5355250000000  0.4869430000000  0.5031410000000 1.0
C      1  0.5335570000000  0.5064180000000  0.4825580000000 1.0
C      1  0.4406870000000  0.4983860000000  0.4315940000000 1.0
C      1  0.4389770000000  0.5616260000000  0.5310370000000 1.0
C      1  0.4408080000000  0.4459370000000  0.5328720000000 1.0
C      1  0.4252970000000  0.4887840000000  0.5581420000000 1.0
C      1  0.4190960000000  0.4577340000000  0.4550730000000 1.0
C      1  0.4237720000000  0.5507810000000  0.4806800000000 1.0
C      1  0.4182280000000  0.4989990000000  0.5332290000000 1.0
C      1  0.4042640000000  0.4720010000000  0.4736840000000 1.0
C      1  0.4246900000000  0.5210290000000  0.4752780000000 1.0
C      1  0.4964150000000  0.5643520000000  0.4258770000000 1.0
C      1  0.5135550000000  0.5132620000000  0.5923030000000 1.0
C      1  0.4917230000000  0.4250060000000  0.4717700000000 1.0
C      1  0.4725180000000  0.4192940000000  0.4918950000000 1.0
C      1  0.4761170000000  0.5463520000000  0.4265390000000 1.0
C      1  0.4774480000000  0.5449750000000  0.5696430000000 1.0
C      1  0.4422040000000  0.4392530000000  0.4585740000000 1.0
C      1  0.4442370000000  0.5638170000000  0.4640630000000 1.0
C      1  0.4492540000000  0.4996010000000  0.5716020000000 1.0
C      1  0.5280370000000  0.5346510000000  0.4457490000000 1.0
C      1  0.5446170000000  0.5226980000000  0.5641950000000 1.0
C      1  0.5291070000000  0.4353930000000  0.4966970000000 1.0
C      1  0.4391090000000  0.5365050000000  0.5431740000000 1.0
C      1  0.4334120000000  0.4499730000000  0.5049350000000 1.0
C      1  0.4360450000000  0.5218560000000  0.4471790000000 1.0
C      1  0.4928580000000  0.5390460000000  0.4768620000000 1.0
C      1  0.5028680000000  0.5337670000000  0.5750320000000 1.0
C      1  0.4938650000000  0.4539250000000  0.4753160000000 1.0
C      1  0.4066250000000  0.4619550000000  0.5013730000000 1.0
C      1  0.4052280000000  0.4991940000000  0.4842430000000 1.0
C      1  0.4041980000000  0.4889580000000  0.5114610000000 1.0
C      1  0.4512900000000  0.5460380000000  0.4427030000000 1.0
C      1  0.4538400000000  0.5288350000000  0.5664980000000 1.0
C      1  0.4474810000000  0.4311220000000  0.4851730000000 1.0
C      1  0.5405830000000  0.4621230000000  0.4841450000000 1.0
C      1  0.5390320000000  0.5341110000000  0.4755630000000 1.0
C      1  0.5419140000000  0.4976990000000  0.5474430000000 1.0
C      1  0.5945560000000  0.5140840000000  0.5004820000000 1.0
C      1  0.5996750000000  0.4918280000000  0.5230040000000 1.0
C      1  0.5983230000000  0.4917620000000  0.4808980000000 1.0
C      1  0.5177140000000  0.5450560000000  0.4932370000000 1.0
C      1  0.5204500000000  0.4774420000000  0.5468300000000 1.0
C      1  0.5174850000000  0.4685050000000  0.4640140000000 1.0
C      1  0.4626470000000  0.5766580000000  0.5336200000000 1.0
C      1  0.4664400000000  0.4360730000000  0.5391090000000 1.0
C      1  0.4671750000000  0.4965700000000  0.4224030000000 1.0
C      1  0.5032480000000  0.4495890000000  0.5045220000000 1.0
C      1  0.5018630000000  0.5222850000000  0.4533330000000 1.0
C      1  0.5244830000000  0.5408190000000  0.5553020000000 1.0
C      1  0.5115580000000  0.4752830000000  0.5193080000000 1.0
C      1  0.5099790000000  0.4975670000000  0.4697090000000 1.0
C      1  0.5170050000000  0.5294850000000  0.5217620000000 1.0
C      1  0.5481930000000  0.4894860000000  0.4317890000000 1.0
C      1  0.5460030000000  0.5686970000000  0.5226320000000 1.0
C      1  0.5504990000000  0.4399110000000  0.5420650000000 1.0
C      1  0.4853020000000  0.4274800000000  0.5184760000000 1.0
C      1  0.4863960000000  0.5178740000000  0.4258070000000 1.0
C      1  0.4812050000000  0.5695950000000  0.5535060000000 1.0
C      1  0.5696230000000  0.4861930000000  0.4485920000000 1.0
C      1  0.5657400000000  0.5514600000000  0.5133250000000 1.0
C      1  0.5721170000000  0.4579390000000  0.5389920000000 1.0
C      1  0.5344880000000  0.5128690000000  0.4248070000000 1.0
C      1  0.5300430000000  0.5676110000000  0.5462070000000 1.0
C      1  0.5350820000000  0.4242360000000  0.5242090000000 1.0
C      1  0.5375710000000  0.5810240000000  0.4512050000000 1.0
C      1  0.5334950000000  0.4892540000000  0.5946870000000 1.0
C      1  0.5370780000000  0.4207130000000  0.4525430000000 1.0
C      1  0.5893240000000  0.4655290000000  0.5164520000000 1.0
C      1  0.5861000000000  0.5069170000000  0.4595140000000 1.0
C      1  0.5711360000000  0.5233970000000  0.5214180000000 1.0
C      1  0.5415820000000  0.5150870000000  0.5921480000000 1.0
C      1  0.5199270000000  0.4196220000000  0.4731550000000 1.0
C      1  0.5219740000000  0.5630670000000  0.4368720000000 1.0
C      1  0.5854510000000  0.5308900000000  0.4757020000000 1.0
C      1  0.5844550000000  0.5042070000000  0.5426540000000 1.0
C      1  0.5873690000000  0.4657050000000  0.4871710000000 1.0
C      1  0.4872950000000  0.5242780000000  0.5204860000000 1.0
C      1  0.4857690000000  0.4859580000000  0.5152490000000 1.0
C      1  0.4854370000000  0.4952740000000  0.4858340000000 1.0
C      1  0.4707980000000  0.4737030000000  0.4759070000000 1.0
C      1  0.4755090000000  0.5230760000000  0.4930270000000 1.0
C      1  0.4723320000000  0.5033650000000  0.5326340000000 1.0
C      1  0.5051570000000  0.5795700000000  0.5411350000000 1.0
C      1  0.5084680000000  0.4209940000000  0.5368760000000 1.0
C      1  0.5096990000000  0.5030710000000  0.4145760000000 1.0
C      1  0.5470230000000  0.5764290000000  0.4757170000000 1.0
C      1  0.5474860000000  0.4708150000000  0.5796170000000 1.0
C      1  0.5489750000000  0.4434540000000  0.4452170000000 1.0
C      1  0.5668560000000  0.4823650000000  0.5555890000000 1.0
C      1  0.5655140000000  0.4616180000000  0.4662300000000 1.0
C      1  0.5638860000000  0.5500330000000  0.4834000000000 1.0
END
