TITL C-38734-7493-5 -70.5430762919746 125000 -516.255360653428 0 0 80 (C1) n - 1
REM
REM in /rds/project/t2_vol4/rds-t2-cs072/BORA/CARBON/from-Arr/AIRSS/Generating-Clusters/GAP-ML-2020/Higher-Symm/SD-CG/HFTN-CG
REM
REM
REM
REM
REM
REM ./C.cell (b20cbc046b6831c77cfcea5457e17084)
REM AIRSS Version 0.9.1 bugfix July 2018 build 013d7b7c2542+ Fri, 06 Jul 2018 19:26:36 +0100
REM compiler GCC version 9.3.0
REM options -cpp -mtune=generic -march=x86-64 -g -O0
REM seed 1853316565 -993407024 764015631 -1946556531 1420404823 724598045 -1168064783 1622400618 -355509331 2082672107 -217283963 -1048369815 -556985131 -639626116 1793343143 -588510922 557137550 -1809902101 -1384865950 -1874092390 1347725589 -1395116816 301854056 1220979242 -1992646357 -1465540464 -481490383 1411908572 1942717100 2116526650 -821467605 1136006148 -344848017
REM
CELL 1.54180   50.00000   50.00000   50.00000   90.00000   90.00000   90.00000
LATT -1
SFAC C  
C      1  0.5557470000000  0.4613420000000  0.4363690000000 1.0
C      1  0.4388410000000  0.5594390000000  0.4694370000000 1.0
C      1  0.4572660000000  0.4368480000000  0.5535730000000 1.0
C      1  0.5579450000000  0.5242000000000  0.5597590000000 1.0
C      1  0.4541510000000  0.5235230000000  0.4411400000000 1.0
C      1  0.4362500000000  0.4723770000000  0.5588870000000 1.0
C      1  0.4352170000000  0.4550620000000  0.5229200000000 1.0
C      1  0.5761360000000  0.4420500000000  0.4687280000000 1.0
C      1  0.5618250000000  0.5382420000000  0.5200400000000 1.0
C      1  0.4701440000000  0.5621520000000  0.4417640000000 1.0
C      1  0.5424130000000  0.5604540000000  0.5501720000000 1.0
C      1  0.5270150000000  0.4396980000000  0.4558800000000 1.0
C      1  0.4437180000000  0.4695600000000  0.4420920000000 1.0
C      1  0.5589840000000  0.5619150000000  0.4686240000000 1.0
C      1  0.5413490000000  0.4332660000000  0.5555680000000 1.0
C      1  0.4359570000000  0.5236600000000  0.5604350000000 1.0
C      1  0.5776660000000  0.5422550000000  0.4375950000000 1.0
C      1  0.5591100000000  0.4697460000000  0.5601890000000 1.0
C      1  0.5575260000000  0.4523520000000  0.5208790000000 1.0
C      1  0.4427170000000  0.4391090000000  0.4706880000000 1.0
C      1  0.4369880000000  0.5376190000000  0.5139350000000 1.0
C      1  0.5275800000000  0.5581350000000  0.4416350000000 1.0
C      1  0.4569740000000  0.5545790000000  0.5556930000000 1.0
C      1  0.4727830000000  0.4387430000000  0.4410020000000 1.0
C      1  0.5268010000000  0.4652440000000  0.4421760000000 1.0
C      1  0.4362640000000  0.5364380000000  0.4861100000000 1.0
C      1  0.4623770000000  0.4423940000000  0.5250170000000 1.0
C      1  0.5312660000000  0.5357700000000  0.5659970000000 1.0
C      1  0.4841680000000  0.5356720000000  0.4412760000000 1.0
C      1  0.4629450000000  0.4640590000000  0.5684180000000 1.0
C      1  0.4401070000000  0.4843590000000  0.5291260000000 1.0
C      1  0.5723580000000  0.4692590000000  0.4623760000000 1.0
C      1  0.5534780000000  0.5109480000000  0.5312210000000 1.0
C      1  0.4658860000000  0.5696990000000  0.4702090000000 1.0
C      1  0.5370930000000  0.5553300000000  0.5211330000000 1.0
C      1  0.5178520000000  0.4477300000000  0.4806320000000 1.0
C      1  0.4736180000000  0.4688780000000  0.4400800000000 1.0
C      1  0.5697360000000  0.5339030000000  0.4654440000000 1.0
C      1  0.5303220000000  0.4385910000000  0.5277300000000 1.0
C      1  0.4640170000000  0.5289670000000  0.5699120000000 1.0
C      1  0.5133610000000  0.5336560000000  0.4403930000000 1.0
C      1  0.5324820000000  0.4583710000000  0.5707400000000 1.0
C      1  0.5533960000000  0.4818840000000  0.5314120000000 1.0
C      1  0.4386590000000  0.4702140000000  0.4714840000000 1.0
C      1  0.4395380000000  0.5138220000000  0.5319280000000 1.0
C      1  0.5307510000000  0.5666390000000  0.4702050000000 1.0
C      1  0.4601230000000  0.5547180000000  0.5272620000000 1.0
C      1  0.4722230000000  0.4318010000000  0.4704870000000 1.0
C      1  0.4845370000000  0.4809480000000  0.5657060000000 1.0
C      1  0.5563950000000  0.4864420000000  0.4770260000000 1.0
C      1  0.4844560000000  0.5514250000000  0.4855550000000 1.0
C      1  0.4806210000000  0.5274970000000  0.4696330000000 1.0
C      1  0.5119760000000  0.5200080000000  0.5530190000000 1.0
C      1  0.5135640000000  0.4864870000000  0.4619300000000 1.0
C      1  0.5229710000000  0.5118610000000  0.5253950000000 1.0
C      1  0.4535850000000  0.5162880000000  0.4713830000000 1.0
C      1  0.4667700000000  0.4858210000000  0.5121460000000 1.0
C      1  0.4830040000000  0.4589770000000  0.5134680000000 1.0
C      1  0.5293460000000  0.4757550000000  0.4854240000000 1.0
C      1  0.5149500000000  0.5387950000000  0.5127400000000 1.0
C      1  0.5082580000000  0.4662940000000  0.5585810000000 1.0
C      1  0.4601690000000  0.4881110000000  0.4815040000000 1.0
C      1  0.5132300000000  0.5563120000000  0.4891630000000 1.0
C      1  0.5247890000000  0.5138160000000  0.4575210000000 1.0
C      1  0.4835340000000  0.5112220000000  0.5570250000000 1.0
C      1  0.4844220000000  0.4769900000000  0.4660520000000 1.0
C      1  0.4720760000000  0.5134870000000  0.5274610000000 1.0
C      1  0.5509050000000  0.5128000000000  0.4674270000000 1.0
C      1  0.5251670000000  0.4827740000000  0.5156660000000 1.0
C      1  0.5092780000000  0.4601160000000  0.5289410000000 1.0
C      1  0.4891250000000  0.4510450000000  0.4842220000000 1.0
C      1  0.4825880000000  0.5406230000000  0.5159860000000 1.0
C      1  0.5560040000000  0.5599460000000  0.4385380000000 1.0
C      1  0.4302480000000  0.5510110000000  0.5610290000000 1.0
C      1  0.5670310000000  0.4440000000000  0.5486250000000 1.0
C      1  0.4433340000000  0.5509000000000  0.4413710000000 1.0
C      1  0.4293600000000  0.4460470000000  0.5493670000000 1.0
C      1  0.5554750000000  0.4343720000000  0.4505010000000 1.0
C      1  0.4437860000000  0.4411510000000  0.4417950000000 1.0
C      1  0.5687130000000  0.5476220000000  0.5472080000000 1.0
END
