TITL C-38724-7406-1 -0.00302360231815599 125000 -49.1116170310233 0 0 8 (Cs) n - 1
REM
REM in /rds/project/t2_vol4/rds-t2-cs072/BORA/CARBON/from-Arr/AIRSS/Generating-Clusters/GAP-ML-2020/Higher-Symm/SD-CG/HFTN-CG
REM
REM
REM
REM
REM
REM ./C.cell (b20cbc046b6831c77cfcea5457e17084)
REM AIRSS Version 0.9.1 bugfix July 2018 build 013d7b7c2542+ Fri, 06 Jul 2018 19:26:36 +0100
REM compiler GCC version 9.3.0
REM options -cpp -mtune=generic -march=x86-64 -g -O0
REM seed 1553160027 -1181843611 73351297 -100482105 -96971599 -714609620 -261950022 785842553 1876324424 259731318 -160151773 -1399059636 800915177 920448919 771410296 -1742230975 791245266 1862738314 1287361747 110758763 -1542205031 1603891811 1481006125 1642234001 -739169816 -851818024 -370462540 1513035339 422421886 257932344 1646555564 1805724083 158286233
REM
CELL 1.54180   50.00000   50.00000   50.00000   90.00000   90.00000   90.00000
LATT -1
SFAC C  
C      1  0.5212810000000  0.4921460000000  0.5287140000000 1.0
C      1  0.4702550000000  0.4833180000000  0.4921880000000 1.0
C      1  0.4969800000000  0.4827360000000  0.5342080000000 1.0
C      1  0.5255060000000  0.5112860000000  0.5124910000000 1.0
C      1  0.4856520000000  0.4929220000000  0.4726970000000 1.0
C      1  0.5023750000000  0.5117900000000  0.4761230000000 1.0
C      1  0.5193990000000  0.5248530000000  0.4910200000000 1.0
C      1  0.4784890000000  0.4836900000000  0.5164690000000 1.0
END
