TITL C-38609-641-8 -0.0190504272051162 125000 -289.28186480256 0 0 44 (Ci) n - 1
REM
REM in /rds/project/t2_vol4/rds-t2-cs072/BORA/CARBON/from-Arr/AIRSS/Generating-Clusters/GAP-ML-2020/Higher-Symm/SD-CG/HFTN-CG
REM
REM
REM
REM
REM
REM ./C.cell (b20cbc046b6831c77cfcea5457e17084)
REM AIRSS Version 0.9.1 bugfix July 2018 build 013d7b7c2542+ Fri, 06 Jul 2018 19:26:36 +0100
REM compiler GCC version 9.3.0
REM options -cpp -mtune=generic -march=x86-64 -g -O0
REM seed 876188703 -111297800 910438809 -1746318499 1935751822 968124994 -270155972 589749777 -1596233720 406235460 127054150 -1030661318 -594819396 -823362762 824436917 6753847 126341466 -851386204 1258282314 -1422455395 1444315905 -1047440982 832179760 -663791547 1989039639 520452904 -2133262376 -1467532330 154721833 368926028 343501837 -1459654524 -280060108
REM
CELL 1.54180   50.00000   50.00000   50.00000   90.00000   90.00000   90.00000
LATT -1
SFAC C  
C      1  0.4435830000000  0.4561340000000  0.4660480000000 1.0
C      1  0.4496900000000  0.5442100000000  0.5043420000000 1.0
C      1  0.4603580000000  0.4500410000000  0.5348320000000 1.0
C      1  0.4923450000000  0.5432000000000  0.5582980000000 1.0
C      1  0.5312860000000  0.4564790000000  0.5581750000000 1.0
C      1  0.5583890000000  0.5438660000000  0.5301390000000 1.0
C      1  0.5522820000000  0.4557900000000  0.4918450000000 1.0
C      1  0.5416140000000  0.5499590000000  0.4613560000000 1.0
C      1  0.5096280000000  0.4568000000000  0.4378890000000 1.0
C      1  0.4706870000000  0.5435210000000  0.4380120000000 1.0
C      1  0.5276550000000  0.4949330000000  0.4588390000000 1.0
C      1  0.4999410000000  0.5047020000000  0.4501080000000 1.0
C      1  0.4757120000000  0.4914570000000  0.4601080000000 1.0
C      1  0.4666970000000  0.5066790000000  0.4852920000000 1.0
C      1  0.4597230000000  0.4936780000000  0.5139700000000 1.0
C      1  0.4743170000000  0.5050670000000  0.5373490000000 1.0
C      1  0.5020320000000  0.4952980000000  0.5460800000000 1.0
C      1  0.5262610000000  0.5085430000000  0.5360790000000 1.0
C      1  0.5352760000000  0.4933210000000  0.5108960000000 1.0
C      1  0.5422490000000  0.5063220000000  0.4822180000000 1.0
C      1  0.4824350000000  0.4533550000000  0.5459310000000 1.0
C      1  0.5168290000000  0.5483090000000  0.5613000000000 1.0
C      1  0.5523990000000  0.4562040000000  0.5434380000000 1.0
C      1  0.5638730000000  0.5424130000000  0.5057840000000 1.0
C      1  0.5495130000000  0.4516130000000  0.4672860000000 1.0
C      1  0.5195380000000  0.5466450000000  0.4502560000000 1.0
C      1  0.4851440000000  0.4516910000000  0.4348870000000 1.0
C      1  0.4495740000000  0.5437960000000  0.4527490000000 1.0
C      1  0.4380990000000  0.4575870000000  0.4904040000000 1.0
C      1  0.4524600000000  0.5483870000000  0.5289010000000 1.0
C      1  0.5358680000000  0.5339160000000  0.5445780000000 1.0
C      1  0.5507130000000  0.4675900000000  0.5169200000000 1.0
C      1  0.5531250000000  0.5326760000000  0.4816960000000 1.0
C      1  0.5315580000000  0.4675420000000  0.4507970000000 1.0
C      1  0.4966770000000  0.5326210000000  0.4423280000000 1.0
C      1  0.4661050000000  0.4660840000000  0.4516100000000 1.0
C      1  0.4512590000000  0.5324100000000  0.4792670000000 1.0
C      1  0.4488480000000  0.4673240000000  0.5144920000000 1.0
C      1  0.4704140000000  0.5324580000000  0.5453900000000 1.0
C      1  0.5052960000000  0.4673790000000  0.5538590000000 1.0
C      1  0.4978450000000  0.4627740000000  0.4937720000000 1.0
C      1  0.5041270000000  0.5372260000000  0.5024150000000 1.0
C      1  0.5073890000000  0.4848020000000  0.5013990000000 1.0
C      1  0.4945830000000  0.5151980000000  0.4947890000000 1.0
END
