TITL C-38523-6054-5 -229.891124241271 125000 -915.999596675983 0 0 130 (C5) n - 1
REM
REM in /rds/project/t2_vol4/rds-t2-cs072/BORA/CARBON/from-Arr/AIRSS/Generating-Clusters/GAP-ML-2020/Higher-Symm/SD-CG/HFTN-CG
REM
REM
REM
REM
REM
REM ./C.cell (b20cbc046b6831c77cfcea5457e17084)
REM AIRSS Version 0.9.1 bugfix July 2018 build 013d7b7c2542+ Fri, 06 Jul 2018 19:26:36 +0100
REM compiler GCC version 9.3.0
REM options -cpp -mtune=generic -march=x86-64 -g -O0
REM seed -1973297649 -1980190533 282700570 371877580 1968714463 248844665 1480749620 1338012402 -1848946406 1774594721 550150106 881461049 1375942610 1919375842 -1877510957 1955722591 -1088094004 1591681839 293365220 -1853738371 -1663387668 -992432895 -2095002068 204353621 350286857 -148697774 854191239 1618069258 305591652 1402868362 -571563858 -795315217 -1684779506
REM
CELL 1.54180   50.00000   50.00000   50.00000   90.00000   90.00000   90.00000
LATT -1
SFAC C  
C      1  0.5540760000000  0.5075850000000  0.4228460000000 1.0
C      1  0.4433330000000  0.5075850000000  0.4247280000000 1.0
C      1  0.4109010000000  0.5075880000000  0.5306330000000 1.0
C      1  0.5016010000000  0.5075900000000  0.5942040000000 1.0
C      1  0.5900880000000  0.5075880000000  0.5275880000000 1.0
C      1  0.4652560000000  0.4568850000000  0.5270250000000 1.0
C      1  0.5149650000000  0.4568860000000  0.5413960000000 1.0
C      1  0.5439930000000  0.4568840000000  0.4985600000000 1.0
C      1  0.5122240000000  0.4568830000000  0.4577160000000 1.0
C      1  0.4635620000000  0.4568840000000  0.4753080000000 1.0
C      1  0.5094530000000  0.5483160000000  0.5755640000000 1.0
C      1  0.5747880000000  0.5483150000000  0.5143590000000 1.0
C      1  0.5367680000000  0.5483120000000  0.4333090000000 1.0
C      1  0.4479360000000  0.5483120000000  0.4444220000000 1.0
C      1  0.4310550000000  0.5483150000000  0.5323400000000 1.0
C      1  0.5187010000000  0.5079920000000  0.5395540000000 1.0
C      1  0.5433970000000  0.5079910000000  0.4944370000000 1.0
C      1  0.5081200000000  0.5079900000000  0.4570080000000 1.0
C      1  0.4616210000000  0.5079900000000  0.4789920000000 1.0
C      1  0.4681610000000  0.5079920000000  0.5300080000000 1.0
C      1  0.4871750000000  0.5954440000000  0.4792790000000 1.0
C      1  0.4763320000000  0.5954440000000  0.5057920000000 1.0
C      1  0.4981970000000  0.5954450000000  0.5242970000000 1.0
C      1  0.5225530000000  0.5954440000000  0.5092210000000 1.0
C      1  0.5157410000000  0.5954440000000  0.4813980000000 1.0
C      1  0.4932460000000  0.4182870000000  0.5229600000000 1.0
C      1  0.5197470000000  0.4182870000000  0.5135210000000 1.0
C      1  0.5189590000000  0.4182860000000  0.4853990000000 1.0
C      1  0.4919700000000  0.4182860000000  0.4774590000000 1.0
C      1  0.4760790000000  0.4182860000000  0.5006730000000 1.0
C      1  0.4118910000000  0.5024880000000  0.4797820000000 1.0
C      1  0.4535440000000  0.5024910000000  0.5775490000000 1.0
C      1  0.5593980000000  0.5024910000000  0.5681460000000 1.0
C      1  0.5831660000000  0.5024880000000  0.4645670000000 1.0
C      1  0.4920010000000  0.5024860000000  0.4099550000000 1.0
C      1  0.4755050000000  0.4968820000000  0.5993940000000 1.0
C      1  0.5869600000000  0.4968810000000  0.5540100000000 1.0
C      1  0.5782390000000  0.4968780000000  0.4339860000000 1.0
C      1  0.4613940000000  0.4968770000000  0.4051910000000 1.0
C      1  0.3979010000000  0.4968800000000  0.5074190000000 1.0
C      1  0.5109820000000  0.4824180000000  0.5238220000000 1.0
C      1  0.5260490000000  0.4824170000000  0.4969170000000 1.0
C      1  0.5051170000000  0.4824160000000  0.4742740000000 1.0
C      1  0.4771140000000  0.4824170000000  0.4871840000000 1.0
C      1  0.4807390000000  0.4824180000000  0.5178060000000 1.0
C      1  0.5345760000000  0.4400390000000  0.4727360000000 1.0
C      1  0.4847540000000  0.4400380000000  0.4586920000000 1.0
C      1  0.4560010000000  0.4400400000000  0.5017370000000 1.0
C      1  0.4880540000000  0.4400410000000  0.5423830000000 1.0
C      1  0.5366160000000  0.4400400000000  0.5244600000000 1.0
C      1  0.5627560000000  0.5695340000000  0.4991910000000 1.0
C      1  0.5186250000000  0.5695320000000  0.4400640000000 1.0
C      1  0.4487550000000  0.5695320000000  0.4637640000000 1.0
C      1  0.4497040000000  0.5695340000000  0.5375380000000 1.0
C      1  0.5201600000000  0.5695350000000  0.5594330000000 1.0
C      1  0.5675280000000  0.4560490000000  0.5714700000000 1.0
C      1  0.5888390000000  0.4560460000000  0.4578630000000 1.0
C      1  0.4873770000000  0.4560440000000  0.4024890000000 1.0
C      1  0.4033600000000  0.4560460000000  0.4818740000000 1.0
C      1  0.4528960000000  0.4560490000000  0.5863100000000 1.0
C      1  0.5815110000000  0.4295960000000  0.4569430000000 1.0
C      1  0.4842370000000  0.4295940000000  0.4091740000000 1.0
C      1  0.4087470000000  0.4295960000000  0.4869260000000 1.0
C      1  0.4593660000000  0.4295990000000  0.5827480000000 1.0
C      1  0.5661400000000  0.4295990000000  0.5642180000000 1.0
C      1  0.5123210000000  0.5201570000000  0.4000000000000 1.0
C      1  0.4087030000000  0.5201590000000  0.4573800000000 1.0
C      1  0.4312540000000  0.5201620000000  0.5736580000000 1.0
C      1  0.5488100000000  0.5201630000000  0.5881430000000 1.0
C      1  0.5989120000000  0.5201600000000  0.4808160000000 1.0
C      1  0.5543220000000  0.5676760000000  0.4718270000000 1.0
C      1  0.4899940000000  0.5676750000000  0.4396290000000 1.0
C      1  0.4394930000000  0.5676770000000  0.4908590000000 1.0
C      1  0.4726110000000  0.5676790000000  0.5547190000000 1.0
C      1  0.5435790000000  0.5676780000000  0.5429560000000 1.0
C      1  0.5063030000000  0.4755400000000  0.4111660000000 1.0
C      1  0.4174610000000  0.4755420000000  0.4665550000000 1.0
C      1  0.4426850000000  0.4755450000000  0.5681650000000 1.0
C      1  0.5471170000000  0.4755450000000  0.5755740000000 1.0
C      1  0.5864350000000  0.4755420000000  0.4785440000000 1.0
C      1  0.5523970000000  0.4551810000000  0.4304170000000 1.0
C      1  0.4500130000000  0.4551810000000  0.4286660000000 1.0
C      1  0.4167090000000  0.4551830000000  0.5254980000000 1.0
C      1  0.4985110000000  0.4551850000000  0.5870950000000 1.0
C      1  0.5823710000000  0.4551840000000  0.5283310000000 1.0
C      1  0.4271150000000  0.4345670000000  0.5071400000000 1.0
C      1  0.4842660000000  0.4345690000000  0.5715250000000 1.0
C      1  0.5631600000000  0.4345680000000  0.5370680000000 1.0
C      1  0.5547700000000  0.4345660000000  0.4513870000000 1.0
C      1  0.4706890000000  0.4345650000000  0.4328900000000 1.0
C      1  0.4524210000000  0.5826280000000  0.5117920000000 1.0
C      1  0.4965150000000  0.5826290000000  0.5488930000000 1.0
C      1  0.5454250000000  0.5826280000000  0.5184220000000 1.0
C      1  0.5315590000000  0.5826260000000  0.4624890000000 1.0
C      1  0.4740800000000  0.5826260000000  0.4583920000000 1.0
C      1  0.5542520000000  0.5136410000000  0.4663500000000 1.0
C      1  0.4847620000000  0.5136400000000  0.4380050000000 1.0
C      1  0.4363310000000  0.5136420000000  0.4953340000000 1.0
C      1  0.4758880000000  0.5136440000000  0.5591110000000 1.0
C      1  0.5487670000000  0.5136430000000  0.5411980000000 1.0
C      1  0.4303650000000  0.5434990000000  0.5043860000000 1.0
C      1  0.4826540000000  0.5435010000000  0.5675810000000 1.0
C      1  0.5589140000000  0.5435010000000  0.5373800000000 1.0
C      1  0.5537570000000  0.5434980000000  0.4555190000000 1.0
C      1  0.4743090000000  0.5434980000000  0.4351280000000 1.0
C      1  0.4584860000000  0.4999670000000  0.4492870000000 1.0
C      1  0.4389400000000  0.4999690000000  0.5238110000000 1.0
C      1  0.5037770000000  0.4999700000000  0.5654290000000 1.0
C      1  0.5633940000000  0.4999690000000  0.5166260000000 1.0
C      1  0.5354030000000  0.4999670000000  0.4448460000000 1.0
C      1  0.5354220000000  0.5266920000000  0.4139220000000 1.0
C      1  0.4290820000000  0.5266930000000  0.4397120000000 1.0
C      1  0.4207480000000  0.5266960000000  0.5488170000000 1.0
C      1  0.5219380000000  0.5266970000000  0.5904570000000 1.0
C      1  0.5928100000000  0.5266950000000  0.5070880000000 1.0
C      1  0.3986020000000  0.4692620000000  0.5088980000000 1.0
C      1  0.4771280000000  0.4692650000000  0.5991850000000 1.0
C      1  0.5872620000000  0.4692630000000  0.5524030000000 1.0
C      1  0.5768030000000  0.4692600000000  0.4332030000000 1.0
C      1  0.4602050000000  0.4692590000000  0.4063150000000 1.0
C      1  0.5720210000000  0.4700870000000  0.5044860000000 1.0
C      1  0.5265210000000  0.4700850000000  0.4328910000000 1.0
C      1  0.4443700000000  0.4700860000000  0.4540390000000 1.0
C      1  0.4390980000000  0.4700880000000  0.5387050000000 1.0
C      1  0.5179900000000  0.4700890000000  0.5698830000000 1.0
C      1  0.4814260000000  0.5295810000000  0.5154490000000 1.0
C      1  0.5089540000000  0.5295820000000  0.5224380000000 1.0
C      1  0.5241080000000  0.5295810000000  0.4984170000000 1.0
C      1  0.5059450000000  0.5295800000000  0.4765820000000 1.0
C      1  0.4795660000000  0.5295800000000  0.4871090000000 1.0
END
