TITL C-38632-745-4 176.155946945994 125000 -293.101322697548 0 0 46 (C1) n - 1
REM
REM in /rds/project/t2_vol4/rds-t2-cs072/BORA/CARBON/from-Arr/AIRSS/Generating-Clusters/GAP-ML-2020/Higher-Symm/SD-CG/HFTN-CG
REM
REM
REM
REM
REM
REM ./C.cell (b20cbc046b6831c77cfcea5457e17084)
REM AIRSS Version 0.9.1 bugfix July 2018 build 013d7b7c2542+ Fri, 06 Jul 2018 19:26:36 +0100
REM compiler GCC version 9.3.0
REM options -cpp -mtune=generic -march=x86-64 -g -O0
REM seed 198185234 -1752058037 2118944638 429702971 1542999018 1429827090 -271461952 -642618034 -1671917543 -267929387 2125565814 1833576608 195640943 -21632314 -406518423 1184254484 1173457799 -156322955 982406535 1224873519 -2054814526 1596794819 1134722846 -1144500373 1246079352 102526082 -1092623891 -1422137231 -1306693999 1726423034 1596505371 -328635742 1004751056
REM
CELL 1.54180   50.00000   50.00000   50.00000   90.00000   90.00000   90.00000
LATT -1
SFAC C  
C      1  0.4424330000000  0.5201730000000  0.4954820000000 1.0
C      1  0.4986550000000  0.5269030000000  0.5523440000000 1.0
C      1  0.5582100000000  0.5213680000000  0.5044720000000 1.0
C      1  0.5048510000000  0.5243900000000  0.4476760000000 1.0
C      1  0.4467990000000  0.4696820000000  0.5034620000000 1.0
C      1  0.4919050000000  0.4736140000000  0.4417100000000 1.0
C      1  0.5512700000000  0.4704470000000  0.4921320000000 1.0
C      1  0.5061810000000  0.4755260000000  0.5570880000000 1.0
C      1  0.4893720000000  0.4831480000000  0.5169230000000 1.0
C      1  0.5183280000000  0.4858440000000  0.5133900000000 1.0
C      1  0.5142240000000  0.4828840000000  0.4836050000000 1.0
C      1  0.4853170000000  0.4798170000000  0.4879060000000 1.0
C      1  0.4854080000000  0.5093570000000  0.4818390000000 1.0
C      1  0.5153980000000  0.5121280000000  0.4843490000000 1.0
C      1  0.5126590000000  0.5156200000000  0.5133210000000 1.0
C      1  0.4837010000000  0.5129350000000  0.5108770000000 1.0
C      1  0.4550190000000  0.4684240000000  0.5326090000000 1.0
C      1  0.5340380000000  0.4674930000000  0.5469220000000 1.0
C      1  0.5320420000000  0.4650190000000  0.4666110000000 1.0
C      1  0.4632070000000  0.4741170000000  0.4511180000000 1.0
C      1  0.4510010000000  0.5275320000000  0.4674230000000 1.0
C      1  0.5313290000000  0.5297690000000  0.4655430000000 1.0
C      1  0.5501890000000  0.5212880000000  0.5336170000000 1.0
C      1  0.4685760000000  0.5282670000000  0.5441540000000 1.0
C      1  0.4367250000000  0.4858920000000  0.5498290000000 1.0
C      1  0.5544230000000  0.4801030000000  0.5627380000000 1.0
C      1  0.5364450000000  0.4867310000000  0.4467660000000 1.0
C      1  0.4424860000000  0.4905820000000  0.4458820000000 1.0
C      1  0.4338900000000  0.5152240000000  0.4477320000000 1.0
C      1  0.5508350000000  0.5079130000000  0.4603050000000 1.0
C      1  0.5561750000000  0.5047640000000  0.5541220000000 1.0
C      1  0.4491690000000  0.5090320000000  0.5516270000000 1.0
C      1  0.5440450000000  0.5449860000000  0.4915690000000 1.0
C      1  0.4790740000000  0.5281620000000  0.4613840000000 1.0
C      1  0.4614610000000  0.5287810000000  0.5163110000000 1.0
C      1  0.5227300000000  0.5358280000000  0.5322430000000 1.0
C      1  0.5388790000000  0.4668490000000  0.5187050000000 1.0
C      1  0.4832000000000  0.4686520000000  0.5400330000000 1.0
C      1  0.4658380000000  0.4599420000000  0.4785900000000 1.0
C      1  0.5053110000000  0.4499740000000  0.4554630000000 1.0
C      1  0.5603260000000  0.4987790000000  0.4861870000000 1.0
C      1  0.4337840000000  0.4933760000000  0.4979740000000 1.0
C      1  0.5054560000000  0.5030830000000  0.5633280000000 1.0
C      1  0.5102100000000  0.4960320000000  0.4385520000000 1.0
C      1  0.4859100000000  0.4393740000000  0.4716230000000 1.0
C      1  0.5289970000000  0.5558750000000  0.5116160000000 1.0
END
