TITL C-38724-7406-8 12.4592228494004 125000 -492.27684900775 0 0 69 (C1) n - 1
REM
REM in /rds/project/t2_vol4/rds-t2-cs072/BORA/CARBON/from-Arr/AIRSS/Generating-Clusters/GAP-ML-2020/Higher-Symm/SD-CG/HFTN-CG
REM
REM
REM
REM
REM
REM ./C.cell (b20cbc046b6831c77cfcea5457e17084)
REM AIRSS Version 0.9.1 bugfix July 2018 build 013d7b7c2542+ Fri, 06 Jul 2018 19:26:36 +0100
REM compiler GCC version 9.3.0
REM options -cpp -mtune=generic -march=x86-64 -g -O0
REM seed 1664080725 1652589865 1781079444 192396518 -599821929 1432374776 1660722837 -1284260507 -1942001273 1025117135 -1825731270 1735060700 899436545 -1285133181 -841532070 368614037 1729171989 1835030196 741298378 109636358 2059872914 1328991995 2029717450 873149847 120361829 -175633034 1330503559 485835318 948662717 -182114838 142605457 1640595855 -2073877662
REM
CELL 1.54180   50.00000   50.00000   50.00000   90.00000   90.00000   90.00000
LATT -1
SFAC C  
C      1  0.4990180000000  0.5393080000000  0.5440910000000 1.0
C      1  0.5389590000000  0.5401410000000  0.5101330000000 1.0
C      1  0.5319620000000  0.5516550000000  0.4602590000000 1.0
C      1  0.4855140000000  0.5384460000000  0.4506720000000 1.0
C      1  0.4539310000000  0.5374630000000  0.5242590000000 1.0
C      1  0.5056940000000  0.5035950000000  0.4148550000000 1.0
C      1  0.4490320000000  0.5178450000000  0.4755530000000 1.0
C      1  0.4054650000000  0.5422010000000  0.5333550000000 1.0
C      1  0.5398760000000  0.5162020000000  0.5652010000000 1.0
C      1  0.5601500000000  0.5141890000000  0.4827310000000 1.0
C      1  0.4963820000000  0.4988150000000  0.5688410000000 1.0
C      1  0.5620710000000  0.4938940000000  0.5277290000000 1.0
C      1  0.5398250000000  0.4880750000000  0.4452850000000 1.0
C      1  0.4651420000000  0.4914180000000  0.4388810000000 1.0
C      1  0.4276420000000  0.4994090000000  0.5139910000000 1.0
C      1  0.4658600000000  0.5299770000000  0.4964340000000 1.0
C      1  0.4713460000000  0.5284230000000  0.5454040000000 1.0
C      1  0.5107500000000  0.5319620000000  0.5166440000000 1.0
C      1  0.5463800000000  0.5385290000000  0.4794190000000 1.0
C      1  0.5135080000000  0.5349180000000  0.4456780000000 1.0
C      1  0.4925580000000  0.4506210000000  0.5568480000000 1.0
C      1  0.5522450000000  0.4460550000000  0.5235040000000 1.0
C      1  0.5315950000000  0.4406130000000  0.4574830000000 1.0
C      1  0.4647950000000  0.4437790000000  0.4533580000000 1.0
C      1  0.4386880000000  0.4514420000000  0.5194810000000 1.0
C      1  0.4253330000000  0.5269860000000  0.5252740000000 1.0
C      1  0.5134690000000  0.5215630000000  0.5639580000000 1.0
C      1  0.5595430000000  0.5162900000000  0.5114460000000 1.0
C      1  0.5230780000000  0.5100100000000  0.4349870000000 1.0
C      1  0.4646630000000  0.5171310000000  0.4517580000000 1.0
C      1  0.5248250000000  0.5784000000000  0.4695570000000 1.0
C      1  0.4809510000000  0.5644680000000  0.4659450000000 1.0
C      1  0.4625300000000  0.5672510000000  0.5164780000000 1.0
C      1  0.5004550000000  0.5708790000000  0.5426510000000 1.0
C      1  0.5396480000000  0.5716500000000  0.5147130000000 1.0
C      1  0.5023600000000  0.4604710000000  0.4284960000000 1.0
C      1  0.4374660000000  0.4714790000000  0.4754650000000 1.0
C      1  0.4547480000000  0.4807760000000  0.5510760000000 1.0
C      1  0.5344910000000  0.4700120000000  0.5611140000000 1.0
C      1  0.5615030000000  0.4674220000000  0.4846400000000 1.0
C      1  0.5493740000000  0.4932210000000  0.5539730000000 1.0
C      1  0.5574800000000  0.4899090000000  0.4680920000000 1.0
C      1  0.4881690000000  0.4844360000000  0.4227830000000 1.0
C      1  0.4331810000000  0.4969380000000  0.4860550000000 1.0
C      1  0.4703190000000  0.5034050000000  0.5577070000000 1.0
C      1  0.4648730000000  0.4339610000000  0.4804230000000 1.0
C      1  0.4512280000000  0.4346450000000  0.5381010000000 1.0
C      1  0.5099980000000  0.4359300000000  0.5390970000000 1.0
C      1  0.5385260000000  0.4315490000000  0.5034660000000 1.0
C      1  0.5064510000000  0.4280840000000  0.4618510000000 1.0
C      1  0.4753120000000  0.5820140000000  0.5353960000000 1.0
C      1  0.5252340000000  0.5802760000000  0.5365910000000 1.0
C      1  0.5413270000000  0.5862310000000  0.4911560000000 1.0
C      1  0.4990850000000  0.5859410000000  0.4626460000000 1.0
C      1  0.4673560000000  0.5587900000000  0.4895770000000 1.0
C      1  0.5359830000000  0.4467570000000  0.5455650000000 1.0
C      1  0.5479100000000  0.4428490000000  0.4792870000000 1.0
C      1  0.4895510000000  0.4397220000000  0.4421170000000 1.0
C      1  0.4429560000000  0.4485100000000  0.4922050000000 1.0
C      1  0.4653030000000  0.4536030000000  0.5536350000000 1.0
C      1  0.4519840000000  0.4692960000000  0.4513060000000 1.0
C      1  0.4363700000000  0.4785540000000  0.5295810000000 1.0
C      1  0.5069960000000  0.4728760000000  0.5676940000000 1.0
C      1  0.5641250000000  0.4695330000000  0.5130870000000 1.0
C      1  0.5287930000000  0.4625910000000  0.4394450000000 1.0
C      1  0.4926450000000  0.4254160000000  0.4874110000000 1.0
C      1  0.4943330000000  0.5151000000000  0.5003800000000 1.0
C      1  0.4989850000000  0.4880160000000  0.4983690000000 1.0
C      1  0.5107350000000  0.4267160000000  0.5106940000000 1.0
END
