TITL C-38722-9683-10 0.10691363962205 125000 -309.470158729982 0 0 46 (C1) n - 1
REM
REM in /rds/project/t2_vol4/rds-t2-cs072/BORA/CARBON/from-Arr/AIRSS/Generating-Clusters/GAP-ML-2020/Higher-Symm/SD-CG/HFTN-CG
REM
REM
REM
REM
REM
REM ./C.cell (b20cbc046b6831c77cfcea5457e17084)
REM AIRSS Version 0.9.1 bugfix July 2018 build 013d7b7c2542+ Fri, 06 Jul 2018 19:26:36 +0100
REM compiler GCC version 9.3.0
REM options -cpp -mtune=generic -march=x86-64 -g -O0
REM seed -1355050088 -2033604338 -80121019 467572123 -174218500 1492187292 2074081544 1802314759 679000464 1972450835 1943497237 1646876765 -1530627775 -526441639 -1571257007 1451911613 -1689821193 -1184704199 244641778 288411735 -994633106 -1020264310 250482111 1868794883 -243023641 372648479 -450597992 1302876790 -172694479 1957223600 712890089 477410586 1445772214
REM
CELL 1.54180   50.00000   50.00000   50.00000   90.00000   90.00000   90.00000
LATT -1
SFAC C  
C      1  0.4998330000000  0.4959570000000  0.5315970000000 1.0
C      1  0.4731800000000  0.4953470000000  0.4820180000000 1.0
C      1  0.5195250000000  0.4857080000000  0.4841760000000 1.0
C      1  0.4983420000000  0.4952660000000  0.4658510000000 1.0
C      1  0.4794970000000  0.4862490000000  0.5101670000000 1.0
C      1  0.5228210000000  0.4896960000000  0.5140850000000 1.0
C      1  0.4567580000000  0.5228640000000  0.5507820000000 1.0
C      1  0.4791570000000  0.5310440000000  0.4369880000000 1.0
C      1  0.5608230000000  0.5155450000000  0.5144630000000 1.0
C      1  0.4572570000000  0.5309970000000  0.4501680000000 1.0
C      1  0.4789520000000  0.5201010000000  0.5635540000000 1.0
C      1  0.5645670000000  0.5198710000000  0.4879450000000 1.0
C      1  0.5014150000000  0.5459930000000  0.5283400000000 1.0
C      1  0.4784010000000  0.5430730000000  0.4880650000000 1.0
C      1  0.5263940000000  0.5472410000000  0.4867690000000 1.0
C      1  0.5021920000000  0.5422750000000  0.4747860000000 1.0
C      1  0.4768590000000  0.5475410000000  0.5150690000000 1.0
C      1  0.5259680000000  0.5490000000000  0.5150770000000 1.0
C      1  0.5016960000000  0.4743060000000  0.4415640000000 1.0
C      1  0.5521250000000  0.4883350000000  0.5255980000000 1.0
C      1  0.4540760000000  0.4786140000000  0.5233730000000 1.0
C      1  0.5008220000000  0.4768270000000  0.5559530000000 1.0
C      1  0.5442250000000  0.4785670000000  0.4711920000000 1.0
C      1  0.4505640000000  0.4744590000000  0.4727480000000 1.0
C      1  0.5253660000000  0.4770210000000  0.4277560000000 1.0
C      1  0.5427280000000  0.4942950000000  0.5539380000000 1.0
C      1  0.4329840000000  0.4922220000000  0.5077020000000 1.0
C      1  0.5253100000000  0.4785190000000  0.5675610000000 1.0
C      1  0.5411710000000  0.4918480000000  0.4446180000000 1.0
C      1  0.4262330000000  0.4775560000000  0.4856220000000 1.0
C      1  0.5445790000000  0.5331360000000  0.5292750000000 1.0
C      1  0.4545440000000  0.5320950000000  0.5245870000000 1.0
C      1  0.5038560000000  0.5226720000000  0.4528600000000 1.0
C      1  0.5453540000000  0.5313480000000  0.4721860000000 1.0
C      1  0.4589490000000  0.5227780000000  0.4794750000000 1.0
C      1  0.5037200000000  0.5250390000000  0.5484270000000 1.0
C      1  0.4581150000000  0.4571410000000  0.4521200000000 1.0
C      1  0.5640650000000  0.4665760000000  0.4864040000000 1.0
C      1  0.4772200000000  0.4638240000000  0.5617870000000 1.0
C      1  0.4558370000000  0.4656490000000  0.5476320000000 1.0
C      1  0.5676510000000  0.4674130000000  0.5121520000000 1.0
C      1  0.4801060000000  0.4570320000000  0.4389480000000 1.0
C      1  0.5332060000000  0.5189170000000  0.4490720000000 1.0
C      1  0.5329220000000  0.5205300000000  0.5513290000000 1.0
C      1  0.4412100000000  0.5191850000000  0.5030530000000 1.0
C      1  0.5044040000000  0.4701640000000  0.5028000000000 1.0
END
