TITL C-38506-6113-7 -0.00258611757791913 125000 -51.3110357237808 0 0 8 (D(inf)h) n - 1
REM
REM in /rds/project/t2_vol4/rds-t2-cs072/BORA/CARBON/from-Arr/AIRSS/Generating-Clusters/GAP-ML-2020/Higher-Symm/SD-CG/HFTN-CG
REM
REM
REM
REM
REM
REM ./C.cell (b20cbc046b6831c77cfcea5457e17084)
REM AIRSS Version 0.9.1 bugfix July 2018 build 013d7b7c2542+ Fri, 06 Jul 2018 19:26:36 +0100
REM compiler GCC version 9.3.0
REM options -cpp -mtune=generic -march=x86-64 -g -O0
REM seed -2051258589 1274543273 -1811382952 -2089811146 1373865479 -134612510 -1058846517 -52179872 280897350 1671684629 -1194680733 -528626334 -979023422 -285402131 -2006891231 1492460494 1775394614 -1805030478 -938927735 591319907 -1285936392 1335181948 -1510195300 -16966661 -306338460 570642242 346225402 1575962371 1290591295 -719707241 615287033 -2108796697 -305758509
REM
CELL 1.54180   50.00000   50.00000   50.00000   90.00000   90.00000   90.00000
LATT -1
SFAC C  
C      1  0.4995790000000  0.4996210000000  0.5130250000000 1.0
C      1  0.4995790000000  0.4996210000000  0.4869750000000 1.0
C      1  0.4995790000000  0.4996210000000  0.4103490000000 1.0
C      1  0.4995790000000  0.4996210000000  0.5896510000000 1.0
C      1  0.4995790000000  0.4996210000000  0.5381020000000 1.0
C      1  0.4995790000000  0.4996210000000  0.4358710000000 1.0
C      1  0.4995790000000  0.4996210000000  0.4618980000000 1.0
C      1  0.4995790000000  0.4996210000000  0.5641290000000 1.0
END
