TITL C-38608-838-3 -32.6753000261352 125000 -586.71178001977 0 0 81 (C1) n - 1
REM
REM in /rds/project/t2_vol4/rds-t2-cs072/BORA/CARBON/from-Arr/AIRSS/Generating-Clusters/GAP-ML-2020/Higher-Symm/SD-CG/HFTN-CG
REM
REM
REM
REM
REM
REM ./C.cell (b20cbc046b6831c77cfcea5457e17084)
REM AIRSS Version 0.9.1 bugfix July 2018 build 013d7b7c2542+ Fri, 06 Jul 2018 19:26:36 +0100
REM compiler GCC version 9.3.0
REM options -cpp -mtune=generic -march=x86-64 -g -O0
REM seed -1278386164 -1160971979 1102194525 1061883552 -1630370703 1095761314 -1713252130 949000468 415242244 2026979312 -2041898153 -2054331782 -310414930 -2126098730 -736423582 1400278009 43647387 -1759080738 459883953 -1202393304 -1566097891 1449635211 1472468391 -1580127559 -1086075912 1266117086 1792466625 2020400253 1766364820 -1219978361 505954495 -1652188931 -917004434
REM
CELL 1.54180   50.00000   50.00000   50.00000   90.00000   90.00000   90.00000
LATT -1
SFAC C  
C      1  0.4419560000000  0.5426190000000  0.5139980000000 1.0
C      1  0.4394290000000  0.5339030000000  0.5402940000000 1.0
C      1  0.4379160000000  0.5076550000000  0.5522480000000 1.0
C      1  0.4394660000000  0.4820430000000  0.5416440000000 1.0
C      1  0.4310200000000  0.4775550000000  0.5147240000000 1.0
C      1  0.4383290000000  0.4537200000000  0.4997660000000 1.0
C      1  0.4389200000000  0.4607330000000  0.4713540000000 1.0
C      1  0.4291440000000  0.4872690000000  0.4698300000000 1.0
C      1  0.4372800000000  0.5071670000000  0.4515150000000 1.0
C      1  0.4384850000000  0.5317800000000  0.4660160000000 1.0
C      1  0.4317570000000  0.5261760000000  0.4933910000000 1.0
C      1  0.5144370000000  0.5341870000000  0.5802870000000 1.0
C      1  0.5221280000000  0.4887770000000  0.5800000000000 1.0
C      1  0.5205540000000  0.4444710000000  0.5568310000000 1.0
C      1  0.5177340000000  0.4137070000000  0.5231130000000 1.0
C      1  0.5130330000000  0.4216050000000  0.4791230000000 1.0
C      1  0.5244970000000  0.4511740000000  0.4461080000000 1.0
C      1  0.5213730000000  0.4943080000000  0.4203620000000 1.0
C      1  0.5151960000000  0.5399730000000  0.4202580000000 1.0
C      1  0.5131540000000  0.5674890000000  0.4546540000000 1.0
C      1  0.5219030000000  0.5747110000000  0.4979980000000 1.0
C      1  0.5237090000000  0.5626990000000  0.5458100000000 1.0
C      1  0.4604000000000  0.5635980000000  0.5076130000000 1.0
C      1  0.4574350000000  0.5427260000000  0.5611300000000 1.0
C      1  0.4563870000000  0.5162610000000  0.5733000000000 1.0
C      1  0.4577460000000  0.4634140000000  0.5540650000000 1.0
C      1  0.4575340000000  0.4381000000000  0.5423570000000 1.0
C      1  0.4513020000000  0.4336000000000  0.5136570000000 1.0
C      1  0.4551240000000  0.4529950000000  0.4498730000000 1.0
C      1  0.4616480000000  0.4729850000000  0.4289290000000 1.0
C      1  0.4553780000000  0.5005260000000  0.4308790000000 1.0
C      1  0.4548970000000  0.5532760000000  0.4583890000000 1.0
C      1  0.4623100000000  0.5720960000000  0.4799770000000 1.0
C      1  0.5380390000000  0.5344110000000  0.4359140000000 1.0
C      1  0.5310270000000  0.5448620000000  0.4636730000000 1.0
C      1  0.5432590000000  0.5575170000000  0.4883430000000 1.0
C      1  0.5474350000000  0.5461600000000  0.5489840000000 1.0
C      1  0.5412630000000  0.5292350000000  0.5707550000000 1.0
C      1  0.5467440000000  0.5015750000000  0.5716420000000 1.0
C      1  0.5447510000000  0.4468460000000  0.5395990000000 1.0
C      1  0.5398430000000  0.4301170000000  0.5161070000000 1.0
C      1  0.5376100000000  0.4344870000000  0.4872810000000 1.0
C      1  0.5451320000000  0.4532120000000  0.4661040000000 1.0
C      1  0.5445760000000  0.5064410000000  0.4330070000000 1.0
C      1  0.4797720000000  0.4388550000000  0.4433470000000 1.0
C      1  0.4860790000000  0.4597120000000  0.4230990000000 1.0
C      1  0.4738360000000  0.5208700000000  0.4233110000000 1.0
C      1  0.4718700000000  0.5476140000000  0.4353100000000 1.0
C      1  0.4798080000000  0.5937880000000  0.4760400000000 1.0
C      1  0.4808740000000  0.5690480000000  0.5271840000000 1.0
C      1  0.4782430000000  0.5592090000000  0.5542960000000 1.0
C      1  0.4772230000000  0.4995490000000  0.5802580000000 1.0
C      1  0.4791500000000  0.4726840000000  0.5706850000000 1.0
C      1  0.4781850000000  0.4189470000000  0.5424170000000 1.0
C      1  0.4732320000000  0.4146480000000  0.5123100000000 1.0
C      1  0.5016510000000  0.5160130000000  0.4143190000000 1.0
C      1  0.4981970000000  0.5592910000000  0.4326400000000 1.0
C      1  0.5054560000000  0.5837450000000  0.4757420000000 1.0
C      1  0.5096380000000  0.5729590000000  0.5230820000000 1.0
C      1  0.5042740000000  0.5556860000000  0.5654450000000 1.0
C      1  0.5031930000000  0.5092250000000  0.5862620000000 1.0
C      1  0.5078930000000  0.4653990000000  0.5711750000000 1.0
C      1  0.5056070000000  0.4214960000000  0.5474020000000 1.0
C      1  0.4991870000000  0.4112830000000  0.5015380000000 1.0
C      1  0.5044150000000  0.4325290000000  0.4549290000000 1.0
C      1  0.5133090000000  0.4678400000000  0.4255650000000 1.0
C      1  0.5659580000000  0.5359440000000  0.5289730000000 1.0
C      1  0.5768210000000  0.5114510000000  0.5361400000000 1.0
C      1  0.5655300000000  0.4922130000000  0.5523610000000 1.0
C      1  0.5649300000000  0.4667050000000  0.5391060000000 1.0
C      1  0.5793800000000  0.4698940000000  0.5154570000000 1.0
C      1  0.5808370000000  0.4736620000000  0.4911910000000 1.0
C      1  0.5652770000000  0.4737710000000  0.4674780000000 1.0
C      1  0.5656550000000  0.4970540000000  0.4498520000000 1.0
C      1  0.5813520000000  0.5185950000000  0.4604010000000 1.0
C      1  0.5825540000000  0.5327550000000  0.4807190000000 1.0
C      1  0.5656990000000  0.5448810000000  0.5007630000000 1.0
C      1  0.4257310000000  0.4982840000000  0.4957510000000 1.0
C      1  0.5005650000000  0.4930050000000  0.5158320000000 1.0
C      1  0.5076960000000  0.5101800000000  0.4975990000000 1.0
C      1  0.5156150000000  0.5206980000000  0.4753220000000 1.0
END
