TITL C-38732-381-4 0.0237993153037572 125000 -203.254490238747 0 0 32 (C3h) n - 1
REM
REM in /rds/project/t2_vol4/rds-t2-cs072/BORA/CARBON/from-Arr/AIRSS/Generating-Clusters/GAP-ML-2020/Higher-Symm/SD-CG/HFTN-CG
REM
REM
REM
REM
REM
REM ./C.cell (b20cbc046b6831c77cfcea5457e17084)
REM AIRSS Version 0.9.1 bugfix July 2018 build 013d7b7c2542+ Fri, 06 Jul 2018 19:26:36 +0100
REM compiler GCC version 9.3.0
REM options -cpp -mtune=generic -march=x86-64 -g -O0
REM seed 1803087315 345349350 1660086356 -893174176 1779002289 742107723 994977885 2082366528 1442929473 2126778829 -1599600461 1661959651 1551547469 -1049212412 1016660615 1756032922 -583779862 1980105423 2084895992 -857416821 258259058 1057252504 -125564497 1802971260 -1122009604 -378670941 -886107343 1312066653 2094777604 -435419417 -1843707592 -924870901 -1567454535
REM
CELL 1.54180   50.00000   50.00000   50.00000   90.00000   90.00000   90.00000
LATT -1
SFAC C  
C      1  0.4861340000000  0.4760420000000  0.4435910000000 1.0
C      1  0.5274220000000  0.4994020000000  0.4435890000000 1.0
C      1  0.4865480000000  0.5234780000000  0.4435900000000 1.0
C      1  0.4861370000000  0.4760460000000  0.5507160000000 1.0
C      1  0.5274250000000  0.4994060000000  0.5507140000000 1.0
C      1  0.4865510000000  0.5234820000000  0.5507140000000 1.0
C      1  0.5350900000000  0.5014830000000  0.5103850000000 1.0
C      1  0.4809160000000  0.5290800000000  0.5103860000000 1.0
C      1  0.4841030000000  0.4683660000000  0.5103880000000 1.0
C      1  0.5350890000000  0.5014820000000  0.4839180000000 1.0
C      1  0.4809160000000  0.5290790000000  0.4839180000000 1.0
C      1  0.4841020000000  0.4683650000000  0.4839200000000 1.0
C      1  0.5106000000000  0.5607880000000  0.4841400000000 1.0
C      1  0.4418000000000  0.4782180000000  0.4841440000000 1.0
C      1  0.5477070000000  0.4599200000000  0.4841420000000 1.0
C      1  0.5106010000000  0.5607890000000  0.5101600000000 1.0
C      1  0.4418000000000  0.4782190000000  0.5101650000000 1.0
C      1  0.5477080000000  0.4599210000000  0.5101630000000 1.0
C      1  0.4642420000000  0.4849280000000  0.5274060000000 1.0
C      1  0.5306780000000  0.4760030000000  0.5274040000000 1.0
C      1  0.5051900000000  0.5380000000000  0.5274030000000 1.0
C      1  0.4642410000000  0.4849260000000  0.4669020000000 1.0
C      1  0.5306770000000  0.4760000000000  0.4669010000000 1.0
C      1  0.5051880000000  0.5379980000000  0.4668990000000 1.0
C      1  0.5036390000000  0.4657580000000  0.5300190000000 1.0
C      1  0.5275820000000  0.5197060000000  0.5300160000000 1.0
C      1  0.4688900000000  0.5134670000000  0.5300180000000 1.0
C      1  0.5036370000000  0.4657560000000  0.4642890000000 1.0
C      1  0.5275800000000  0.5197030000000  0.4642860000000 1.0
C      1  0.4688890000000  0.5134650000000  0.4642880000000 1.0
C      1  0.5000350000000  0.4996400000000  0.4368850000000 1.0
C      1  0.5000380000000  0.4996450000000  0.5574200000000 1.0
END
