TITL C-38607-691-2 -77.9100194156777 125000 -357.284269204705 0 0 52 (C1) n - 1
REM
REM in /rds/project/t2_vol4/rds-t2-cs072/BORA/CARBON/from-Arr/AIRSS/Generating-Clusters/GAP-ML-2020/Higher-Symm/SD-CG/HFTN-CG
REM
REM
REM
REM
REM
REM ./C.cell (b20cbc046b6831c77cfcea5457e17084)
REM AIRSS Version 0.9.1 bugfix July 2018 build 013d7b7c2542+ Fri, 06 Jul 2018 19:26:36 +0100
REM compiler GCC version 9.3.0
REM options -cpp -mtune=generic -march=x86-64 -g -O0
REM seed -994960978 -2144955651 -1487169058 -1983035588 922579097 -2124225087 -380498107 -1731608172 2123386797 1887242930 1572294661 -1068837474 -1943476623 1180277727 637276813 -1365215248 506523542 -310331009 1749401249 -2138708088 -261106575 1559702025 530805456 -117535474 1266482395 -2000439312 1866691044 -1319848763 1617231893 1552070116 -1207045501 963467172 1880200096
REM
CELL 1.54180   50.00000   50.00000   50.00000   90.00000   90.00000   90.00000
LATT -1
SFAC C  
C      1  0.5406980000000  0.4723040000000  0.4599060000000 1.0
C      1  0.5031740000000  0.4717630000000  0.5623520000000 1.0
C      1  0.4943980000000  0.5398170000000  0.4605080000000 1.0
C      1  0.5336360000000  0.4404190000000  0.5466200000000 1.0
C      1  0.5020570000000  0.5108110000000  0.5052740000000 1.0
C      1  0.5311470000000  0.4849190000000  0.5589930000000 1.0
C      1  0.5236120000000  0.4318860000000  0.5210010000000 1.0
C      1  0.4758360000000  0.4814240000000  0.5568950000000 1.0
C      1  0.4655710000000  0.5056370000000  0.5649170000000 1.0
C      1  0.4485310000000  0.4544300000000  0.4822700000000 1.0
C      1  0.4652260000000  0.4965110000000  0.4504920000000 1.0
C      1  0.4956440000000  0.4336370000000  0.5317200000000 1.0
C      1  0.4993920000000  0.5125710000000  0.4769100000000 1.0
C      1  0.4728600000000  0.4480450000000  0.4921680000000 1.0
C      1  0.5565340000000  0.4917380000000  0.4727190000000 1.0
C      1  0.4994560000000  0.5373730000000  0.5214810000000 1.0
C      1  0.5520950000000  0.5245750000000  0.5362230000000 1.0
C      1  0.5116470000000  0.5624980000000  0.4705970000000 1.0
C      1  0.4408840000000  0.4802030000000  0.4889510000000 1.0
C      1  0.4739090000000  0.5444340000000  0.5326730000000 1.0
C      1  0.4686950000000  0.5683560000000  0.4897480000000 1.0
C      1  0.4623900000000  0.4698020000000  0.5330380000000 1.0
C      1  0.5545410000000  0.4681380000000  0.5153900000000 1.0
C      1  0.5132200000000  0.5600930000000  0.5102450000000 1.0
C      1  0.5289730000000  0.4861550000000  0.4371270000000 1.0
C      1  0.5252240000000  0.4558540000000  0.4778930000000 1.0
C      1  0.5614720000000  0.4917190000000  0.5009360000000 1.0
C      1  0.5017190000000  0.4831370000000  0.4358840000000 1.0
C      1  0.4662900000000  0.5479860000000  0.4690410000000 1.0
C      1  0.4586900000000  0.5232340000000  0.5460270000000 1.0
C      1  0.4402910000000  0.5339720000000  0.5051700000000 1.0
C      1  0.5411060000000  0.5108470000000  0.5551410000000 1.0
C      1  0.4565910000000  0.5566440000000  0.5132970000000 1.0
C      1  0.5513380000000  0.5353870000000  0.4859940000000 1.0
C      1  0.4962090000000  0.5750730000000  0.4922820000000 1.0
C      1  0.4994390000000  0.4842680000000  0.5106180000000 1.0
C      1  0.5026750000000  0.5260620000000  0.4357340000000 1.0
C      1  0.4447680000000  0.4860210000000  0.5173740000000 1.0
C      1  0.5587350000000  0.5193530000000  0.5097100000000 1.0
C      1  0.4419470000000  0.5130670000000  0.5246520000000 1.0
C      1  0.4967930000000  0.4658670000000  0.4846950000000 1.0
C      1  0.5383350000000  0.4477040000000  0.5015050000000 1.0
C      1  0.4734050000000  0.4460020000000  0.5211270000000 1.0
C      1  0.5488310000000  0.5179960000000  0.4632110000000 1.0
C      1  0.4907460000000  0.4870420000000  0.4647010000000 1.0
C      1  0.4837680000000  0.5048420000000  0.4294120000000 1.0
C      1  0.5305340000000  0.5152280000000  0.4413230000000 1.0
C      1  0.4454860000000  0.5286310000000  0.4778970000000 1.0
C      1  0.5331720000000  0.5554870000000  0.4889370000000 1.0
C      1  0.5468070000000  0.4652040000000  0.5433440000000 1.0
C      1  0.5070330000000  0.4440260000000  0.5570140000000 1.0
C      1  0.4444700000000  0.5018060000000  0.4688630000000 1.0
END
