TITL C-38618-586-4 -613.653398921135 125000 -104.064377149587 0 0 17 (Td) n - 1
REM
REM in /rds/project/t2_vol4/rds-t2-cs072/BORA/CARBON/from-Arr/AIRSS/Generating-Clusters/GAP-ML-2020/Higher-Symm/SD-CG/HFTN-CG
REM
REM
REM
REM
REM
REM ./C.cell (b20cbc046b6831c77cfcea5457e17084)
REM AIRSS Version 0.9.1 bugfix July 2018 build 013d7b7c2542+ Fri, 06 Jul 2018 19:26:36 +0100
REM compiler GCC version 9.3.0
REM options -cpp -mtune=generic -march=x86-64 -g -O0
REM seed 211155731 1344407647 -1451047841 -528580930 2098919434 446627365 -1811212405 1425932389 2074759210 -454531265 806568115 -866702828 872196964 1158298534 -480675504 194442762 1958610414 -392365202 -1281104243 -2111263762 1455356856 105520260 938034104 -1061636663 -978559707 -1758151785 11731094 1068220177 1492770620 -1968556953 442154195 -1397760163 1977020890
REM
CELL 1.54180   50.00000   50.00000   50.00000   90.00000   90.00000   90.00000
LATT -1
SFAC C  
C      1  0.4903370000000  0.5278020000000  0.5254010000000 1.0
C      1  0.5263260000000  0.5277770000000  0.4893830000000 1.0
C      1  0.5263460000000  0.4918040000000  0.5254170000000 1.0
C      1  0.4903230000000  0.4709210000000  0.4686160000000 1.0
C      1  0.5054880000000  0.5277560000000  0.4685610000000 1.0
C      1  0.5055190000000  0.4709710000000  0.5254430000000 1.0
C      1  0.5263410000000  0.4709560000000  0.5046040000000 1.0
C      1  0.4694990000000  0.5277810000000  0.5045790000000 1.0
C      1  0.4695010000000  0.4709350000000  0.4894540000000 1.0
C      1  0.5263210000000  0.5069290000000  0.4685710000000 1.0
C      1  0.4694900000000  0.4917470000000  0.4686060000000 1.0
C      1  0.4695110000000  0.5069690000000  0.5254270000000 1.0
C      1  0.5173420000000  0.4799190000000  0.4775830000000 1.0
C      1  0.4784970000000  0.4799450000000  0.5164600000000 1.0
C      1  0.4784760000000  0.5187730000000  0.4775660000000 1.0
C      1  0.5173520000000  0.5188120000000  0.5164110000000 1.0
C      1  0.4979170000000  0.4993620000000  0.4970050000000 1.0
END
