TITL C-38634-1932-1 -0.00537944933035836 125000 -22.9478495065594 0 0 4 (D(inf)h) n - 1
REM
REM in /rds/project/t2_vol4/rds-t2-cs072/BORA/CARBON/from-Arr/AIRSS/Generating-Clusters/GAP-ML-2020/Higher-Symm/SD-CG/HFTN-CG
REM
REM
REM
REM
REM
REM ./C.cell (b20cbc046b6831c77cfcea5457e17084)
REM AIRSS Version 0.9.1 bugfix July 2018 build 013d7b7c2542+ Fri, 06 Jul 2018 19:26:36 +0100
REM compiler GCC version 9.3.0
REM options -cpp -mtune=generic -march=x86-64 -g -O0
REM seed -776788620 -384476765 -9515025 -1532435824 -175894836 1674668199 2028075728 1142457352 -1631422350 36710977 -1415155018 -587277771 -519669013 -1151291308 1165528556 -2108149156 -607129213 263493939 -632024820 931063363 1498566630 -1655123870 -86628695 -367518490 1331703704 780883139 -239541204 -1575956279 1299820390 1761652697 -2104724372 -437918540 20890750
REM
CELL 1.54180   50.00000   50.00000   50.00000   90.00000   90.00000   90.00000
LATT -1
SFAC C  
C      1  0.5008010000000  0.5388630000000  0.4989650000000 1.0
C      1  0.5008010000000  0.5134660000000  0.4989650000000 1.0
C      1  0.5008010000000  0.4611370000000  0.4989650000000 1.0
C      1  0.5008010000000  0.4865340000000  0.4989650000000 1.0
END
