TITL C-38747-7499-3 -240.228120308429 125000 -626.936631272362 0 0 89 (C1) n - 1
REM
REM in /rds/project/t2_vol4/rds-t2-cs072/BORA/CARBON/from-Arr/AIRSS/Generating-Clusters/GAP-ML-2020/Higher-Symm/SD-CG/HFTN-CG
REM
REM
REM
REM
REM
REM ./C.cell (b20cbc046b6831c77cfcea5457e17084)
REM AIRSS Version 0.9.1 bugfix July 2018 build 013d7b7c2542+ Fri, 06 Jul 2018 19:26:36 +0100
REM compiler GCC version 9.3.0
REM options -cpp -mtune=generic -march=x86-64 -g -O0
REM seed 1230971318 -245187257 294589415 517122929 1998988073 -584714645 -123560544 1665537814 -1732006804 -1746871562 -1236252734 1221121355 1985225634 2125499155 426086701 36915856 1613338684 160401387 1595689670 1022147036 1444691677 108312856 -1664135874 -123029791 -257043929 -2028567225 -1410441700 -429693371 996193645 869129383 -1696296807 -1977005793 260937416
REM
CELL 1.54180   50.00000   50.00000   50.00000   90.00000   90.00000   90.00000
LATT -1
SFAC C  
C      1  0.4908380000000  0.5686230000000  0.4423030000000 1.0
C      1  0.5589860000000  0.4445610000000  0.4945540000000 1.0
C      1  0.5081570000000  0.5800220000000  0.5643570000000 1.0
C      1  0.4401620000000  0.4377630000000  0.5028100000000 1.0
C      1  0.5105260000000  0.5221320000000  0.4721170000000 1.0
C      1  0.5203230000000  0.4862480000000  0.4989910000000 1.0
C      1  0.4961630000000  0.5264590000000  0.5205020000000 1.0
C      1  0.4992390000000  0.4785050000000  0.5148840000000 1.0
C      1  0.5726530000000  0.4874480000000  0.5487600000000 1.0
C      1  0.4462880000000  0.5053790000000  0.5667700000000 1.0
C      1  0.4374390000000  0.5025940000000  0.4535100000000 1.0
C      1  0.5444630000000  0.5034990000000  0.4330980000000 1.0
C      1  0.5497800000000  0.5526280000000  0.5062010000000 1.0
C      1  0.4925050000000  0.4391010000000  0.5561770000000 1.0
C      1  0.4519920000000  0.5344810000000  0.4998460000000 1.0
C      1  0.5028750000000  0.4473130000000  0.4446970000000 1.0
C      1  0.4628250000000  0.4972350000000  0.4706980000000 1.0
C      1  0.5197730000000  0.5008500000000  0.4531490000000 1.0
C      1  0.5759270000000  0.4694950000000  0.5281160000000 1.0
C      1  0.4670540000000  0.5244430000000  0.5675850000000 1.0
C      1  0.4825720000000  0.5740180000000  0.5146640000000 1.0
C      1  0.4889990000000  0.4232080000000  0.4812900000000 1.0
C      1  0.5148550000000  0.5829280000000  0.4929490000000 1.0
C      1  0.5072860000000  0.4145790000000  0.5168830000000 1.0
C      1  0.5337340000000  0.5638310000000  0.4855200000000 1.0
C      1  0.5141480000000  0.4276710000000  0.5405320000000 1.0
C      1  0.4712040000000  0.5468350000000  0.5208050000000 1.0
C      1  0.4822900000000  0.4430810000000  0.4631640000000 1.0
C      1  0.4856180000000  0.4820540000000  0.5781510000000 1.0
C      1  0.4081580000000  0.5323890000000  0.4812170000000 1.0
C      1  0.5116850000000  0.4807410000000  0.4130410000000 1.0
C      1  0.5797700000000  0.5127560000000  0.5097030000000 1.0
C      1  0.4426380000000  0.4592790000000  0.4866670000000 1.0
C      1  0.5087880000000  0.5495510000000  0.4386730000000 1.0
C      1  0.5592270000000  0.4469480000000  0.5237490000000 1.0
C      1  0.4929300000000  0.5590190000000  0.5594060000000 1.0
C      1  0.5508750000000  0.4621720000000  0.4390600000000 1.0
C      1  0.5570480000000  0.5312830000000  0.5500540000000 1.0
C      1  0.4480720000000  0.4613550000000  0.5527230000000 1.0
C      1  0.4431920000000  0.5385500000000  0.4478050000000 1.0
C      1  0.5120990000000  0.5377230000000  0.5435560000000 1.0
C      1  0.4820710000000  0.5006780000000  0.5178290000000 1.0
C      1  0.4814320000000  0.5212920000000  0.4632160000000 1.0
C      1  0.5241580000000  0.4790080000000  0.4713600000000 1.0
C      1  0.4272040000000  0.5039130000000  0.5452690000000 1.0
C      1  0.4501880000000  0.4977390000000  0.4283060000000 1.0
C      1  0.5658140000000  0.5058950000000  0.4514280000000 1.0
C      1  0.5501450000000  0.4858990000000  0.5656090000000 1.0
C      1  0.5418860000000  0.5132500000000  0.5676520000000 1.0
C      1  0.4320800000000  0.4770740000000  0.5334430000000 1.0
C      1  0.4589360000000  0.5255490000000  0.4264660000000 1.0
C      1  0.5694380000000  0.4770210000000  0.4565640000000 1.0
C      1  0.5169400000000  0.4195830000000  0.4895530000000 1.0
C      1  0.5094550000000  0.5834430000000  0.5211160000000 1.0
C      1  0.4799500000000  0.4154940000000  0.5076420000000 1.0
C      1  0.4865180000000  0.5800240000000  0.4872060000000 1.0
C      1  0.5756250000000  0.5145280000000  0.5377030000000 1.0
C      1  0.4580230000000  0.4796130000000  0.5715260000000 1.0
C      1  0.4202130000000  0.5253430000000  0.4578570000000 1.0
C      1  0.5395190000000  0.4788180000000  0.4193260000000 1.0
C      1  0.4585750000000  0.4271360000000  0.5210680000000 1.0
C      1  0.4753370000000  0.5688330000000  0.4651020000000 1.0
C      1  0.5383300000000  0.4330920000000  0.4786000000000 1.0
C      1  0.5270690000000  0.5785760000000  0.5424540000000 1.0
C      1  0.5405840000000  0.5510240000000  0.5353700000000 1.0
C      1  0.4650780000000  0.4395320000000  0.5463030000000 1.0
C      1  0.4611760000000  0.5435140000000  0.4705790000000 1.0
C      1  0.5301620000000  0.4506470000000  0.4562400000000 1.0
C      1  0.5039250000000  0.4610420000000  0.5707780000000 1.0
C      1  0.4209730000000  0.5350000000000  0.5055540000000 1.0
C      1  0.4915820000000  0.4645970000000  0.4250070000000 1.0
C      1  0.5672850000000  0.5335500000000  0.4936380000000 1.0
C      1  0.5384800000000  0.4428910000000  0.5437540000000 1.0
C      1  0.4684790000000  0.5477420000000  0.5515100000000 1.0
C      1  0.4622630000000  0.4660400000000  0.4635580000000 1.0
C      1  0.5302830000000  0.5444800000000  0.4629040000000 1.0
C      1  0.5737130000000  0.4668970000000  0.4825750000000 1.0
C      1  0.5154740000000  0.5216830000000  0.5681640000000 1.0
C      1  0.4383540000000  0.4801870000000  0.5058690000000 1.0
C      1  0.4880640000000  0.5264090000000  0.4328050000000 1.0
C      1  0.4175740000000  0.5250410000000  0.5313560000000 1.0
C      1  0.4646410000000  0.4733240000000  0.4336260000000 1.0
C      1  0.5589630000000  0.5290980000000  0.4667820000000 1.0
C      1  0.5325570000000  0.4629660000000  0.5636570000000 1.0
C      1  0.4910250000000  0.5105510000000  0.5766190000000 1.0
C      1  0.4584240000000  0.5030320000000  0.4996580000000 1.0
C      1  0.5039750000000  0.5033280000000  0.4284340000000 1.0
C      1  0.5817640000000  0.4839650000000  0.5041630000000 1.0
C      1  0.5145400000000  0.5153170000000  0.5001690000000 1.0
END
