TITL C-38745-524-6 245.239720400308 125000 -644.542934870498 0 0 94 (Cs) n - 1
REM
REM in /rds/project/t2_vol4/rds-t2-cs072/BORA/CARBON/from-Arr/AIRSS/Generating-Clusters/GAP-ML-2020/Higher-Symm/SD-CG/HFTN-CG
REM
REM
REM
REM
REM
REM ./C.cell (b20cbc046b6831c77cfcea5457e17084)
REM AIRSS Version 0.9.1 bugfix July 2018 build 013d7b7c2542+ Fri, 06 Jul 2018 19:26:36 +0100
REM compiler GCC version 9.3.0
REM options -cpp -mtune=generic -march=x86-64 -g -O0
REM seed -1326378885 346037383 -851609475 -1108695604 1205757913 -1957833205 -1264575009 -1601256289 -822600320 1375086572 -1704171456 -1109865054 -492405615 -1593608451 1363164835 32374561 1454354385 1712440079 827646942 -1996650685 -1365260637 -1072473713 -1289109462 -274787450 1212047040 -1362068583 -2039169666 -550917728 746546426 -1074385124 -952488090 -1249738847 -295875537
REM
CELL 1.54180   50.00000   50.00000   50.00000   90.00000   90.00000   90.00000
LATT -1
SFAC C  
C      1  0.4444260000000  0.4830330000000  0.4632880000000 1.0
C      1  0.4442140000000  0.5345320000000  0.4793260000000 1.0
C      1  0.4449300000000  0.5133920000000  0.5335630000000 1.0
C      1  0.4439930000000  0.4676450000000  0.5156110000000 1.0
C      1  0.5539880000000  0.4830130000000  0.4632780000000 1.0
C      1  0.5542210000000  0.5345120000000  0.4793160000000 1.0
C      1  0.5535070000000  0.5133730000000  0.5335530000000 1.0
C      1  0.5544250000000  0.4676260000000  0.5156010000000 1.0
C      1  0.5145700000000  0.4702240000000  0.4862010000000 1.0
C      1  0.5141360000000  0.5149490000000  0.4636140000000 1.0
C      1  0.5145860000000  0.5302490000000  0.5118110000000 1.0
C      1  0.5139190000000  0.4845010000000  0.5349120000000 1.0
C      1  0.4838430000000  0.4702300000000  0.4862030000000 1.0
C      1  0.4842890000000  0.5149540000000  0.4636160000000 1.0
C      1  0.4838530000000  0.5302540000000  0.5118140000000 1.0
C      1  0.4845080000000  0.4845060000000  0.5349150000000 1.0
C      1  0.4705560000000  0.4920750000000  0.4726310000000 1.0
C      1  0.4708100000000  0.5251670000000  0.4866330000000 1.0
C      1  0.4731600000000  0.5090350000000  0.5276850000000 1.0
C      1  0.4724290000000  0.4726660000000  0.5120740000000 1.0
C      1  0.5278620000000  0.4920640000000  0.4726250000000 1.0
C      1  0.5276220000000  0.5251570000000  0.4866280000000 1.0
C      1  0.5252740000000  0.5090260000000  0.5276800000000 1.0
C      1  0.5259900000000  0.4726560000000  0.5120690000000 1.0
C      1  0.4404920000000  0.4682210000000  0.5536790000000 1.0
C      1  0.4435050000000  0.4546350000000  0.4648380000000 1.0
C      1  0.4429090000000  0.5344040000000  0.4509540000000 1.0
C      1  0.4427400000000  0.5446500000000  0.5330810000000 1.0
C      1  0.5579330000000  0.4682000000000  0.5536680000000 1.0
C      1  0.5548980000000  0.4546150000000  0.4648280000000 1.0
C      1  0.5555210000000  0.5343830000000  0.4509440000000 1.0
C      1  0.5557080000000  0.5446300000000  0.5330710000000 1.0
C      1  0.4444490000000  0.5319360000000  0.5563940000000 1.0
C      1  0.4444340000000  0.4464700000000  0.5351160000000 1.0
C      1  0.4449590000000  0.4674050000000  0.4404210000000 1.0
C      1  0.4443720000000  0.5579440000000  0.4646360000000 1.0
C      1  0.5539990000000  0.5319160000000  0.5563840000000 1.0
C      1  0.5539800000000  0.4464510000000  0.5351060000000 1.0
C      1  0.5534450000000  0.4673860000000  0.4404120000000 1.0
C      1  0.5540690000000  0.5579240000000  0.4646260000000 1.0
C      1  0.4803400000000  0.4448200000000  0.5627830000000 1.0
C      1  0.4836070000000  0.4433550000000  0.4450030000000 1.0
C      1  0.4820230000000  0.5560770000000  0.4381890000000 1.0
C      1  0.4820780000000  0.5573320000000  0.5534390000000 1.0
C      1  0.5180780000000  0.4448130000000  0.5627790000000 1.0
C      1  0.5147890000000  0.4433490000000  0.4450000000000 1.0
C      1  0.5164130000000  0.5560700000000  0.4381860000000 1.0
C      1  0.5163780000000  0.5573260000000  0.5534360000000 1.0
C      1  0.4686220000000  0.4316800000000  0.5398830000000 1.0
C      1  0.4704230000000  0.4629780000000  0.4278470000000 1.0
C      1  0.4697620000000  0.5711750000000  0.4596890000000 1.0
C      1  0.4697710000000  0.5371490000000  0.5699690000000 1.0
C      1  0.5297870000000  0.4316690000000  0.5398770000000 1.0
C      1  0.5279770000000  0.4629670000000  0.4278420000000 1.0
C      1  0.5286830000000  0.5711640000000  0.4596840000000 1.0
C      1  0.5286810000000  0.5371380000000  0.5699630000000 1.0
C      1  0.4992120000000  0.5506660000000  0.3908360000000 1.0
C      1  0.4992330000000  0.5809590000000  0.5593750000000 1.0
C      1  0.4992140000000  0.4506160000000  0.6084650000000 1.0
C      1  0.4991930000000  0.4179380000000  0.4389750000000 1.0
C      1  0.4992170000000  0.5627200000000  0.4148980000000 1.0
C      1  0.4992360000000  0.6051120000000  0.5475660000000 1.0
C      1  0.4992100000000  0.4387810000000  0.5838840000000 1.0
C      1  0.4991900000000  0.3949050000000  0.4522140000000 1.0
C      1  0.4768830000000  0.5124720000000  0.4136870000000 1.0
C      1  0.4768110000000  0.5809910000000  0.5099190000000 1.0
C      1  0.4771870000000  0.4888970000000  0.5863940000000 1.0
C      1  0.4773600000000  0.4198890000000  0.4896100000000 1.0
C      1  0.5215320000000  0.5124630000000  0.4136830000000 1.0
C      1  0.5216460000000  0.5809830000000  0.5099150000000 1.0
C      1  0.5212510000000  0.4888890000000  0.5863900000000 1.0
C      1  0.5210360000000  0.4198810000000  0.4896060000000 1.0
C      1  0.5135780000000  0.5813450000000  0.4819560000000 1.0
C      1  0.5135850000000  0.5168420000000  0.5839200000000 1.0
C      1  0.5138310000000  0.4211700000000  0.5178440000000 1.0
C      1  0.5135060000000  0.4843940000000  0.4151270000000 1.0
C      1  0.4848740000000  0.5813500000000  0.4819590000000 1.0
C      1  0.4848620000000  0.5168470000000  0.5839230000000 1.0
C      1  0.4845700000000  0.4211750000000  0.5178470000000 1.0
C      1  0.4848990000000  0.4843990000000  0.4151300000000 1.0
C      1  0.5284280000000  0.5557500000000  0.5254970000000 1.0
C      1  0.5288630000000  0.4728870000000  0.5620870000000 1.0
C      1  0.5274210000000  0.4445330000000  0.4729100000000 1.0
C      1  0.5280270000000  0.5280820000000  0.4387940000000 1.0
C      1  0.4700230000000  0.5557600000000  0.5255020000000 1.0
C      1  0.4695650000000  0.4728980000000  0.5620930000000 1.0
C      1  0.4709800000000  0.4445430000000  0.4729150000000 1.0
C      1  0.4703980000000  0.5280920000000  0.4387990000000 1.0
C      1  0.4991940000000  0.4059250000000  0.4769240000000 1.0
C      1  0.4992090000000  0.5255580000000  0.4006900000000 1.0
C      1  0.4992320000000  0.5939460000000  0.5229780000000 1.0
C      1  0.4992180000000  0.4758730000000  0.5995050000000 1.0
C      1  0.4326070000000  0.4875420000000  0.5340650000000 1.0
C      1  0.5658210000000  0.4875180000000  0.5340530000000 1.0
END
