TITL C-38631-636-3 -90.0848097201202 125000 -413.799361157505 0 0 62 (C1) n - 1
REM
REM in /rds/project/t2_vol4/rds-t2-cs072/BORA/CARBON/from-Arr/AIRSS/Generating-Clusters/GAP-ML-2020/Higher-Symm/SD-CG/HFTN-CG
REM
REM
REM
REM
REM
REM ./C.cell (b20cbc046b6831c77cfcea5457e17084)
REM AIRSS Version 0.9.1 bugfix July 2018 build 013d7b7c2542+ Fri, 06 Jul 2018 19:26:36 +0100
REM compiler GCC version 9.3.0
REM options -cpp -mtune=generic -march=x86-64 -g -O0
REM seed 1586089759 -1196447433 1067407785 880138202 -2011839564 2140827360 -1715218595 578272398 923883912 -495386545 -1564280558 865186415 -888362785 -35555096 -1320311613 -1127619625 -1807902883 2051337291 1341266796 1610244282 -397803697 855916451 -1504571253 -72678668 -404103906 172160765 -1835397722 1452599336 1220572375 -697499020 1312265737 119015324 1135464014
REM
CELL 1.54180   50.00000   50.00000   50.00000   90.00000   90.00000   90.00000
LATT -1
SFAC C  
C      1  0.4620340000000  0.4584110000000  0.5351940000000 1.0
C      1  0.4681580000000  0.5531480000000  0.5556550000000 1.0
C      1  0.5050370000000  0.4736870000000  0.4280580000000 1.0
C      1  0.5033380000000  0.5271140000000  0.4286960000000 1.0
C      1  0.4526380000000  0.5460450000000  0.4418820000000 1.0
C      1  0.4553470000000  0.4512160000000  0.4392490000000 1.0
C      1  0.4874310000000  0.4463220000000  0.5022140000000 1.0
C      1  0.4852820000000  0.5509760000000  0.5050220000000 1.0
C      1  0.5289890000000  0.4656420000000  0.4444640000000 1.0
C      1  0.5269870000000  0.5351020000000  0.4452460000000 1.0
C      1  0.5039670000000  0.4497630000000  0.5261470000000 1.0
C      1  0.5047370000000  0.5498520000000  0.5283150000000 1.0
C      1  0.4429780000000  0.4565220000000  0.4617780000000 1.0
C      1  0.4406840000000  0.5384610000000  0.4639950000000 1.0
C      1  0.4785770000000  0.5377610000000  0.4375420000000 1.0
C      1  0.4806930000000  0.4611370000000  0.4352890000000 1.0
C      1  0.4927170000000  0.4616320000000  0.5721440000000 1.0
C      1  0.5098630000000  0.5403570000000  0.5756480000000 1.0
C      1  0.5035780000000  0.4804310000000  0.5354200000000 1.0
C      1  0.5070240000000  0.5199920000000  0.5352010000000 1.0
C      1  0.4428030000000  0.4661600000000  0.4875870000000 1.0
C      1  0.4421640000000  0.5269760000000  0.4891780000000 1.0
C      1  0.4560910000000  0.5352440000000  0.5386490000000 1.0
C      1  0.4704410000000  0.4869730000000  0.5323420000000 1.0
C      1  0.5329130000000  0.5489890000000  0.5221260000000 1.0
C      1  0.5328260000000  0.4489690000000  0.5207530000000 1.0
C      1  0.4842800000000  0.4464130000000  0.5505840000000 1.0
C      1  0.4946930000000  0.5558930000000  0.5561030000000 1.0
C      1  0.5346910000000  0.5332150000000  0.5677710000000 1.0
C      1  0.5389040000000  0.4706680000000  0.5655130000000 1.0
C      1  0.5587080000000  0.4849310000000  0.5511590000000 1.0
C      1  0.5593580000000  0.5091490000000  0.5365020000000 1.0
C      1  0.5404080000000  0.4547080000000  0.4937040000000 1.0
C      1  0.5395160000000  0.5464240000000  0.4943150000000 1.0
C      1  0.4970750000000  0.4517290000000  0.4768010000000 1.0
C      1  0.4949550000000  0.5471990000000  0.4793310000000 1.0
C      1  0.4598830000000  0.4516950000000  0.5076320000000 1.0
C      1  0.4593130000000  0.5402360000000  0.5102720000000 1.0
C      1  0.5218260000000  0.5482000000000  0.4714860000000 1.0
C      1  0.5241820000000  0.4518550000000  0.4701220000000 1.0
C      1  0.5111780000000  0.5138190000000  0.5629000000000 1.0
C      1  0.5113700000000  0.4825760000000  0.5645970000000 1.0
C      1  0.5653340000000  0.5155190000000  0.4660920000000 1.0
C      1  0.5658690000000  0.4864390000000  0.4671380000000 1.0
C      1  0.4845290000000  0.5222340000000  0.4620200000000 1.0
C      1  0.4859930000000  0.4761620000000  0.4603750000000 1.0
C      1  0.5581100000000  0.4776310000000  0.4923950000000 1.0
C      1  0.5573710000000  0.5246600000000  0.4907740000000 1.0
C      1  0.5485570000000  0.4599220000000  0.5415920000000 1.0
C      1  0.5486310000000  0.5351320000000  0.5429460000000 1.0
C      1  0.5487300000000  0.4853090000000  0.4440650000000 1.0
C      1  0.5476540000000  0.5158300000000  0.4435320000000 1.0
C      1  0.4509990000000  0.4968500000000  0.4862380000000 1.0
C      1  0.4739770000000  0.4958100000000  0.5045580000000 1.0
C      1  0.4244780000000  0.4966550000000  0.5537070000000 1.0
C      1  0.5008020000000  0.4990790000000  0.4957520000000 1.0
C      1  0.5053310000000  0.4998650000000  0.4680010000000 1.0
C      1  0.4654740000000  0.4985550000000  0.4617590000000 1.0
C      1  0.4482990000000  0.5059080000000  0.5452420000000 1.0
C      1  0.5050900000000  0.5005890000000  0.4197030000000 1.0
C      1  0.5514240000000  0.5018620000000  0.5091770000000 1.0
C      1  0.5179810000000  0.4997420000000  0.5176840000000 1.0
END
