TITL C-38515-6077-8 -43.8126169398836 125000 -508.433505705267 0 0 71 (Cs) n - 1
REM
REM in /rds/project/t2_vol4/rds-t2-cs072/BORA/CARBON/from-Arr/AIRSS/Generating-Clusters/GAP-ML-2020/Higher-Symm/SD-CG/HFTN-CG
REM
REM
REM
REM
REM
REM ./C.cell (b20cbc046b6831c77cfcea5457e17084)
REM AIRSS Version 0.9.1 bugfix July 2018 build 013d7b7c2542+ Fri, 06 Jul 2018 19:26:36 +0100
REM compiler GCC version 9.3.0
REM options -cpp -mtune=generic -march=x86-64 -g -O0
REM seed 1281246493 -886666844 -272700739 1322275834 -730075758 1573044718 828279541 645699936 612884692 -117365569 714123714 515175696 1766762840 969366943 -48593860 -858494762 2044471969 -564654606 -2041614867 -1838268250 -212319922 1214906539 1104773237 -1574067842 -450691570 -966587105 -1059222707 1753587977 1748762354 359502550 1649473870 -1435514312 2104320168
REM
CELL 1.54180   50.00000   50.00000   50.00000   90.00000   90.00000   90.00000
LATT -1
SFAC C  
C      1  0.4757820000000  0.5055870000000  0.4351360000000 1.0
C      1  0.4876060000000  0.4794110000000  0.4342510000000 1.0
C      1  0.5162770000000  0.4825100000000  0.4330920000000 1.0
C      1  0.5221090000000  0.5107200000000  0.4331050000000 1.0
C      1  0.4970150000000  0.5249320000000  0.4342730000000 1.0
C      1  0.5235870000000  0.4956400000000  0.5689160000000 1.0
C      1  0.5116200000000  0.5220910000000  0.5688440000000 1.0
C      1  0.4831620000000  0.5187800000000  0.5688030000000 1.0
C      1  0.4773000000000  0.4904240000000  0.5687890000000 1.0
C      1  0.5021140000000  0.4761020000000  0.5688220000000 1.0
C      1  0.4695980000000  0.5542400000000  0.4630910000000 1.0
C      1  0.4390100000000  0.4891650000000  0.4631840000000 1.0
C      1  0.4917060000000  0.4398770000000  0.4625810000000 1.0
C      1  0.5555130000000  0.4744240000000  0.4615560000000 1.0
C      1  0.5411510000000  0.5453760000000  0.4621290000000 1.0
C      1  0.4684430000000  0.5348710000000  0.5486040000000 1.0
C      1  0.4574120000000  0.4815070000000  0.5485780000000 1.0
C      1  0.5045350000000  0.4544490000000  0.5483480000000 1.0
C      1  0.5456760000000  0.4910830000000  0.5500540000000 1.0
C      1  0.5224320000000  0.5410290000000  0.5483910000000 1.0
C      1  0.4630610000000  0.5623980000000  0.5115290000000 1.0
C      1  0.4295090000000  0.4852580000000  0.5116450000000 1.0
C      1  0.4925050000000  0.4298940000000  0.5111770000000 1.0
C      1  0.5636880000000  0.4709380000000  0.5114980000000 1.0
C      1  0.5465390000000  0.5534600000000  0.5109490000000 1.0
C      1  0.4344450000000  0.5290120000000  0.4877780000000 1.0
C      1  0.4523930000000  0.4479900000000  0.4874380000000 1.0
C      1  0.5348940000000  0.4399120000000  0.4865260000000 1.0
C      1  0.5688860000000  0.5163900000000  0.4863620000000 1.0
C      1  0.5061560000000  0.5708250000000  0.4873770000000 1.0
C      1  0.4777910000000  0.4336050000000  0.4873100000000 1.0
C      1  0.5569630000000  0.4587080000000  0.4863340000000 1.0
C      1  0.5560790000000  0.5423950000000  0.4865770000000 1.0
C      1  0.4771360000000  0.5676890000000  0.4874970000000 1.0
C      1  0.4285350000000  0.5004230000000  0.4877640000000 1.0
C      1  0.4750710000000  0.4583850000000  0.4482090000000 1.0
C      1  0.5327760000000  0.4644180000000  0.4470340000000 1.0
C      1  0.5444260000000  0.5207750000000  0.4470610000000 1.0
C      1  0.4938420000000  0.5491910000000  0.4482540000000 1.0
C      1  0.4515450000000  0.5105910000000  0.4486750000000 1.0
C      1  0.4786060000000  0.5599120000000  0.5358100000000 1.0
C      1  0.4367490000000  0.4991440000000  0.5358580000000 1.0
C      1  0.4813980000000  0.4402520000000  0.5357600000000 1.0
C      1  0.5521110000000  0.4637130000000  0.5374500000000 1.0
C      1  0.5493050000000  0.5386770000000  0.5358540000000 1.0
C      1  0.4413470000000  0.5425250000000  0.5116730000000 1.0
C      1  0.4415650000000  0.4584050000000  0.5114780000000 1.0
C      1  0.5217450000000  0.4335130000000  0.5108910000000 1.0
C      1  0.5702060000000  0.5024720000000  0.5115140000000 1.0
C      1  0.5211310000000  0.5683750000000  0.5112450000000 1.0
C      1  0.4836760000000  0.5185040000000  0.5269530000000 1.0
C      1  0.4778900000000  0.4905140000000  0.5269390000000 1.0
C      1  0.5034630000000  0.4768160000000  0.5250830000000 1.0
C      1  0.5248500000000  0.4953990000000  0.5285330000000 1.0
C      1  0.5125840000000  0.5209420000000  0.5251040000000 1.0
C      1  0.5101400000000  0.5217580000000  0.4939750000000 1.0
C      1  0.4813860000000  0.5192540000000  0.4958630000000 1.0
C      1  0.4754960000000  0.4907620000000  0.4958490000000 1.0
C      1  0.5009010000000  0.4770650000000  0.4939540000000 1.0
C      1  0.5423650000000  0.4917900000000  0.5051500000000 1.0
C      1  0.5613290000000  0.5025600000000  0.4615700000000 1.0
C      1  0.5164480000000  0.5595730000000  0.4626390000000 1.0
C      1  0.4485300000000  0.5352170000000  0.4632070000000 1.0
C      1  0.4508090000000  0.4633480000000  0.4630460000000 1.0
C      1  0.5200130000000  0.4431170000000  0.4620790000000 1.0
C      1  0.5624380000000  0.5136710000000  0.5374750000000 1.0
C      1  0.5068230000000  0.5632470000000  0.5358200000000 1.0
C      1  0.4424830000000  0.5268840000000  0.5358720000000 1.0
C      1  0.4568160000000  0.4545010000000  0.5357580000000 1.0
C      1  0.5301410000000  0.4459650000000  0.5358090000000 1.0
C      1  0.5206640000000  0.4962850000000  0.4854530000000 1.0
END
