TITL C-38738-9108-10 185.855119044709 125000 -620.325746079904 0 0 90 (Cs) n - 1
REM
REM in /rds/project/t2_vol4/rds-t2-cs072/BORA/CARBON/from-Arr/AIRSS/Generating-Clusters/GAP-ML-2020/Higher-Symm/SD-CG/HFTN-CG
REM
REM
REM
REM
REM
REM ./C.cell (b20cbc046b6831c77cfcea5457e17084)
REM AIRSS Version 0.9.1 bugfix July 2018 build 013d7b7c2542+ Fri, 06 Jul 2018 19:26:36 +0100
REM compiler GCC version 9.3.0
REM options -cpp -mtune=generic -march=x86-64 -g -O0
REM seed 1271654238 1619666309 2091483996 -1796647573 -258564670 -1771750635 135288083 1986521934 1684539550 -682047009 -797553608 1060927387 -145379248 425993372 645302870 130081513 -1139761256 -1468275851 -1732490964 714376259 520079772 -2029142902 -631096558 2022999956 -1200034253 758386086 1624554137 362467624 -709049349 477514848 1107356887 -703211544 -2107491083
REM
CELL 1.54180   50.00000   50.00000   50.00000   90.00000   90.00000   90.00000
LATT -1
SFAC C  
C      1  0.5208860000000  0.5272330000000  0.5734790000000 1.0
C      1  0.5193700000000  0.4720770000000  0.5736360000000 1.0
C      1  0.5154370000000  0.5279760000000  0.5244170000000 1.0
C      1  0.5138800000000  0.4713570000000  0.5245770000000 1.0
C      1  0.4268280000000  0.4559130000000  0.5235170000000 1.0
C      1  0.4293650000000  0.5481740000000  0.5232560000000 1.0
C      1  0.5483460000000  0.5658600000000  0.5107050000000 1.0
C      1  0.5446550000000  0.4316450000000  0.5110850000000 1.0
C      1  0.4530590000000  0.5656150000000  0.5208340000000 1.0
C      1  0.4495280000000  0.4371830000000  0.5211980000000 1.0
C      1  0.4775020000000  0.5583340000000  0.5057370000000 1.0
C      1  0.4743320000000  0.4430240000000  0.5060640000000 1.0
C      1  0.5125100000000  0.4399610000000  0.4434720000000 1.0
C      1  0.5157810000000  0.5589390000000  0.4431350000000 1.0
C      1  0.4728810000000  0.4693890000000  0.4507480000000 1.0
C      1  0.4745960000000  0.5317750000000  0.4505710000000 1.0
C      1  0.5153450000000  0.5143570000000  0.4264910000000 1.0
C      1  0.5145210000000  0.4844050000000  0.4265750000000 1.0
C      1  0.5316940000000  0.5129080000000  0.4531200000000 1.0
C      1  0.5309300000000  0.4851040000000  0.4531990000000 1.0
C      1  0.4980350000000  0.5365280000000  0.4342290000000 1.0
C      1  0.4960210000000  0.4632640000000  0.4344370000000 1.0
C      1  0.4895270000000  0.5141030000000  0.5227770000000 1.0
C      1  0.4887710000000  0.4866230000000  0.5228550000000 1.0
C      1  0.4468170000000  0.5164400000000  0.5643980000000 1.0
C      1  0.4460040000000  0.4868730000000  0.5644820000000 1.0
C      1  0.5299160000000  0.4698630000000  0.5479740000000 1.0
C      1  0.5315350000000  0.5287190000000  0.5478070000000 1.0
C      1  0.4471120000000  0.5149710000000  0.5020270000000 1.0
C      1  0.4463700000000  0.4879690000000  0.5021030000000 1.0
C      1  0.5446870000000  0.5267020000000  0.4290090000000 1.0
C      1  0.5431400000000  0.4704810000000  0.4291670000000 1.0
C      1  0.5666140000000  0.5131130000000  0.5658950000000 1.0
C      1  0.5658030000000  0.4836200000000  0.5659780000000 1.0
C      1  0.4917700000000  0.4661130000000  0.5731320000000 1.0
C      1  0.4936560000000  0.5347010000000  0.5729380000000 1.0
C      1  0.5410820000000  0.4848260000000  0.5872130000000 1.0
C      1  0.5418670000000  0.5133880000000  0.5871320000000 1.0
C      1  0.4262680000000  0.5167550000000  0.4554240000000 1.0
C      1  0.4254520000000  0.4870700000000  0.4555080000000 1.0
C      1  0.5590150000000  0.5306840000000  0.5451520000000 1.0
C      1  0.5572460000000  0.4663760000000  0.5453350000000 1.0
C      1  0.5649510000000  0.5437750000000  0.5197730000000 1.0
C      1  0.5624500000000  0.4528340000000  0.5200310000000 1.0
C      1  0.4566340000000  0.4432490000000  0.5488890000000 1.0
C      1  0.4598260000000  0.5593250000000  0.5485600000000 1.0
C      1  0.4221500000000  0.5375330000000  0.4748570000000 1.0
C      1  0.4202010000000  0.4666590000000  0.4750580000000 1.0
C      1  0.5625590000000  0.5248230000000  0.4995110000000 1.0
C      1  0.5611000000000  0.4717740000000  0.4996610000000 1.0
C      1  0.5784280000000  0.4826560000000  0.4801050000000 1.0
C      1  0.5792600000000  0.5128950000000  0.4800190000000 1.0
C      1  0.4838890000000  0.5689540000000  0.4786810000000 1.0
C      1  0.4801210000000  0.4319160000000  0.4790690000000 1.0
C      1  0.4382710000000  0.5595080000000  0.4693990000000 1.0
C      1  0.4350900000000  0.4438010000000  0.4697260000000 1.0
C      1  0.4838510000000  0.4461910000000  0.5534150000000 1.0
C      1  0.4868400000000  0.5549170000000  0.5531070000000 1.0
C      1  0.5257680000000  0.4223150000000  0.4911280000000 1.0
C      1  0.5299970000000  0.5761000000000  0.4906920000000 1.0
C      1  0.4363520000000  0.4640250000000  0.5505560000000 1.0
C      1  0.4384330000000  0.5397040000000  0.5503420000000 1.0
C      1  0.5830750000000  0.4730800000000  0.4547100000000 1.0
C      1  0.5844220000000  0.5220570000000  0.4545720000000 1.0
C      1  0.4607030000000  0.4442760000000  0.4622850000000 1.0
C      1  0.4638190000000  0.5575850000000  0.4619640000000 1.0
C      1  0.4507150000000  0.4865860000000  0.4416060000000 1.0
C      1  0.4515180000000  0.5157710000000  0.4415240000000 1.0
C      1  0.5193320000000  0.4229050000000  0.5181960000000 1.0
C      1  0.5235420000000  0.5760180000000  0.5177620000000 1.0
C      1  0.4879870000000  0.5157360000000  0.4769470000000 1.0
C      1  0.4871370000000  0.4848170000000  0.4770350000000 1.0
C      1  0.4736840000000  0.5262340000000  0.5015530000000 1.0
C      1  0.4722820000000  0.4752610000000  0.5016980000000 1.0
C      1  0.5010030000000  0.5582150000000  0.5263520000000 1.0
C      1  0.4978070000000  0.4419690000000  0.5266810000000 1.0
C      1  0.4219220000000  0.4730990000000  0.5026300000000 1.0
C      1  0.4235190000000  0.5311650000000  0.5024660000000 1.0
C      1  0.4727250000000  0.5157210000000  0.5781940000000 1.0
C      1  0.4719140000000  0.4862450000000  0.5782770000000 1.0
C      1  0.5368780000000  0.4432790000000  0.4315630000000 1.0
C      1  0.5399290000000  0.5542210000000  0.4312490000000 1.0
C      1  0.5062800000000  0.4267580000000  0.4695860000000 1.0
C      1  0.5102900000000  0.5726120000000  0.4691730000000 1.0
C      1  0.5173850000000  0.5231400000000  0.4765290000000 1.0
C      1  0.5160830000000  0.4758070000000  0.4766630000000 1.0
C      1  0.5697200000000  0.5124780000000  0.4332590000000 1.0
C      1  0.5689180000000  0.4833320000000  0.4333420000000 1.0
C      1  0.5319900000000  0.5154260000000  0.5003640000000 1.0
C      1  0.5310940000000  0.4828420000000  0.5004560000000 1.0
END
