TITL C-38749-7448-9 45.7427894722546 125000 -386.322578852889 0 0 57 (C1) n - 1
REM
REM in /rds/project/t2_vol4/rds-t2-cs072/BORA/CARBON/from-Arr/AIRSS/Generating-Clusters/GAP-ML-2020/Higher-Symm/SD-CG/HFTN-CG
REM
REM
REM
REM
REM
REM ./C.cell (b20cbc046b6831c77cfcea5457e17084)
REM AIRSS Version 0.9.1 bugfix July 2018 build 013d7b7c2542+ Fri, 06 Jul 2018 19:26:36 +0100
REM compiler GCC version 9.3.0
REM options -cpp -mtune=generic -march=x86-64 -g -O0
REM seed -1695410135 1755395855 1238043120 -985427609 -805726201 1836110813 -1078095629 870316398 -898864903 1814306629 -1576658579 -1457641704 1636142393 -768629579 605486333 -773079501 -443236283 -1717174852 -800439368 1660445705 -1701829658 262032546 146736714 39219164 1198317067 -109341015 -288988053 -870700395 1712035594 -1425770274 1421532990 -1546256332 1831265857
REM
CELL 1.54180   50.00000   50.00000   50.00000   90.00000   90.00000   90.00000
LATT -1
SFAC C  
C      1  0.4678340000000  0.4755800000000  0.5474990000000 1.0
C      1  0.5109070000000  0.4432390000000  0.4648150000000 1.0
C      1  0.5090520000000  0.5053520000000  0.5169990000000 1.0
C      1  0.5008510000000  0.4794910000000  0.4253220000000 1.0
C      1  0.4995300000000  0.5466370000000  0.4777890000000 1.0
C      1  0.4950780000000  0.5581960000000  0.5207170000000 1.0
C      1  0.4913870000000  0.4597600000000  0.5481830000000 1.0
C      1  0.4394000000000  0.5310490000000  0.4783250000000 1.0
C      1  0.4423960000000  0.4626140000000  0.4803530000000 1.0
C      1  0.5655130000000  0.4807070000000  0.4656840000000 1.0
C      1  0.5020470000000  0.5028620000000  0.5643230000000 1.0
C      1  0.5193220000000  0.5217760000000  0.4621590000000 1.0
C      1  0.4498980000000  0.5436920000000  0.5016010000000 1.0
C      1  0.4829600000000  0.5424250000000  0.4536330000000 1.0
C      1  0.5381620000000  0.4438890000000  0.4729660000000 1.0
C      1  0.4858890000000  0.5015540000000  0.4315030000000 1.0
C      1  0.5125580000000  0.4761460000000  0.5585960000000 1.0
C      1  0.4818620000000  0.5165750000000  0.5145510000000 1.0
C      1  0.5425210000000  0.5589280000000  0.5047170000000 1.0
C      1  0.5161350000000  0.4711830000000  0.4480450000000 1.0
C      1  0.4738160000000  0.5014120000000  0.5584370000000 1.0
C      1  0.5461520000000  0.4516350000000  0.4991720000000 1.0
C      1  0.4791330000000  0.5429710000000  0.5011380000000 1.0
C      1  0.5001580000000  0.5249890000000  0.4394940000000 1.0
C      1  0.5673070000000  0.4953190000000  0.5136410000000 1.0
C      1  0.4616750000000  0.4818720000000  0.4724030000000 1.0
C      1  0.5514570000000  0.4910880000000  0.5370480000000 1.0
C      1  0.4256100000000  0.5122590000000  0.5283210000000 1.0
C      1  0.4213640000000  0.5101310000000  0.4799690000000 1.0
C      1  0.5123600000000  0.4930430000000  0.4700700000000 1.0
C      1  0.4548810000000  0.4502360000000  0.5046900000000 1.0
C      1  0.4722660000000  0.4913660000000  0.4990790000000 1.0
C      1  0.4680190000000  0.5259760000000  0.5427420000000 1.0
C      1  0.5019350000000  0.4874750000000  0.4959100000000 1.0
C      1  0.4257440000000  0.4845470000000  0.4886030000000 1.0
C      1  0.5374130000000  0.5370770000000  0.5456580000000 1.0
C      1  0.5118470000000  0.5301700000000  0.5583580000000 1.0
C      1  0.4432550000000  0.5325420000000  0.5280670000000 1.0
C      1  0.5146370000000  0.5616450000000  0.4996890000000 1.0
C      1  0.5349650000000  0.5131380000000  0.5307730000000 1.0
C      1  0.4301420000000  0.4884610000000  0.5166980000000 1.0
C      1  0.5360760000000  0.4683310000000  0.5434660000000 1.0
C      1  0.4909410000000  0.5448330000000  0.5460680000000 1.0
C      1  0.4628940000000  0.5007510000000  0.4496940000000 1.0
C      1  0.4915200000000  0.4348040000000  0.4798600000000 1.0
C      1  0.5477740000000  0.5589330000000  0.5334420000000 1.0
C      1  0.5581840000000  0.5392340000000  0.4904230000000 1.0
C      1  0.5494600000000  0.5257370000000  0.4656360000000 1.0
C      1  0.5004760000000  0.4440380000000  0.5258010000000 1.0
C      1  0.5648890000000  0.4738240000000  0.4950140000000 1.0
C      1  0.5293190000000  0.4491510000000  0.5229370000000 1.0
C      1  0.4581800000000  0.5281680000000  0.4567250000000 1.0
C      1  0.5680320000000  0.5064650000000  0.4576040000000 1.0
C      1  0.5737260000000  0.5214590000000  0.5054190000000 1.0
C      1  0.4544630000000  0.4736370000000  0.5220800000000 1.0
C      1  0.4806120000000  0.4379010000000  0.5046070000000 1.0
C      1  0.5460180000000  0.4637250000000  0.4534800000000 1.0
END
