TITL C-38529-7358-5 -107.314008320125 125000 -350.332527471535 0 0 54 (C1) n - 1
REM
REM in /rds/project/t2_vol4/rds-t2-cs072/BORA/CARBON/from-Arr/AIRSS/Generating-Clusters/GAP-ML-2020/Higher-Symm/SD-CG/HFTN-CG
REM
REM
REM
REM
REM
REM ./C.cell (b20cbc046b6831c77cfcea5457e17084)
REM AIRSS Version 0.9.1 bugfix July 2018 build 013d7b7c2542+ Fri, 06 Jul 2018 19:26:36 +0100
REM compiler GCC version 9.3.0
REM options -cpp -mtune=generic -march=x86-64 -g -O0
REM seed -2101125666 -922359516 56806829 -406539332 -2116863511 -1876202656 -1791135574 -1688738388 -25841287 -826634760 -1512662593 1960631943 -1235231930 -1076613588 -809688464 -1807778237 130555950 -1254087086 1315164617 490984402 -278534280 -176021340 -464317198 724696672 1280080634 1624781496 2126722844 -182812229 -239281366 1476085521 -238731623 -314291499 893576980
REM
CELL 1.54180   50.00000   50.00000   50.00000   90.00000   90.00000   90.00000
LATT -1
SFAC C  
C      1  0.4620510000000  0.5337530000000  0.4647530000000 1.0
C      1  0.4703180000000  0.5504780000000  0.5199250000000 1.0
C      1  0.4726140000000  0.5096650000000  0.5426510000000 1.0
C      1  0.4689130000000  0.4546870000000  0.5085910000000 1.0
C      1  0.4661200000000  0.4718210000000  0.4588410000000 1.0
C      1  0.5352960000000  0.5315140000000  0.4545580000000 1.0
C      1  0.5404910000000  0.5405690000000  0.5145500000000 1.0
C      1  0.5356690000000  0.4823550000000  0.5654670000000 1.0
C      1  0.5353590000000  0.4617530000000  0.5169230000000 1.0
C      1  0.5348510000000  0.4802900000000  0.4553430000000 1.0
C      1  0.5096250000000  0.5568670000000  0.4893750000000 1.0
C      1  0.5026660000000  0.5238730000000  0.5788500000000 1.0
C      1  0.5201790000000  0.4570060000000  0.5603370000000 1.0
C      1  0.5093610000000  0.4418680000000  0.4780470000000 1.0
C      1  0.5207010000000  0.5011740000000  0.4340930000000 1.0
C      1  0.4661110000000  0.5610140000000  0.4726440000000 1.0
C      1  0.4730160000000  0.5548870000000  0.5497210000000 1.0
C      1  0.4917440000000  0.4586090000000  0.5532400000000 1.0
C      1  0.4812880000000  0.4380310000000  0.4823660000000 1.0
C      1  0.4915370000000  0.5034260000000  0.4356150000000 1.0
C      1  0.4808920000000  0.5319490000000  0.5626120000000 1.0
C      1  0.4758110000000  0.4453170000000  0.5359590000000 1.0
C      1  0.4624590000000  0.4435030000000  0.4627280000000 1.0
C      1  0.4716580000000  0.5224790000000  0.4389770000000 1.0
C      1  0.4822570000000  0.5632510000000  0.4949580000000 1.0
C      1  0.5199960000000  0.5065900000000  0.5688870000000 1.0
C      1  0.5325720000000  0.4462170000000  0.5392590000000 1.0
C      1  0.5269110000000  0.4513200000000  0.4582150000000 1.0
C      1  0.5350970000000  0.5230070000000  0.4281230000000 1.0
C      1  0.5316550000000  0.5634370000000  0.5032430000000 1.0
C      1  0.4419660000000  0.4620580000000  0.4714970000000 1.0
C      1  0.4424790000000  0.5243180000000  0.4882460000000 1.0
C      1  0.4444740000000  0.5370580000000  0.5137730000000 1.0
C      1  0.4459190000000  0.5121550000000  0.5289500000000 1.0
C      1  0.4438500000000  0.4701400000000  0.4983210000000 1.0
C      1  0.5586830000000  0.4944140000000  0.4696900000000 1.0
C      1  0.5593360000000  0.5240690000000  0.4674720000000 1.0
C      1  0.5585050000000  0.5277720000000  0.4971740000000 1.0
C      1  0.5586700000000  0.4820810000000  0.5488110000000 1.0
C      1  0.5566860000000  0.4808980000000  0.5207520000000 1.0
C      1  0.5146750000000  0.5001200000000  0.5409910000000 1.0
C      1  0.5136400000000  0.4646230000000  0.4984520000000 1.0
C      1  0.5145470000000  0.4835650000000  0.4761520000000 1.0
C      1  0.5132300000000  0.5294870000000  0.4757940000000 1.0
C      1  0.5163000000000  0.5190830000000  0.5200380000000 1.0
C      1  0.4902610000000  0.4853400000000  0.5390720000000 1.0
C      1  0.4880380000000  0.4777170000000  0.5101110000000 1.0
C      1  0.4884760000000  0.4896930000000  0.4625920000000 1.0
C      1  0.4859480000000  0.5161120000000  0.4742180000000 1.0
C      1  0.4872210000000  0.5237070000000  0.5195400000000 1.0
C      1  0.5546080000000  0.4990630000000  0.4987140000000 1.0
C      1  0.4482090000000  0.4989820000000  0.5027850000000 1.0
C      1  0.4780890000000  0.5036140000000  0.4987910000000 1.0
C      1  0.5236550000000  0.5067480000000  0.4938710000000 1.0
END
