TITL C-38743-9437-11 71.5451602659675 125000 -369.857695179989 0 0 55 (C1) n - 1
REM
REM in /rds/project/t2_vol4/rds-t2-cs072/BORA/CARBON/from-Arr/AIRSS/Generating-Clusters/GAP-ML-2020/Higher-Symm/SD-CG/HFTN-CG
REM
REM
REM
REM
REM
REM ./C.cell (b20cbc046b6831c77cfcea5457e17084)
REM AIRSS Version 0.9.1 bugfix July 2018 build 013d7b7c2542+ Fri, 06 Jul 2018 19:26:36 +0100
REM compiler GCC version 9.3.0
REM options -cpp -mtune=generic -march=x86-64 -g -O0
REM seed -462447566 1369928446 1973146837 -732532959 1150593851 1838280624 1054158985 -843969636 1060923326 -1066633292 -1355573603 1077932569 2102910799 71028971 488158284 -108487672 -547515123 1683570976 -46820103 -368973198 -918899400 87772326 2076671840 1822885372 1329376679 1226725660 -538598209 -1598075703 -955730141 1770303225 243445310 -1587536981 -469243793
REM
CELL 1.54180   50.00000   50.00000   50.00000   90.00000   90.00000   90.00000
LATT -1
SFAC C  
C      1  0.4521020000000  0.5392980000000  0.4671700000000 1.0
C      1  0.5154770000000  0.4793140000000  0.4983210000000 1.0
C      1  0.5289810000000  0.5007150000000  0.5145890000000 1.0
C      1  0.4708830000000  0.4912560000000  0.5467850000000 1.0
C      1  0.4904360000000  0.4589950000000  0.4556430000000 1.0
C      1  0.5235340000000  0.4960860000000  0.4456270000000 1.0
C      1  0.5546210000000  0.5344490000000  0.4903320000000 1.0
C      1  0.5179980000000  0.4616860000000  0.5444630000000 1.0
C      1  0.5435530000000  0.5004150000000  0.5403530000000 1.0
C      1  0.5800310000000  0.4736760000000  0.5129270000000 1.0
C      1  0.5298210000000  0.5636870000000  0.5216810000000 1.0
C      1  0.4837320000000  0.4420580000000  0.4775370000000 1.0
C      1  0.5410500000000  0.5445000000000  0.4672000000000 1.0
C      1  0.5007530000000  0.5426280000000  0.4624670000000 1.0
C      1  0.5000610000000  0.5184580000000  0.4837650000000 1.0
C      1  0.4951200000000  0.5052330000000  0.5510160000000 1.0
C      1  0.4492710000000  0.4858730000000  0.4588430000000 1.0
C      1  0.5397950000000  0.4553140000000  0.5272510000000 1.0
C      1  0.4327720000000  0.4749940000000  0.5058960000000 1.0
C      1  0.4513230000000  0.5337830000000  0.5280120000000 1.0
C      1  0.4733020000000  0.4664640000000  0.5299260000000 1.0
C      1  0.5295550000000  0.4535620000000  0.4973040000000 1.0
C      1  0.5473780000000  0.5298160000000  0.5407820000000 1.0
C      1  0.4832380000000  0.5608460000000  0.5022420000000 1.0
C      1  0.4944240000000  0.4484010000000  0.5372250000000 1.0
C      1  0.5437810000000  0.4755070000000  0.4519670000000 1.0
C      1  0.4492710000000  0.5069320000000  0.5401580000000 1.0
C      1  0.5108910000000  0.5228020000000  0.5105470000000 1.0
C      1  0.4313780000000  0.5253270000000  0.5088180000000 1.0
C      1  0.4508050000000  0.4542220000000  0.5158780000000 1.0
C      1  0.4429350000000  0.5129940000000  0.4615260000000 1.0
C      1  0.4722270000000  0.4772070000000  0.4443480000000 1.0
C      1  0.5110890000000  0.5680620000000  0.5010600000000 1.0
C      1  0.5485790000000  0.5055150000000  0.4908570000000 1.0
C      1  0.4302460000000  0.4984230000000  0.5196910000000 1.0
C      1  0.4773550000000  0.5055200000000  0.4961850000000 1.0
C      1  0.4989820000000  0.4812860000000  0.4395940000000 1.0
C      1  0.4754860000000  0.5517340000000  0.4747560000000 1.0
C      1  0.4984150000000  0.5319090000000  0.5378320000000 1.0
C      1  0.5237880000000  0.5282470000000  0.4480140000000 1.0
C      1  0.4866370000000  0.4801370000000  0.5025580000000 1.0
C      1  0.5596250000000  0.4754990000000  0.5307570000000 1.0
C      1  0.4311310000000  0.5279600000000  0.4818200000000 1.0
C      1  0.5523690000000  0.5467220000000  0.5163980000000 1.0
C      1  0.4405680000000  0.4679200000000  0.4790750000000 1.0
C      1  0.4972260000000  0.4275640000000  0.5193120000000 1.0
C      1  0.5201090000000  0.5615130000000  0.4747860000000 1.0
C      1  0.5238060000000  0.5456480000000  0.5443690000000 1.0
C      1  0.5656550000000  0.4811580000000  0.4909410000000 1.0
C      1  0.5502740000000  0.4624440000000  0.4755210000000 1.0
C      1  0.4575140000000  0.4459090000000  0.4882100000000 1.0
C      1  0.4751660000000  0.5474260000000  0.5262110000000 1.0
C      1  0.5055690000000  0.4348150000000  0.4948620000000 1.0
C      1  0.5183680000000  0.4893150000000  0.5512140000000 1.0
C      1  0.5215440000000  0.4987760000000  0.4753830000000 1.0
END
