TITL C-38530-6165-2 -0.121323635999719 125000 -757.259848852573 0 0 112 (C1) n - 1
REM
REM in /rds/project/t2_vol4/rds-t2-cs072/BORA/CARBON/from-Arr/AIRSS/Generating-Clusters/GAP-ML-2020/Higher-Symm/SD-CG/HFTN-CG
REM
REM
REM
REM
REM
REM ./C.cell (b20cbc046b6831c77cfcea5457e17084)
REM AIRSS Version 0.9.1 bugfix July 2018 build 013d7b7c2542+ Fri, 06 Jul 2018 19:26:36 +0100
REM compiler GCC version 9.3.0
REM options -cpp -mtune=generic -march=x86-64 -g -O0
REM seed -1758354885 1360206264 1739862351 -142797320 -1604583050 504032951 1941211404 -450258228 -237035362 -241005980 -1171546865 -1396405204 1303737785 -1106319101 890511560 -1951117566 735008144 -1170752947 -1989097979 -324809190 766312145 -894436244 -60470439 787954134 1706910464 -381844098 -1042517160 230573521 -941830232 1137481318 -1729408248 -675989173 1825128910
REM
CELL 1.54180   50.00000   50.00000   50.00000   90.00000   90.00000   90.00000
LATT -1
SFAC C  
C      1  0.5483040000000  0.4641270000000  0.4369640000000 1.0
C      1  0.4829230000000  0.4637490000000  0.4213470000000 1.0
C      1  0.4280900000000  0.4676320000000  0.4668960000000 1.0
C      1  0.4294480000000  0.4622860000000  0.5379350000000 1.0
C      1  0.4826960000000  0.4634350000000  0.5789620000000 1.0
C      1  0.5507530000000  0.4674900000000  0.5608860000000 1.0
C      1  0.5794530000000  0.4626850000000  0.4966350000000 1.0
C      1  0.4246020000000  0.5016940000000  0.4400140000000 1.0
C      1  0.4072690000000  0.4986930000000  0.5336080000000 1.0
C      1  0.4641200000000  0.5000310000000  0.5907270000000 1.0
C      1  0.5437200000000  0.5015210000000  0.5848360000000 1.0
C      1  0.5972270000000  0.4990300000000  0.5100380000000 1.0
C      1  0.5696450000000  0.4996590000000  0.4340350000000 1.0
C      1  0.4958410000000  0.5007510000000  0.4031030000000 1.0
C      1  0.4137240000000  0.4978400000000  0.5057200000000 1.0
C      1  0.4486480000000  0.4986560000000  0.5673210000000 1.0
C      1  0.5158410000000  0.5001560000000  0.5821270000000 1.0
C      1  0.5788900000000  0.4982950000000  0.5320340000000 1.0
C      1  0.5742250000000  0.4987350000000  0.4616740000000 1.0
C      1  0.5189550000000  0.4997660000000  0.4192700000000 1.0
C      1  0.4513420000000  0.4999760000000  0.4315470000000 1.0
C      1  0.5599540000000  0.5677090000000  0.5173970000000 1.0
C      1  0.5531220000000  0.5676250000000  0.4618590000000 1.0
C      1  0.5051540000000  0.5677570000000  0.4344520000000 1.0
C      1  0.4538380000000  0.5678270000000  0.4557340000000 1.0
C      1  0.4379980000000  0.5671180000000  0.5097110000000 1.0
C      1  0.4683860000000  0.5676770000000  0.5562930000000 1.0
C      1  0.5232990000000  0.5686840000000  0.5599000000000 1.0
C      1  0.4626040000000  0.5268630000000  0.4249840000000 1.0
C      1  0.4153250000000  0.5246190000000  0.4981250000000 1.0
C      1  0.4400000000000  0.5250050000000  0.5595240000000 1.0
C      1  0.5033410000000  0.5269450000000  0.5838560000000 1.0
C      1  0.5738110000000  0.5249370000000  0.5375110000000 1.0
C      1  0.5791810000000  0.5251390000000  0.4719650000000 1.0
C      1  0.5296130000000  0.5262620000000  0.4237250000000 1.0
C      1  0.5594320000000  0.5267960000000  0.4296440000000 1.0
C      1  0.4860240000000  0.5281260000000  0.4063840000000 1.0
C      1  0.4260970000000  0.5289850000000  0.4500390000000 1.0
C      1  0.4142150000000  0.5250070000000  0.5442450000000 1.0
C      1  0.4745500000000  0.5273330000000  0.5913570000000 1.0
C      1  0.5458830000000  0.5291380000000  0.5759000000000 1.0
C      1  0.5955890000000  0.5251640000000  0.4970120000000 1.0
C      1  0.4999410000000  0.4415190000000  0.4640560000000 1.0
C      1  0.4712710000000  0.4418190000000  0.4772840000000 1.0
C      1  0.4643220000000  0.4412200000000  0.5080620000000 1.0
C      1  0.4842740000000  0.4414070000000  0.5329340000000 1.0
C      1  0.5158240000000  0.4417700000000  0.5331870000000 1.0
C      1  0.5352640000000  0.4411450000000  0.5083780000000 1.0
C      1  0.5282020000000  0.4411930000000  0.4776370000000 1.0
C      1  0.5677830000000  0.4754190000000  0.4213660000000 1.0
C      1  0.4852750000000  0.4763030000000  0.3969670000000 1.0
C      1  0.4109570000000  0.4795000000000  0.4487840000000 1.0
C      1  0.4053470000000  0.4737200000000  0.5441290000000 1.0
C      1  0.4711770000000  0.4756000000000  0.6007440000000 1.0
C      1  0.5597820000000  0.4793710000000  0.5840720000000 1.0
C      1  0.6038820000000  0.4740560000000  0.5015920000000 1.0
C      1  0.5282450000000  0.5357160000000  0.4525430000000 1.0
C      1  0.4801740000000  0.5366550000000  0.4474600000000 1.0
C      1  0.4337770000000  0.5328830000000  0.4777720000000 1.0
C      1  0.4502010000000  0.5350940000000  0.5317310000000 1.0
C      1  0.4926140000000  0.5362570000000  0.5569310000000 1.0
C      1  0.5479640000000  0.5332380000000  0.5471170000000 1.0
C      1  0.5576660000000  0.5356980000000  0.4925590000000 1.0
C      1  0.5139250000000  0.4101960000000  0.5292750000000 1.0
C      1  0.5308370000000  0.4099660000000  0.5072910000000 1.0
C      1  0.5246560000000  0.4098530000000  0.4801740000000 1.0
C      1  0.4996800000000  0.4101170000000  0.4680610000000 1.0
C      1  0.4746210000000  0.4102600000000  0.4800030000000 1.0
C      1  0.4689470000000  0.4100670000000  0.5071560000000 1.0
C      1  0.4861610000000  0.4101470000000  0.5289760000000 1.0
C      1  0.4722650000000  0.4903280000000  0.5225800000000 1.0
C      1  0.5000700000000  0.4903960000000  0.5348780000000 1.0
C      1  0.5282700000000  0.4903620000000  0.5219050000000 1.0
C      1  0.5338070000000  0.4907940000000  0.4922020000000 1.0
C      1  0.5141600000000  0.4906770000000  0.4695620000000 1.0
C      1  0.4839640000000  0.4902650000000  0.4696510000000 1.0
C      1  0.4640390000000  0.4899780000000  0.4935830000000 1.0
C      1  0.4207570000000  0.5404910000000  0.5203720000000 1.0
C      1  0.4576020000000  0.5430400000000  0.5742330000000 1.0
C      1  0.5255800000000  0.5466260000000  0.5836410000000 1.0
C      1  0.5792640000000  0.5408380000000  0.5153530000000 1.0
C      1  0.5712770000000  0.5433190000000  0.4504740000000 1.0
C      1  0.5085280000000  0.5444250000000  0.4135100000000 1.0
C      1  0.4424780000000  0.5463130000000  0.4354490000000 1.0
C      1  0.4857470000000  0.5214700000000  0.4707910000000 1.0
C      1  0.4638280000000  0.5203730000000  0.4896990000000 1.0
C      1  0.4713940000000  0.5207260000000  0.5181280000000 1.0
C      1  0.4973850000000  0.5215180000000  0.5326300000000 1.0
C      1  0.5261010000000  0.5209580000000  0.5256990000000 1.0
C      1  0.5330230000000  0.5211730000000  0.4972860000000 1.0
C      1  0.5148860000000  0.5218860000000  0.4742800000000 1.0
C      1  0.4331980000000  0.4768700000000  0.4944340000000 1.0
C      1  0.4540170000000  0.4777280000000  0.5461220000000 1.0
C      1  0.5048980000000  0.4778040000000  0.5645830000000 1.0
C      1  0.5566190000000  0.4773760000000  0.5339060000000 1.0
C      1  0.5605510000000  0.4780110000000  0.4788370000000 1.0
C      1  0.5221840000000  0.4787120000000  0.4406320000000 1.0
C      1  0.4681180000000  0.4775470000000  0.4437140000000 1.0
C      1  0.5244450000000  0.4564360000000  0.5572030000000 1.0
C      1  0.5602320000000  0.4543370000000  0.5157450000000 1.0
C      1  0.5495570000000  0.4552370000000  0.4635120000000 1.0
C      1  0.5031780000000  0.4555900000000  0.4386600000000 1.0
C      1  0.4534110000000  0.4563980000000  0.4589840000000 1.0
C      1  0.4382740000000  0.4538170000000  0.5123380000000 1.0
C      1  0.4707290000000  0.4548960000000  0.5551250000000 1.0
C      1  0.5278930000000  0.5650520000000  0.4508980000000 1.0
C      1  0.4812700000000  0.5663300000000  0.4483590000000 1.0
C      1  0.4419150000000  0.5619040000000  0.4817250000000 1.0
C      1  0.4551800000000  0.5648020000000  0.5318550000000 1.0
C      1  0.4959550000000  0.5660790000000  0.5553060000000 1.0
C      1  0.5442270000000  0.5626620000000  0.5407670000000 1.0
C      1  0.5538220000000  0.5653480000000  0.4898550000000 1.0
END
