TITL C-38526-6062-4 0.019172188158541 125000 -418.106444386911 0 0 62 (C1) n - 1
REM
REM in /rds/project/t2_vol4/rds-t2-cs072/BORA/CARBON/from-Arr/AIRSS/Generating-Clusters/GAP-ML-2020/Higher-Symm/SD-CG/HFTN-CG
REM
REM
REM
REM
REM
REM ./C.cell (b20cbc046b6831c77cfcea5457e17084)
REM AIRSS Version 0.9.1 bugfix July 2018 build 013d7b7c2542+ Fri, 06 Jul 2018 19:26:36 +0100
REM compiler GCC version 9.3.0
REM options -cpp -mtune=generic -march=x86-64 -g -O0
REM seed -6717209 60840611 818659882 -981454282 -555591131 518818543 -1571304247 -1001403327 969107140 -1642953130 2131333408 -967639679 -1979774787 -656013614 2054737301 1651646616 -2117582461 -1261759811 880464087 -673671212 -1547578501 -148015731 -330404814 598831644 1788182820 -621797896 -1790560994 -1994221570 20113188 -309304962 -448056688 -652364964 1403890941
REM
CELL 1.54180   50.00000   50.00000   50.00000   90.00000   90.00000   90.00000
LATT -1
SFAC C  
C      1  0.5136570000000  0.4598450000000  0.4926110000000 1.0
C      1  0.5343340000000  0.5152480000000  0.4958360000000 1.0
C      1  0.5078040000000  0.5262940000000  0.4967340000000 1.0
C      1  0.4619530000000  0.5130640000000  0.5012410000000 1.0
C      1  0.4891220000000  0.4759510000000  0.4934260000000 1.0
C      1  0.4483310000000  0.4586110000000  0.4730890000000 1.0
C      1  0.5412680000000  0.4247360000000  0.4791900000000 1.0
C      1  0.5711590000000  0.5243850000000  0.4728060000000 1.0
C      1  0.5146190000000  0.5689140000000  0.4741280000000 1.0
C      1  0.4236750000000  0.5263380000000  0.4817760000000 1.0
C      1  0.5053890000000  0.5512970000000  0.5187980000000 1.0
C      1  0.4431600000000  0.5211080000000  0.5279610000000 1.0
C      1  0.4700070000000  0.4619280000000  0.5158170000000 1.0
C      1  0.5299600000000  0.4516670000000  0.5171680000000 1.0
C      1  0.5560260000000  0.5183430000000  0.5194210000000 1.0
C      1  0.4668140000000  0.5177960000000  0.4514330000000 1.0
C      1  0.4784670000000  0.4905460000000  0.4468970000000 1.0
C      1  0.5342240000000  0.4666070000000  0.4502870000000 1.0
C      1  0.5315390000000  0.4944500000000  0.4501740000000 1.0
C      1  0.4936350000000  0.5291170000000  0.4476220000000 1.0
C      1  0.4308190000000  0.4736990000000  0.4925950000000 1.0
C      1  0.5252990000000  0.4101170000000  0.4964910000000 1.0
C      1  0.5873700000000  0.5073670000000  0.4884660000000 1.0
C      1  0.5395120000000  0.5652830000000  0.4899020000000 1.0
C      1  0.4236220000000  0.5488900000000  0.4986430000000 1.0
C      1  0.5216130000000  0.5149250000000  0.5567960000000 1.0
C      1  0.4935560000000  0.5236320000000  0.5579390000000 1.0
C      1  0.4777060000000  0.4993220000000  0.5597800000000 1.0
C      1  0.4950250000000  0.4758860000000  0.5556580000000 1.0
C      1  0.5222360000000  0.4860280000000  0.5536880000000 1.0
C      1  0.5046460000000  0.5429770000000  0.4687330000000 1.0
C      1  0.4514980000000  0.5216500000000  0.4749990000000 1.0
C      1  0.4731360000000  0.4715970000000  0.4667060000000 1.0
C      1  0.5275180000000  0.4491460000000  0.4690960000000 1.0
C      1  0.5453720000000  0.5112050000000  0.4696380000000 1.0
C      1  0.4413290000000  0.4670390000000  0.5185240000000 1.0
C      1  0.5146540000000  0.4246430000000  0.5172140000000 1.0
C      1  0.5767580000000  0.4982890000000  0.5128880000000 1.0
C      1  0.5318360000000  0.5646050000000  0.5182020000000 1.0
C      1  0.4401580000000  0.5498760000000  0.5213370000000 1.0
C      1  0.4671930000000  0.4324260000000  0.5060140000000 1.0
C      1  0.5601810000000  0.4489730000000  0.5073860000000 1.0
C      1  0.5678340000000  0.5457270000000  0.5152460000000 1.0
C      1  0.4859770000000  0.5733110000000  0.5089390000000 1.0
C      1  0.4192520000000  0.5040810000000  0.5232650000000 1.0
C      1  0.4841630000000  0.4545120000000  0.5404620000000 1.0
C      1  0.5397270000000  0.4713390000000  0.5369580000000 1.0
C      1  0.5435180000000  0.5277520000000  0.5456470000000 1.0
C      1  0.4878590000000  0.5466370000000  0.5422110000000 1.0
C      1  0.4516560000000  0.5023730000000  0.5505960000000 1.0
C      1  0.5509080000000  0.5546080000000  0.5366450000000 1.0
C      1  0.4663930000000  0.5620860000000  0.5279080000000 1.0
C      1  0.4322980000000  0.4841070000000  0.5394910000000 1.0
C      1  0.4877160000000  0.4285450000000  0.5269570000000 1.0
C      1  0.5651810000000  0.4733990000000  0.5220460000000 1.0
C      1  0.4949720000000  0.5862170000000  0.4869340000000 1.0
C      1  0.4172510000000  0.4998000000000  0.4954940000000 1.0
C      1  0.4523130000000  0.4316660000000  0.4837860000000 1.0
C      1  0.5674530000000  0.4302640000000  0.4886720000000 1.0
C      1  0.5643970000000  0.5511270000000  0.4872690000000 1.0
C      1  0.5051720000000  0.5024510000000  0.4421050000000 1.0
C      1  0.4886850000000  0.5046960000000  0.5018360000000 1.0
END
