TITL C-38725-7591-2 -0.214669647313788 125000 -349.453790018805 0 0 53 (C1) n - 1
REM
REM in /rds/project/t2_vol4/rds-t2-cs072/BORA/CARBON/from-Arr/AIRSS/Generating-Clusters/GAP-ML-2020/Higher-Symm/SD-CG/HFTN-CG
REM
REM
REM
REM
REM
REM ./C.cell (b20cbc046b6831c77cfcea5457e17084)
REM AIRSS Version 0.9.1 bugfix July 2018 build 013d7b7c2542+ Fri, 06 Jul 2018 19:26:36 +0100
REM compiler GCC version 9.3.0
REM options -cpp -mtune=generic -march=x86-64 -g -O0
REM seed -441850313 1682135270 312896602 726687803 1914049811 1138892902 -1027012330 1453117503 695142984 -578388638 -2083788217 767439333 -582269143 1017521054 -2051878129 125595210 696989731 1345563265 -1374444406 -115799849 -1441143715 1653481411 -1363767383 -1224701618 -1848880620 -1886658152 -1158907506 223802765 -596883121 -2099724311 -1113619646 -837621151 -829441912
REM
CELL 1.54180   50.00000   50.00000   50.00000   90.00000   90.00000   90.00000
LATT -1
SFAC C  
C      1  0.4798010000000  0.5555720000000  0.4603650000000 1.0
C      1  0.4626180000000  0.4877270000000  0.5584340000000 1.0
C      1  0.5580420000000  0.4647950000000  0.4842980000000 1.0
C      1  0.5448650000000  0.4403290000000  0.4477030000000 1.0
C      1  0.5188830000000  0.5570210000000  0.5391970000000 1.0
C      1  0.4762090000000  0.4445110000000  0.5445500000000 1.0
C      1  0.5376810000000  0.5149590000000  0.5609540000000 1.0
C      1  0.5419410000000  0.4857310000000  0.4406660000000 1.0
C      1  0.4532580000000  0.5253490000000  0.4323100000000 1.0
C      1  0.4432700000000  0.5380180000000  0.4790620000000 1.0
C      1  0.4346400000000  0.4599060000000  0.5320530000000 1.0
C      1  0.5551130000000  0.5365240000000  0.5184090000000 1.0
C      1  0.5583160000000  0.4882660000000  0.4653550000000 1.0
C      1  0.4785170000000  0.4655500000000  0.5652770000000 1.0
C      1  0.4613630000000  0.5611730000000  0.4808500000000 1.0
C      1  0.4483560000000  0.5182340000000  0.4582220000000 1.0
C      1  0.5552410000000  0.5144110000000  0.5374980000000 1.0
C      1  0.4393090000000  0.4856780000000  0.5400840000000 1.0
C      1  0.5163520000000  0.5342190000000  0.5568760000000 1.0
C      1  0.4778250000000  0.5349830000000  0.4389330000000 1.0
C      1  0.5259730000000  0.4611160000000  0.4452030000000 1.0
C      1  0.5618770000000  0.4423400000000  0.4684550000000 1.0
C      1  0.4575720000000  0.4471120000000  0.5234290000000 1.0
C      1  0.5441830000000  0.5591270000000  0.5299850000000 1.0
C      1  0.5007990000000  0.5156180000000  0.4484280000000 1.0
C      1  0.4506060000000  0.5022360000000  0.5179090000000 1.0
C      1  0.5151240000000  0.4494120000000  0.5086110000000 1.0
C      1  0.5048010000000  0.4680710000000  0.4642850000000 1.0
C      1  0.4985450000000  0.5227780000000  0.5360260000000 1.0
C      1  0.5094650000000  0.4677400000000  0.5596860000000 1.0
C      1  0.5392710000000  0.4902070000000  0.5271810000000 1.0
C      1  0.5394160000000  0.5092110000000  0.4746500000000 1.0
C      1  0.4645040000000  0.4977780000000  0.4704420000000 1.0
C      1  0.4692980000000  0.5540860000000  0.5106510000000 1.0
C      1  0.4704710000000  0.4611150000000  0.5012690000000 1.0
C      1  0.5129670000000  0.5463090000000  0.4940360000000 1.0
C      1  0.5287370000000  0.5119830000000  0.4462680000000 1.0
C      1  0.5026400000000  0.4528590000000  0.5342040000000 1.0
C      1  0.4547090000000  0.5285570000000  0.5049720000000 1.0
C      1  0.4882260000000  0.4899940000000  0.4549950000000 1.0
C      1  0.5288990000000  0.4856800000000  0.5555120000000 1.0
C      1  0.4765380000000  0.5012560000000  0.5369170000000 1.0
C      1  0.4968070000000  0.5501120000000  0.5182660000000 1.0
C      1  0.4959090000000  0.5356770000000  0.4738510000000 1.0
C      1  0.4949860000000  0.4510650000000  0.4878910000000 1.0
C      1  0.5366820000000  0.4695820000000  0.5038950000000 1.0
C      1  0.4538610000000  0.4834710000000  0.4930740000000 1.0
C      1  0.5357510000000  0.5285590000000  0.4977810000000 1.0
C      1  0.4887230000000  0.4795280000000  0.5196850000000 1.0
C      1  0.4800650000000  0.5155820000000  0.4893450000000 1.0
C      1  0.5193010000000  0.4864050000000  0.4837750000000 1.0
C      1  0.5191400000000  0.5110500000000  0.5175960000000 1.0
C      1  0.5003470000000  0.4980210000000  0.5011530000000 1.0
END
