TITL C-38632-745-2 0.0913101283735844 125000 -81.1842946613922 0 0 13 (C1) n - 1
REM
REM in /rds/project/t2_vol4/rds-t2-cs072/BORA/CARBON/from-Arr/AIRSS/Generating-Clusters/GAP-ML-2020/Higher-Symm/SD-CG/HFTN-CG
REM
REM
REM
REM
REM
REM ./C.cell (b20cbc046b6831c77cfcea5457e17084)
REM AIRSS Version 0.9.1 bugfix July 2018 build 013d7b7c2542+ Fri, 06 Jul 2018 19:26:36 +0100
REM compiler GCC version 9.3.0
REM options -cpp -mtune=generic -march=x86-64 -g -O0
REM seed -1089612551 -2146983477 1488130094 -1026979882 -270678990 -1509737592 2110103144 -679607186 316945757 -349014470 -1961758592 651339645 -1570923762 665389865 549256497 1146425518 -1873740097 -270751252 796616317 197081446 1839733296 -2042498966 -926817001 1165254040 1278470979 -1701957748 1107938171 -1378769668 1059746605 1776648365 2091881742 314733355 -1589097639
REM
CELL 1.54180   50.00000   50.00000   50.00000   90.00000   90.00000   90.00000
LATT -1
SFAC C  
C      1  0.5003820000000  0.4615440000000  0.4910050000000 1.0
C      1  0.4995230000000  0.5425190000000  0.4962250000000 1.0
C      1  0.4826540000000  0.4987100000000  0.4805220000000 1.0
C      1  0.5028360000000  0.4783800000000  0.5270130000000 1.0
C      1  0.4552980000000  0.4999990000000  0.4821410000000 1.0
C      1  0.4975730000000  0.4543310000000  0.5171460000000 1.0
C      1  0.4977760000000  0.4759730000000  0.4700830000000 1.0
C      1  0.5668170000000  0.5027150000000  0.5189790000000 1.0
C      1  0.5419030000000  0.5038720000000  0.5190520000000 1.0
C      1  0.4315550000000  0.5046850000000  0.4889430000000 1.0
C      1  0.4996080000000  0.5674910000000  0.4942530000000 1.0
C      1  0.5146170000000  0.5017120000000  0.5183080000000 1.0
C      1  0.4987760000000  0.5157640000000  0.4981510000000 1.0
END
