TITL C-38528-6035-7 88.7278461922941 125000 -221.318807135914 0 0 33 (C1) n - 1
REM
REM in /rds/project/t2_vol4/rds-t2-cs072/BORA/CARBON/from-Arr/AIRSS/Generating-Clusters/GAP-ML-2020/Higher-Symm/SD-CG/HFTN-CG
REM
REM
REM
REM
REM
REM ./C.cell (b20cbc046b6831c77cfcea5457e17084)
REM AIRSS Version 0.9.1 bugfix July 2018 build 013d7b7c2542+ Fri, 06 Jul 2018 19:26:36 +0100
REM compiler GCC version 9.3.0
REM options -cpp -mtune=generic -march=x86-64 -g -O0
REM seed 1046030828 -947375283 1153125366 1574974185 763622992 1037642089 -402058874 -1562799554 -1006193697 1593673379 464104217 654295139 -1443611570 -1784902865 -1447073323 -1611617663 -1237485520 -1733141827 1910289864 1852440805 -790110668 1668273189 -460496868 -135762413 1521743095 1736737926 982678106 122857955 -1666136993 2020603984 1481271397 -1023481403 -743794240
REM
CELL 1.54180   50.00000   50.00000   50.00000   90.00000   90.00000   90.00000
LATT -1
SFAC C  
C      1  0.5377400000000  0.4945860000000  0.4438930000000 1.0
C      1  0.4656490000000  0.4957230000000  0.5538690000000 1.0
C      1  0.4642920000000  0.5064700000000  0.4436370000000 1.0
C      1  0.5382660000000  0.5067870000000  0.5553900000000 1.0
C      1  0.4681410000000  0.4674860000000  0.5154330000000 1.0
C      1  0.5331500000000  0.4651920000000  0.4853590000000 1.0
C      1  0.5328930000000  0.5372050000000  0.5138380000000 1.0
C      1  0.4676670000000  0.5340660000000  0.4829940000000 1.0
C      1  0.4895570000000  0.5199930000000  0.5198630000000 1.0
C      1  0.5155040000000  0.5263110000000  0.4733910000000 1.0
C      1  0.5182550000000  0.4693510000000  0.5304530000000 1.0
C      1  0.4883750000000  0.4839070000000  0.4777820000000 1.0
C      1  0.4416840000000  0.4957050000000  0.4855930000000 1.0
C      1  0.5549900000000  0.4953500000000  0.5125960000000 1.0
C      1  0.5553850000000  0.5061040000000  0.4865750000000 1.0
C      1  0.4425710000000  0.5054480000000  0.5125240000000 1.0
C      1  0.4947830000000  0.5434230000000  0.4838240000000 1.0
C      1  0.5049790000000  0.5436400000000  0.5123450000000 1.0
C      1  0.5049290000000  0.4620780000000  0.4875370000000 1.0
C      1  0.4957830000000  0.4607910000000  0.5149800000000 1.0
C      1  0.4519900000000  0.4855400000000  0.5324880000000 1.0
C      1  0.5442630000000  0.4861090000000  0.4689670000000 1.0
C      1  0.5431870000000  0.5156550000000  0.5302050000000 1.0
C      1  0.4517450000000  0.5163010000000  0.4662640000000 1.0
C      1  0.5157790000000  0.4930210000000  0.5470920000000 1.0
C      1  0.4884490000000  0.4958200000000  0.4510250000000 1.0
C      1  0.4897700000000  0.5061510000000  0.5457730000000 1.0
C      1  0.5150050000000  0.5080140000000  0.4504630000000 1.0
C      1  0.4627080000000  0.4771120000000  0.4891890000000 1.0
C      1  0.5411030000000  0.4706990000000  0.5123510000000 1.0
C      1  0.5411160000000  0.5307040000000  0.4871920000000 1.0
C      1  0.4634210000000  0.5244940000000  0.5088980000000 1.0
C      1  0.5079550000000  0.5033790000000  0.4965080000000 1.0
END
