TITL C-38743-9437-2 88.9413858626536 125000 -818.15813278215 0 0 114 (Ci) n - 1
REM
REM in /rds/project/t2_vol4/rds-t2-cs072/BORA/CARBON/from-Arr/AIRSS/Generating-Clusters/GAP-ML-2020/Higher-Symm/SD-CG/HFTN-CG
REM
REM
REM
REM
REM
REM ./C.cell (b20cbc046b6831c77cfcea5457e17084)
REM AIRSS Version 0.9.1 bugfix July 2018 build 013d7b7c2542+ Fri, 06 Jul 2018 19:26:36 +0100
REM compiler GCC version 9.3.0
REM options -cpp -mtune=generic -march=x86-64 -g -O0
REM seed -1328042961 -332482058 318792691 -562282430 -2076222425 779751741 1781395894 1470770426 -907585116 -269953199 352295489 -1194623430 967391848 1711177462 -1655723315 -1296148511 614883360 -94525536 182960950 1068167911 -102144502 1670642509 1883477833 886294002 1492682828 -1473167315 -1756319970 -8394539 1363995853 1322029439 -30336179 538018303 -410817266
REM
CELL 1.54180   50.00000   50.00000   50.00000   90.00000   90.00000   90.00000
LATT -1
SFAC C  
C      1  0.5199000000000  0.4927080000000  0.4131110000000 1.0
C      1  0.4801000000000  0.5072920000000  0.5868890000000 1.0
C      1  0.5329610000000  0.5650540000000  0.4801570000000 1.0
C      1  0.4670390000000  0.4349460000000  0.5198430000000 1.0
C      1  0.4432200000000  0.5571300000000  0.5435960000000 1.0
C      1  0.5567800000000  0.4428700000000  0.4564040000000 1.0
C      1  0.4458750000000  0.5529650000000  0.4449530000000 1.0
C      1  0.5541250000000  0.4470350000000  0.5550470000000 1.0
C      1  0.5052400000000  0.5980740000000  0.4945310000000 1.0
C      1  0.4947600000000  0.4019260000000  0.5054690000000 1.0
C      1  0.5367260000000  0.4226090000000  0.4535260000000 1.0
C      1  0.4632740000000  0.5773910000000  0.5464740000000 1.0
C      1  0.5143130000000  0.5411010000000  0.5228050000000 1.0
C      1  0.4856870000000  0.4588990000000  0.4771950000000 1.0
C      1  0.5090660000000  0.5106840000000  0.5904740000000 1.0
C      1  0.4909340000000  0.4893160000000  0.4095260000000 1.0
C      1  0.5393290000000  0.4133300000000  0.5031120000000 1.0
C      1  0.4606710000000  0.5866700000000  0.4968880000000 1.0
C      1  0.5198220000000  0.5250380000000  0.5481840000000 1.0
C      1  0.4801780000000  0.4749620000000  0.4518160000000 1.0
C      1  0.4812060000000  0.4053960000000  0.4608530000000 1.0
C      1  0.5187940000000  0.5946040000000  0.5391470000000 1.0
C      1  0.5525790000000  0.4956990000000  0.5701610000000 1.0
C      1  0.4474210000000  0.5043010000000  0.4298390000000 1.0
C      1  0.4884220000000  0.5341620000000  0.5143360000000 1.0
C      1  0.5115780000000  0.4658380000000  0.4856640000000 1.0
C      1  0.5336530000000  0.5397320000000  0.4978830000000 1.0
C      1  0.4663470000000  0.4602680000000  0.5021170000000 1.0
C      1  0.5154530000000  0.4513180000000  0.4218660000000 1.0
C      1  0.4845470000000  0.5486820000000  0.5781340000000 1.0
C      1  0.4337900000000  0.5261310000000  0.4427780000000 1.0
C      1  0.5662100000000  0.4738690000000  0.5572220000000 1.0
C      1  0.5699010000000  0.4451140000000  0.4813810000000 1.0
C      1  0.4300990000000  0.5548860000000  0.5186190000000 1.0
C      1  0.4311420000000  0.5580860000000  0.4698070000000 1.0
C      1  0.5688580000000  0.4419150000000  0.5301930000000 1.0
C      1  0.4810620000000  0.4340450000000  0.5444460000000 1.0
C      1  0.5189380000000  0.5659550000000  0.4555540000000 1.0
C      1  0.4375920000000  0.5699330000000  0.4948440000000 1.0
C      1  0.5624080000000  0.4300670000000  0.5051560000000 1.0
C      1  0.4718730000000  0.5113220000000  0.4157870000000 1.0
C      1  0.5281270000000  0.4886780000000  0.5842130000000 1.0
C      1  0.4277250000000  0.5129510000000  0.5399220000000 1.0
C      1  0.5722750000000  0.4870490000000  0.4600780000000 1.0
C      1  0.4482470000000  0.4782480000000  0.4451910000000 1.0
C      1  0.5517530000000  0.5217520000000  0.5548090000000 1.0
C      1  0.5577950000000  0.5640410000000  0.5316100000000 1.0
C      1  0.4422050000000  0.4359590000000  0.4683900000000 1.0
C      1  0.5811340000000  0.4713120000000  0.4825720000000 1.0
C      1  0.4188660000000  0.5286880000000  0.5174280000000 1.0
C      1  0.5604110000000  0.5421000000000  0.5109130000000 1.0
C      1  0.4395890000000  0.4579000000000  0.4890870000000 1.0
C      1  0.4100130000000  0.5184100000000  0.4919460000000 1.0
C      1  0.5899870000000  0.4815900000000  0.5080540000000 1.0
C      1  0.5163450000000  0.4617550000000  0.5797780000000 1.0
C      1  0.4836550000000  0.5382450000000  0.4202220000000 1.0
C      1  0.5316050000000  0.5875110000000  0.4963910000000 1.0
C      1  0.4683950000000  0.4124890000000  0.5036090000000 1.0
C      1  0.4835350000000  0.5888410000000  0.4782990000000 1.0
C      1  0.5164650000000  0.4111590000000  0.5217010000000 1.0
C      1  0.5320720000000  0.5097130000000  0.4916840000000 1.0
C      1  0.4679280000000  0.4902870000000  0.5083160000000 1.0
C      1  0.4373660000000  0.4829090000000  0.4722510000000 1.0
C      1  0.5626340000000  0.5170910000000  0.5277490000000 1.0
C      1  0.4828430000000  0.5073880000000  0.5238140000000 1.0
C      1  0.5171570000000  0.4926120000000  0.4761860000000 1.0
C      1  0.5411870000000  0.5857830000000  0.5234350000000 1.0
C      1  0.4588130000000  0.4142170000000  0.4765650000000 1.0
C      1  0.5811820000000  0.4678100000000  0.5319690000000 1.0
C      1  0.4188180000000  0.5321900000000  0.4680310000000 1.0
C      1  0.4583710000000  0.5025580000000  0.4850250000000 1.0
C      1  0.5416290000000  0.4974420000000  0.5149750000000 1.0
C      1  0.5153710000000  0.4267480000000  0.4350540000000 1.0
C      1  0.4846290000000  0.5732520000000  0.5649460000000 1.0
C      1  0.5275110000000  0.4412730000000  0.5630110000000 1.0
C      1  0.4724890000000  0.5587270000000  0.4369890000000 1.0
C      1  0.4676510000000  0.4524240000000  0.5615780000000 1.0
C      1  0.5323490000000  0.5475760000000  0.4384220000000 1.0
C      1  0.4702770000000  0.5921440000000  0.5232440000000 1.0
C      1  0.5297230000000  0.4078560000000  0.4767560000000 1.0
C      1  0.4788340000000  0.5174810000000  0.4719450000000 1.0
C      1  0.5211660000000  0.4825190000000  0.5280550000000 1.0
C      1  0.4839040000000  0.5384490000000  0.4879910000000 1.0
C      1  0.5160960000000  0.4615510000000  0.5120090000000 1.0
C      1  0.5861990000000  0.5093200000000  0.5104310000000 1.0
C      1  0.4138010000000  0.4906800000000  0.4895690000000 1.0
C      1  0.4639640000000  0.5294440000000  0.5775940000000 1.0
C      1  0.5360360000000  0.4705560000000  0.4224060000000 1.0
C      1  0.5118380000000  0.5361520000000  0.4220040000000 1.0
C      1  0.4881620000000  0.4638480000000  0.5779960000000 1.0
C      1  0.4286590000000  0.4817360000000  0.5373170000000 1.0
C      1  0.5713410000000  0.5182640000000  0.4626830000000 1.0
C      1  0.4205890000000  0.4724250000000  0.5096250000000 1.0
C      1  0.5794110000000  0.5275750000000  0.4903750000000 1.0
C      1  0.4978020000000  0.5011390000000  0.4570340000000 1.0
C      1  0.5021980000000  0.4988610000000  0.5429660000000 1.0
C      1  0.4700520000000  0.4395410000000  0.4275950000000 1.0
C      1  0.5299480000000  0.5604590000000  0.5724050000000 1.0
C      1  0.5124280000000  0.5806470000000  0.5624560000000 1.0
C      1  0.4875720000000  0.4193530000000  0.4375440000000 1.0
C      1  0.5028910000000  0.3992140000000  0.4785890000000 1.0
C      1  0.4971090000000  0.6007860000000  0.5214110000000 1.0
C      1  0.5117210000000  0.5373930000000  0.5781910000000 1.0
C      1  0.4882790000000  0.4626070000000  0.4218090000000 1.0
C      1  0.5530550000000  0.5523350000000  0.5579310000000 1.0
C      1  0.4469450000000  0.4476650000000  0.4420690000000 1.0
C      1  0.4434720000000  0.4651610000000  0.5531700000000 1.0
C      1  0.5565280000000  0.5348390000000  0.4468300000000 1.0
C      1  0.5090870000000  0.4262450000000  0.5454730000000 1.0
C      1  0.4909130000000  0.5737550000000  0.4545270000000 1.0
C      1  0.4835910000000  0.4890600000000  0.5669430000000 1.0
C      1  0.5164090000000  0.5109400000000  0.4330570000000 1.0
C      1  0.4425830000000  0.5315040000000  0.5574570000000 1.0
C      1  0.5574170000000  0.4684960000000  0.4425430000000 1.0
END
