TITL C-38750-7383-11 -0.224451065814363 125000 -600.700687253966 0 0 89 (C1) n - 1
REM
REM in /rds/project/t2_vol4/rds-t2-cs072/BORA/CARBON/from-Arr/AIRSS/Generating-Clusters/GAP-ML-2020/Higher-Symm/SD-CG/HFTN-CG
REM
REM
REM
REM
REM
REM ./C.cell (b20cbc046b6831c77cfcea5457e17084)
REM AIRSS Version 0.9.1 bugfix July 2018 build 013d7b7c2542+ Fri, 06 Jul 2018 19:26:36 +0100
REM compiler GCC version 9.3.0
REM options -cpp -mtune=generic -march=x86-64 -g -O0
REM seed 127380139 32212459 -1511568465 -1770109197 -757626874 1901043453 -1481530168 1332822191 -1025772462 1241466658 935214328 -64130549 -1571259346 372613663 300820400 -1608785620 -1469849445 880069090 -1024675093 -1032119885 -1367360195 2002781897 907632121 901144339 1600974893 1917806083 710504913 1119458634 292315632 -1149107668 -1050612382 636008113 -1082245744
REM
CELL 1.54180   50.00000   50.00000   50.00000   90.00000   90.00000   90.00000
LATT -1
SFAC C  
C      1  0.4388650000000  0.5007830000000  0.4588450000000 1.0
C      1  0.4358450000000  0.4969090000000  0.5420560000000 1.0
C      1  0.5550990000000  0.5280820000000  0.5325900000000 1.0
C      1  0.5658050000000  0.5302430000000  0.4764870000000 1.0
C      1  0.4941940000000  0.4879430000000  0.4575290000000 1.0
C      1  0.4804430000000  0.4739520000000  0.5533800000000 1.0
C      1  0.5251980000000  0.5220770000000  0.5689970000000 1.0
C      1  0.5488420000000  0.5242200000000  0.4335130000000 1.0
C      1  0.5111020000000  0.4699760000000  0.4387970000000 1.0
C      1  0.5038460000000  0.4596110000000  0.5592200000000 1.0
C      1  0.4480080000000  0.5367810000000  0.5493190000000 1.0
C      1  0.4557080000000  0.5395690000000  0.4580940000000 1.0
C      1  0.5027910000000  0.4454530000000  0.4471020000000 1.0
C      1  0.5050750000000  0.4406920000000  0.5378280000000 1.0
C      1  0.4656940000000  0.5570420000000  0.5419240000000 1.0
C      1  0.4792340000000  0.5525030000000  0.4673080000000 1.0
C      1  0.5394710000000  0.4958430000000  0.4869050000000 1.0
C      1  0.5341760000000  0.4890640000000  0.5276120000000 1.0
C      1  0.4677930000000  0.4664130000000  0.5277030000000 1.0
C      1  0.4741480000000  0.4703600000000  0.4739950000000 1.0
C      1  0.5374350000000  0.5431480000000  0.5499220000000 1.0
C      1  0.5497870000000  0.5433660000000  0.4545560000000 1.0
C      1  0.5018940000000  0.5496280000000  0.4502610000000 1.0
C      1  0.4919500000000  0.5500430000000  0.5480790000000 1.0
C      1  0.5000840000000  0.5209230000000  0.5504220000000 1.0
C      1  0.5018680000000  0.5271920000000  0.4316870000000 1.0
C      1  0.4797740000000  0.5009420000000  0.5644060000000 1.0
C      1  0.4825840000000  0.5078850000000  0.4381620000000 1.0
C      1  0.5602730000000  0.5015140000000  0.4659770000000 1.0
C      1  0.5552160000000  0.5012730000000  0.5431470000000 1.0
C      1  0.5200910000000  0.4790670000000  0.5746550000000 1.0
C      1  0.5314860000000  0.4853080000000  0.4268380000000 1.0
C      1  0.5119320000000  0.5099660000000  0.5240090000000 1.0
C      1  0.5105190000000  0.5001540000000  0.4795260000000 1.0
C      1  0.4846520000000  0.4426990000000  0.4677720000000 1.0
C      1  0.4833710000000  0.4437640000000  0.5193190000000 1.0
C      1  0.4368940000000  0.5245550000000  0.4745310000000 1.0
C      1  0.4324300000000  0.5222100000000  0.5295960000000 1.0
C      1  0.4414250000000  0.4756350000000  0.5252570000000 1.0
C      1  0.4452770000000  0.4773880000000  0.4722490000000 1.0
C      1  0.5165430000000  0.5593670000000  0.5368910000000 1.0
C      1  0.5265280000000  0.5589640000000  0.4596900000000 1.0
C      1  0.5039140000000  0.5024410000000  0.5826620000000 1.0
C      1  0.5249540000000  0.5148210000000  0.4218470000000 1.0
C      1  0.5565640000000  0.4956610000000  0.4389870000000 1.0
C      1  0.5414220000000  0.4966940000000  0.5665590000000 1.0
C      1  0.4567760000000  0.5158900000000  0.4420830000000 1.0
C      1  0.4531830000000  0.5110730000000  0.5607790000000 1.0
C      1  0.3963670000000  0.4770800000000  0.4991230000000 1.0
C      1  0.5263270000000  0.5767060000000  0.4849360000000 1.0
C      1  0.5355630000000  0.3893490000000  0.4980450000000 1.0
C      1  0.5121750000000  0.5585460000000  0.5073870000000 1.0
C      1  0.4317220000000  0.4719140000000  0.4976600000000 1.0
C      1  0.5239610000000  0.5321760000000  0.5076710000000 1.0
C      1  0.5926470000000  0.4902130000000  0.5020230000000 1.0
C      1  0.3961710000000  0.5301730000000  0.5008290000000 1.0
C      1  0.5768960000000  0.4681730000000  0.5048710000000 1.0
C      1  0.4072020000000  0.5545520000000  0.5023320000000 1.0
C      1  0.4810650000000  0.4770130000000  0.5023610000000 1.0
C      1  0.4373480000000  0.4097000000000  0.5092830000000 1.0
C      1  0.5832400000000  0.4141230000000  0.4999940000000 1.0
C      1  0.4186780000000  0.4273100000000  0.5070660000000 1.0
C      1  0.4104050000000  0.4519840000000  0.4987730000000 1.0
C      1  0.4599780000000  0.3951730000000  0.5097460000000 1.0
C      1  0.3946780000000  0.5034720000000  0.5010820000000 1.0
C      1  0.4925690000000  0.5039710000000  0.5028490000000 1.0
C      1  0.4836880000000  0.4296930000000  0.4931060000000 1.0
C      1  0.5784680000000  0.4419480000000  0.4942340000000 1.0
C      1  0.4832450000000  0.5535170000000  0.4968240000000 1.0
C      1  0.5352470000000  0.4466330000000  0.5015760000000 1.0
C      1  0.5543120000000  0.5859450000000  0.4882480000000 1.0
C      1  0.5239480000000  0.4288320000000  0.5213110000000 1.0
C      1  0.5452590000000  0.4732990000000  0.5059240000000 1.0
C      1  0.4443840000000  0.5272360000000  0.5026300000000 1.0
C      1  0.4736260000000  0.5268600000000  0.5037130000000 1.0
C      1  0.5500740000000  0.5238070000000  0.5020510000000 1.0
C      1  0.6045740000000  0.5120790000000  0.4967650000000 1.0
C      1  0.4595840000000  0.5704750000000  0.5137180000000 1.0
C      1  0.4642160000000  0.5978050000000  0.5059530000000 1.0
C      1  0.5563610000000  0.4048170000000  0.4899520000000 1.0
C      1  0.5146010000000  0.4031860000000  0.5097450000000 1.0
C      1  0.5940980000000  0.5365640000000  0.4855090000000 1.0
C      1  0.5790280000000  0.5814380000000  0.4883470000000 1.0
C      1  0.4843940000000  0.6095570000000  0.4933770000000 1.0
C      1  0.5528380000000  0.4334240000000  0.4833060000000 1.0
C      1  0.5062240000000  0.5985290000000  0.4856290000000 1.0
C      1  0.4858960000000  0.4023650000000  0.5023550000000 1.0
C      1  0.5987670000000  0.5633440000000  0.4882180000000 1.0
C      1  0.4348130000000  0.5560760000000  0.5046390000000 1.0
END
