TITL C-38724-7406-2 -0.0161330709266002 125000 -461.410168092475 0 0 68 (C1) n - 1
REM
REM in /rds/project/t2_vol4/rds-t2-cs072/BORA/CARBON/from-Arr/AIRSS/Generating-Clusters/GAP-ML-2020/Higher-Symm/SD-CG/HFTN-CG
REM
REM
REM
REM
REM
REM ./C.cell (b20cbc046b6831c77cfcea5457e17084)
REM AIRSS Version 0.9.1 bugfix July 2018 build 013d7b7c2542+ Fri, 06 Jul 2018 19:26:36 +0100
REM compiler GCC version 9.3.0
REM options -cpp -mtune=generic -march=x86-64 -g -O0
REM seed 529104695 -1273876471 -368891394 1109256352 -1490156600 -266691955 1421362476 1737071997 1103202160 -972406572 725880265 -476938188 -1654293318 -1042811383 438975635 1630916994 865113607 604415819 525259956 -1957547930 -201014106 -1803621120 -1457498017 321969602 1104266498 1305436297 -1458566806 -921626304 -1117050462 -532139861 -1710871591 74940422 1686906462
REM
CELL 1.54180   50.00000   50.00000   50.00000   90.00000   90.00000   90.00000
LATT -1
SFAC C  
C      1  0.5058550000000  0.5198920000000  0.5817660000000 1.0
C      1  0.4870670000000  0.5173070000000  0.5408850000000 1.0
C      1  0.4559330000000  0.5569660000000  0.4559630000000 1.0
C      1  0.5080150000000  0.5671640000000  0.4948420000000 1.0
C      1  0.5492680000000  0.5389470000000  0.5232470000000 1.0
C      1  0.4801340000000  0.4747800000000  0.5103360000000 1.0
C      1  0.4954760000000  0.4465070000000  0.4452360000000 1.0
C      1  0.5667910000000  0.4833090000000  0.4790110000000 1.0
C      1  0.4553530000000  0.5200220000000  0.4854440000000 1.0
C      1  0.5205280000000  0.4408800000000  0.4575210000000 1.0
C      1  0.5049290000000  0.4421710000000  0.5357740000000 1.0
C      1  0.5137250000000  0.4574590000000  0.5583560000000 1.0
C      1  0.4790930000000  0.5631730000000  0.5008600000000 1.0
C      1  0.4772850000000  0.4909050000000  0.4234490000000 1.0
C      1  0.4530290000000  0.5557230000000  0.5435610000000 1.0
C      1  0.5511100000000  0.5663480000000  0.5127920000000 1.0
C      1  0.5400820000000  0.5154190000000  0.4602650000000 1.0
C      1  0.5458620000000  0.4951090000000  0.4400360000000 1.0
C      1  0.5092640000000  0.5130830000000  0.5011910000000 1.0
C      1  0.5488110000000  0.4984650000000  0.5494510000000 1.0
C      1  0.4493840000000  0.4564390000000  0.4655000000000 1.0
C      1  0.4391190000000  0.5080900000000  0.5347080000000 1.0
C      1  0.4675050000000  0.5023620000000  0.4636480000000 1.0
C      1  0.5264440000000  0.5801540000000  0.5125550000000 1.0
C      1  0.5628780000000  0.5120070000000  0.4807930000000 1.0
C      1  0.4769440000000  0.5592970000000  0.5293640000000 1.0
C      1  0.4420950000000  0.5058990000000  0.5063580000000 1.0
C      1  0.4611380000000  0.5485440000000  0.4826110000000 1.0
C      1  0.5427940000000  0.4490470000000  0.5017220000000 1.0
C      1  0.5196390000000  0.5363600000000  0.5615540000000 1.0
C      1  0.5099940000000  0.4921350000000  0.5808570000000 1.0
C      1  0.4607450000000  0.5425590000000  0.4358450000000 1.0
C      1  0.5498620000000  0.5635110000000  0.4847620000000 1.0
C      1  0.4496310000000  0.4803980000000  0.4502300000000 1.0
C      1  0.4431900000000  0.5316690000000  0.5508060000000 1.0
C      1  0.4523090000000  0.4797590000000  0.4225320000000 1.0
C      1  0.4985460000000  0.4757670000000  0.4375030000000 1.0
C      1  0.5262570000000  0.5619350000000  0.4702600000000 1.0
C      1  0.5179190000000  0.4462080000000  0.4859850000000 1.0
C      1  0.4735130000000  0.4245730000000  0.4891030000000 1.0
C      1  0.5266690000000  0.4770900000000  0.4289890000000 1.0
C      1  0.4779060000000  0.5187410000000  0.4377600000000 1.0
C      1  0.4753230000000  0.4438000000000  0.4665060000000 1.0
C      1  0.5437070000000  0.5272540000000  0.5499130000000 1.0
C      1  0.4949860000000  0.4872620000000  0.4663570000000 1.0
C      1  0.4600590000000  0.4358540000000  0.5093530000000 1.0
C      1  0.4680990000000  0.4679630000000  0.5556350000000 1.0
C      1  0.5598430000000  0.4734300000000  0.4540240000000 1.0
C      1  0.4498700000000  0.4897920000000  0.5560770000000 1.0
C      1  0.4765660000000  0.4514970000000  0.5305430000000 1.0
C      1  0.4946780000000  0.4987800000000  0.5194110000000 1.0
C      1  0.5406200000000  0.4549570000000  0.4435050000000 1.0
C      1  0.5017960000000  0.5429730000000  0.5380320000000 1.0
C      1  0.4501110000000  0.4787480000000  0.5046900000000 1.0
C      1  0.4426230000000  0.4549800000000  0.4931090000000 1.0
C      1  0.5616450000000  0.4708890000000  0.5043390000000 1.0
C      1  0.5244460000000  0.5396100000000  0.4519000000000 1.0
C      1  0.5316150000000  0.4803910000000  0.5652240000000 1.0
C      1  0.5217770000000  0.4361230000000  0.5139070000000 1.0
C      1  0.5633860000000  0.5176930000000  0.5087860000000 1.0
C      1  0.4795370000000  0.5202350000000  0.5722700000000 1.0
C      1  0.5180100000000  0.5395310000000  0.5129800000000 1.0
C      1  0.5037250000000  0.5285320000000  0.4387810000000 1.0
C      1  0.4912300000000  0.4702670000000  0.5720770000000 1.0
C      1  0.4537070000000  0.5133860000000  0.5733210000000 1.0
C      1  0.5166520000000  0.5022770000000  0.4771060000000 1.0
C      1  0.4923120000000  0.4641190000000  0.4850430000000 1.0
C      1  0.5615870000000  0.4934790000000  0.5236840000000 1.0
END
