TITL C-38719-9585-11 -29.1297825977823 125000 -675.056641088271 0 0 99 (C1) n - 1
REM
REM in /rds/project/t2_vol4/rds-t2-cs072/BORA/CARBON/from-Arr/AIRSS/Generating-Clusters/GAP-ML-2020/Higher-Symm/SD-CG/HFTN-CG
REM
REM
REM
REM
REM
REM ./C.cell (b20cbc046b6831c77cfcea5457e17084)
REM AIRSS Version 0.9.1 bugfix July 2018 build 013d7b7c2542+ Fri, 06 Jul 2018 19:26:36 +0100
REM compiler GCC version 9.3.0
REM options -cpp -mtune=generic -march=x86-64 -g -O0
REM seed 1471661664 -1978207414 1762698977 -630998713 1467288215 1257265185 -1449753193 -1961995970 -1272269239 -347955359 -491254275 -1713042937 -175925019 -581730804 -1298889151 -1118282183 1150963703 -78253683 1736444344 1553022069 -1934383889 -2079280230 2047013597 1341753022 -740650691 708293573 1397163902 -94385003 -382804156 -1538232080 -2108679199 -2007265099 -1642070748
REM
CELL 1.54180   50.00000   50.00000   50.00000   90.00000   90.00000   90.00000
LATT -1
SFAC C  
C      1  0.4573480000000  0.5592650000000  0.4753160000000 1.0
C      1  0.4566790000000  0.5562200000000  0.5312540000000 1.0
C      1  0.4564170000000  0.5106340000000  0.5637340000000 1.0
C      1  0.4564280000000  0.4568900000000  0.5483500000000 1.0
C      1  0.4565290000000  0.4354220000000  0.4967300000000 1.0
C      1  0.4570190000000  0.4624010000000  0.4476770000000 1.0
C      1  0.4576610000000  0.5175540000000  0.4382100000000 1.0
C      1  0.5250710000000  0.5322560000000  0.4446630000000 1.0
C      1  0.5237940000000  0.5647420000000  0.4913220000000 1.0
C      1  0.5231990000000  0.5478290000000  0.5458460000000 1.0
C      1  0.5234070000000  0.4943970000000  0.5661430000000 1.0
C      1  0.5233920000000  0.4449880000000  0.5373440000000 1.0
C      1  0.5231860000000  0.4363460000000  0.4808910000000 1.0
C      1  0.5238420000000  0.4754890000000  0.4393480000000 1.0
C      1  0.4990870000000  0.4184750000000  0.4705150000000 1.0
C      1  0.4999650000000  0.4724810000000  0.4187120000000 1.0
C      1  0.5009070000000  0.5463410000000  0.4286990000000 1.0
C      1  0.4996140000000  0.5856080000000  0.4923990000000 1.0
C      1  0.4989780000000  0.5596240000000  0.5626310000000 1.0
C      1  0.4989720000000  0.4885570000000  0.5858620000000 1.0
C      1  0.4989890000000  0.4258410000000  0.5450730000000 1.0
C      1  0.4955170000000  0.5826360000000  0.5205470000000 1.0
C      1  0.4950690000000  0.5357080000000  0.5778400000000 1.0
C      1  0.4951450000000  0.4617370000000  0.5767580000000 1.0
C      1  0.4951230000000  0.4162300000000  0.5184310000000 1.0
C      1  0.4955130000000  0.4335010000000  0.4464140000000 1.0
C      1  0.4966070000000  0.5006580000000  0.4153640000000 1.0
C      1  0.4968050000000  0.5666300000000  0.4483540000000 1.0
C      1  0.4705890000000  0.4229430000000  0.4744460000000 1.0
C      1  0.4713680000000  0.4721140000000  0.4242060000000 1.0
C      1  0.4721680000000  0.5419050000000  0.4312720000000 1.0
C      1  0.4711360000000  0.5801170000000  0.4902820000000 1.0
C      1  0.4705030000000  0.5576210000000  0.5568950000000 1.0
C      1  0.4704200000000  0.4915830000000  0.5808260000000 1.0
C      1  0.4704450000000  0.4316730000000  0.5441930000000 1.0
C      1  0.5832930000000  0.4839360000000  0.5277400000000 1.0
C      1  0.5835740000000  0.4671810000000  0.5042370000000 1.0
C      1  0.5848670000000  0.4733710000000  0.4763330000000 1.0
C      1  0.5890940000000  0.4986170000000  0.4628050000000 1.0
C      1  0.5891300000000  0.5327110000000  0.4824860000000 1.0
C      1  0.5849020000000  0.5336790000000  0.5111030000000 1.0
C      1  0.5836010000000  0.5126610000000  0.5304650000000 1.0
C      1  0.5647520000000  0.5529020000000  0.5171990000000 1.0
C      1  0.5645520000000  0.5199780000000  0.5511510000000 1.0
C      1  0.5645880000000  0.4729460000000  0.5468210000000 1.0
C      1  0.5645360000000  0.4456060000000  0.5082930000000 1.0
C      1  0.5647480000000  0.4584000000000  0.4627430000000 1.0
C      1  0.5659910000000  0.5028480000000  0.4459560000000 1.0
C      1  0.5660430000000  0.5451290000000  0.4703350000000 1.0
C      1  0.5112320000000  0.4685170000000  0.5511070000000 1.0
C      1  0.5111250000000  0.4405610000000  0.5078270000000 1.0
C      1  0.5112780000000  0.4569920000000  0.4590870000000 1.0
C      1  0.5122220000000  0.5054930000000  0.4419150000000 1.0
C      1  0.5123120000000  0.5490660000000  0.4687420000000 1.0
C      1  0.5112160000000  0.5559030000000  0.5197830000000 1.0
C      1  0.5110700000000  0.5197960000000  0.5565090000000 1.0
C      1  0.4674930000000  0.5800160000000  0.5186890000000 1.0
C      1  0.4670590000000  0.5353330000000  0.5745470000000 1.0
C      1  0.4670870000000  0.4638640000000  0.5744230000000 1.0
C      1  0.4670880000000  0.4194130000000  0.5185320000000 1.0
C      1  0.4674740000000  0.4353720000000  0.4488380000000 1.0
C      1  0.4685130000000  0.4999160000000  0.4179520000000 1.0
C      1  0.4686700000000  0.5641290000000  0.4489940000000 1.0
C      1  0.4194990000000  0.5404810000000  0.4569260000000 1.0
C      1  0.4190820000000  0.5585060000000  0.5047320000000 1.0
C      1  0.4185810000000  0.5324600000000  0.5487700000000 1.0
C      1  0.4184880000000  0.4818980000000  0.5560770000000 1.0
C      1  0.4185030000000  0.4448780000000  0.5209180000000 1.0
C      1  0.4187930000000  0.4493790000000  0.4699890000000 1.0
C      1  0.4194720000000  0.4918430000000  0.4414530000000 1.0
C      1  0.4645970000000  0.4786060000000  0.4730660000000 1.0
C      1  0.4648750000000  0.5078290000000  0.4667730000000 1.0
C      1  0.4648310000000  0.5309800000000  0.4856920000000 1.0
C      1  0.4644720000000  0.5305710000000  0.5155930000000 1.0
C      1  0.4643060000000  0.5069580000000  0.5339330000000 1.0
C      1  0.4643150000000  0.4779020000000  0.5269180000000 1.0
C      1  0.4643960000000  0.4652870000000  0.4998250000000 1.0
C      1  0.5537410000000  0.5292960000000  0.4490670000000 1.0
C      1  0.5521050000000  0.5599980000000  0.4917590000000 1.0
C      1  0.5515240000000  0.5448830000000  0.5424880000000 1.0
C      1  0.5517090000000  0.4953160000000  0.5611130000000 1.0
C      1  0.5517000000000  0.4493370000000  0.5345960000000 1.0
C      1  0.5515110000000  0.4405740000000  0.4823530000000 1.0
C      1  0.5520950000000  0.4768650000000  0.4437570000000 1.0
C      1  0.4273050000000  0.5560050000000  0.4787090000000 1.0
C      1  0.4267130000000  0.5512370000000  0.5305510000000 1.0
C      1  0.4264680000000  0.5079000000000  0.5593610000000 1.0
C      1  0.4264650000000  0.4584080000000  0.5433750000000 1.0
C      1  0.4265840000000  0.4402750000000  0.4946320000000 1.0
C      1  0.4270750000000  0.4669380000000  0.4499570000000 1.0
C      1  0.4276190000000  0.5184740000000  0.4427620000000 1.0
C      1  0.4960940000000  0.5310580000000  0.5117790000000 1.0
C      1  0.4959410000000  0.5104630000000  0.5321100000000 1.0
C      1  0.4960090000000  0.4817200000000  0.5286490000000 1.0
C      1  0.4960050000000  0.4664040000000  0.5040890000000 1.0
C      1  0.4961390000000  0.4760590000000  0.4768150000000 1.0
C      1  0.4964280000000  0.5034290000000  0.4674680000000 1.0
C      1  0.4964250000000  0.5278680000000  0.4830190000000 1.0
C      1  0.6079320000000  0.5179120000000  0.4687350000000 1.0
END
