TITL C-38516-6160-9 -0.0672565679885909 125000 -482.562309790879 0 0 72 (S4) n - 1
REM
REM in /rds/project/t2_vol4/rds-t2-cs072/BORA/CARBON/from-Arr/AIRSS/Generating-Clusters/GAP-ML-2020/Higher-Symm/SD-CG/HFTN-CG
REM
REM
REM
REM
REM
REM ./C.cell (b20cbc046b6831c77cfcea5457e17084)
REM AIRSS Version 0.9.1 bugfix July 2018 build 013d7b7c2542+ Fri, 06 Jul 2018 19:26:36 +0100
REM compiler GCC version 9.3.0
REM options -cpp -mtune=generic -march=x86-64 -g -O0
REM seed -2102297623 -1168780149 187182593 920764612 1682599448 1507172166 -2057002238 1523720594 568238408 -416945647 -1500469825 -1878252648 464931322 -1030710498 -2006156422 -1786889730 223115928 -114649819 -2032730422 122374878 -321157680 1060745814 -883836789 -2081244647 -1476386871 -957225895 -159987601 2039766893 147174000 -1114453260 -592331089 -1699219041 -918604384
REM
CELL 1.54180   50.00000   50.00000   50.00000   90.00000   90.00000   90.00000
LATT -1
SFAC C  
C      1  0.4934390000000  0.4844050000000  0.4719930000000 1.0
C      1  0.4719280000000  0.5154610000000  0.5066010000000 1.0
C      1  0.5066650000000  0.4844940000000  0.5280320000000 1.0
C      1  0.5279670000000  0.5156390000000  0.4933740000000 1.0
C      1  0.5313540000000  0.5631840000000  0.5014320000000 1.0
C      1  0.5016950000000  0.4369030000000  0.4684840000000 1.0
C      1  0.4682220000000  0.5629690000000  0.4984670000000 1.0
C      1  0.4987290000000  0.4369440000000  0.5316170000000 1.0
C      1  0.5742930000000  0.5100780000000  0.5626860000000 1.0
C      1  0.5627270000000  0.4903730000000  0.4256820000000 1.0
C      1  0.4256420000000  0.5094780000000  0.4372980000000 1.0
C      1  0.4373390000000  0.4900710000000  0.5743340000000 1.0
C      1  0.4584570000000  0.5302990000000  0.5521500000000 1.0
C      1  0.5522760000000  0.4698120000000  0.5414660000000 1.0
C      1  0.5413390000000  0.5304940000000  0.4478010000000 1.0
C      1  0.4479280000000  0.4693950000000  0.4585830000000 1.0
C      1  0.5776500000000  0.5199670000000  0.5371210000000 1.0
C      1  0.5372030000000  0.4803860000000  0.4223000000000 1.0
C      1  0.4222180000000  0.5193850000000  0.4628480000000 1.0
C      1  0.4629300000000  0.4802620000000  0.5777320000000 1.0
C      1  0.4911770000000  0.4586560000000  0.4865680000000 1.0
C      1  0.4863960000000  0.5412650000000  0.5089280000000 1.0
C      1  0.5091000000000  0.4587380000000  0.5134980000000 1.0
C      1  0.5133260000000  0.5413410000000  0.4910050000000 1.0
C      1  0.5724960000000  0.5060680000000  0.5126510000000 1.0
C      1  0.5126750000000  0.4941700000000  0.4274890000000 1.0
C      1  0.4274650000000  0.5055610000000  0.4873400000000 1.0
C      1  0.4873640000000  0.4942010000000  0.5725210000000 1.0
C      1  0.5090690000000  0.4498040000000  0.4446820000000 1.0
C      1  0.4444740000000  0.5499880000000  0.4910600000000 1.0
C      1  0.4912690000000  0.4498330000000  0.5553980000000 1.0
C      1  0.5551890000000  0.5503740000000  0.5088600000000 1.0
C      1  0.4454760000000  0.4817270000000  0.4842640000000 1.0
C      1  0.4841890000000  0.5180680000000  0.5545700000000 1.0
C      1  0.5546450000000  0.4821190000000  0.5157650000000 1.0
C      1  0.5156900000000  0.5180860000000  0.4454010000000 1.0
C      1  0.4524580000000  0.5032050000000  0.4369690000000 1.0
C      1  0.4369830000000  0.4964110000000  0.5475340000000 1.0
C      1  0.5475190000000  0.5036260000000  0.5630260000000 1.0
C      1  0.5630400000000  0.4967580000000  0.4524720000000 1.0
C      1  0.5353770000000  0.4598010000000  0.4432530000000 1.0
C      1  0.4430860000000  0.5400530000000  0.4647260000000 1.0
C      1  0.4648940000000  0.4596550000000  0.5568110000000 1.0
C      1  0.5566430000000  0.5404910000000  0.5352090000000 1.0
C      1  0.5125070000000  0.4224680000000  0.4894340000000 1.0
C      1  0.4891110000000  0.5775190000000  0.4876910000000 1.0
C      1  0.4880140000000  0.4224020000000  0.5106910000000 1.0
C      1  0.5103680000000  0.5776110000000  0.5121840000000 1.0
C      1  0.4639490000000  0.4770400000000  0.4373540000000 1.0
C      1  0.4372590000000  0.5226070000000  0.5361090000000 1.0
C      1  0.5362040000000  0.4773840000000  0.5626830000000 1.0
C      1  0.5625880000000  0.5229700000000  0.4638540000000 1.0
C      1  0.5075630000000  0.5360690000000  0.5489670000000 1.0
C      1  0.5491160000000  0.4641550000000  0.4923440000000 1.0
C      1  0.4921950000000  0.5359380000000  0.4509760000000 1.0
C      1  0.4511260000000  0.4638380000000  0.5077130000000 1.0
C      1  0.4690960000000  0.4435730000000  0.5003990000000 1.0
C      1  0.5001640000000  0.5563490000000  0.5310480000000 1.0
C      1  0.5312830000000  0.4437810000000  0.4996920000000 1.0
C      1  0.4994570000000  0.5562970000000  0.4688610000000 1.0
C      1  0.4402870000000  0.5244630000000  0.5066760000000 1.0
C      1  0.5067790000000  0.4754120000000  0.5596510000000 1.0
C      1  0.5595480000000  0.5248530000000  0.4932840000000 1.0
C      1  0.4933870000000  0.4752720000000  0.4403890000000 1.0
C      1  0.5202180000000  0.4975470000000  0.4711240000000 1.0
C      1  0.4711140000000  0.5023850000000  0.4797890000000 1.0
C      1  0.4797990000000  0.4974570000000  0.5288800000000 1.0
C      1  0.5288690000000  0.5026110000000  0.5202070000000 1.0
C      1  0.5337260000000  0.5227860000000  0.5437860000000 1.0
C      1  0.5438800000000  0.4774830000000  0.4662160000000 1.0
C      1  0.4661220000000  0.5224880000000  0.4561780000000 1.0
C      1  0.4562720000000  0.4772430000000  0.5338210000000 1.0
END
