TITL C-38740-9475-1 -336.404612850779 125000 -816.02770573746 0 0 117 (C1) n - 1
REM
REM in /rds/project/t2_vol4/rds-t2-cs072/BORA/CARBON/from-Arr/AIRSS/Generating-Clusters/GAP-ML-2020/Higher-Symm/SD-CG/HFTN-CG
REM
REM
REM
REM
REM
REM ./C.cell (b20cbc046b6831c77cfcea5457e17084)
REM AIRSS Version 0.9.1 bugfix July 2018 build 013d7b7c2542+ Fri, 06 Jul 2018 19:26:36 +0100
REM compiler GCC version 9.3.0
REM options -cpp -mtune=generic -march=x86-64 -g -O0
REM seed -658090877 656918107 519735511 294967645 -390590086 296384547 1084256520 -462830110 1093433863 869424294 -2038158605 -1376035795 1600172918 -1970803811 -4640255 219076411 2080095757 1741334417 1039246897 -1486141046 742506773 762714357 -120529079 -8129542 806476179 1041008983 1048070274 -1023076478 -54818085 -654579862 1998464610 1084426600 1790398615
REM
CELL 1.54180   50.00000   50.00000   50.00000   90.00000   90.00000   90.00000
LATT -1
SFAC C  
C      1  0.5348280000000  0.4828770000000  0.5907910000000 1.0
C      1  0.4731290000000  0.4197500000000  0.4862970000000 1.0
C      1  0.5216340000000  0.5156710000000  0.5336160000000 1.0
C      1  0.4673710000000  0.5174480000000  0.5794880000000 1.0
C      1  0.5094630000000  0.5892050000000  0.4860220000000 1.0
C      1  0.5364340000000  0.4948320000000  0.4677110000000 1.0
C      1  0.5416470000000  0.5161740000000  0.4879000000000 1.0
C      1  0.5337710000000  0.5391510000000  0.4388450000000 1.0
C      1  0.4657990000000  0.4185990000000  0.5135360000000 1.0
C      1  0.5509460000000  0.5746830000000  0.5020920000000 1.0
C      1  0.4199340000000  0.4731080000000  0.4896360000000 1.0
C      1  0.5349620000000  0.5808120000000  0.5245330000000 1.0
C      1  0.5851270000000  0.5183260000000  0.4712780000000 1.0
C      1  0.4953140000000  0.4484040000000  0.5783660000000 1.0
C      1  0.4420130000000  0.4540840000000  0.5388000000000 1.0
C      1  0.5371490000000  0.4493630000000  0.4208530000000 1.0
C      1  0.5720660000000  0.4943860000000  0.5462690000000 1.0
C      1  0.5627440000000  0.4543310000000  0.4345280000000 1.0
C      1  0.5300190000000  0.4747030000000  0.4102190000000 1.0
C      1  0.5575860000000  0.4367930000000  0.5107560000000 1.0
C      1  0.4445760000000  0.5512610000000  0.5548870000000 1.0
C      1  0.5229630000000  0.4431290000000  0.5655410000000 1.0
C      1  0.4611400000000  0.5378090000000  0.4276070000000 1.0
C      1  0.4786700000000  0.5078460000000  0.4755040000000 1.0
C      1  0.5415560000000  0.5116630000000  0.4405240000000 1.0
C      1  0.5638530000000  0.4656120000000  0.5525100000000 1.0
C      1  0.4553750000000  0.4939380000000  0.4169600000000 1.0
C      1  0.5015410000000  0.4765930000000  0.4106690000000 1.0
C      1  0.4887560000000  0.5771600000000  0.5539000000000 1.0
C      1  0.4904970000000  0.4974770000000  0.5750710000000 1.0
C      1  0.4066960000000  0.4892690000000  0.5103700000000 1.0
C      1  0.5152340000000  0.4103330000000  0.5282270000000 1.0
C      1  0.5902570000000  0.5030210000000  0.4965420000000 1.0
C      1  0.4439280000000  0.5226700000000  0.5632280000000 1.0
C      1  0.4596260000000  0.4682160000000  0.4577190000000 1.0
C      1  0.5391810000000  0.5648840000000  0.5478730000000 1.0
C      1  0.4818710000000  0.5767110000000  0.4480480000000 1.0
C      1  0.4580290000000  0.5802890000000  0.5162990000000 1.0
C      1  0.5728100000000  0.4813910000000  0.4320670000000 1.0
C      1  0.4840900000000  0.4882840000000  0.4533060000000 1.0
C      1  0.5163330000000  0.4676830000000  0.5478290000000 1.0
C      1  0.4149050000000  0.5151630000000  0.5235320000000 1.0
C      1  0.5131800000000  0.4364730000000  0.4312570000000 1.0
C      1  0.3986320000000  0.4730190000000  0.5318540000000 1.0
C      1  0.4847890000000  0.4987890000000  0.4214910000000 1.0
C      1  0.5851690000000  0.4805980000000  0.4791320000000 1.0
C      1  0.5070930000000  0.5425880000000  0.5766170000000 1.0
C      1  0.4914000000000  0.5326560000000  0.4734740000000 1.0
C      1  0.4363980000000  0.4888470000000  0.4711380000000 1.0
C      1  0.5568530000000  0.4708250000000  0.4782000000000 1.0
C      1  0.4346310000000  0.4492950000000  0.4954920000000 1.0
C      1  0.5602890000000  0.4461710000000  0.4607530000000 1.0
C      1  0.4997380000000  0.5398800000000  0.4985310000000 1.0
C      1  0.5693910000000  0.5535530000000  0.5024090000000 1.0
C      1  0.4221490000000  0.4736040000000  0.5445430000000 1.0
C      1  0.4877880000000  0.4712470000000  0.5566780000000 1.0
C      1  0.5393210000000  0.5074580000000  0.5788660000000 1.0
C      1  0.4377020000000  0.5621760000000  0.5296030000000 1.0
C      1  0.5867260000000  0.4940630000000  0.4537780000000 1.0
C      1  0.4285350000000  0.5137950000000  0.4539300000000 1.0
C      1  0.4533500000000  0.5055010000000  0.4913670000000 1.0
C      1  0.5202560000000  0.4052530000000  0.5002750000000 1.0
C      1  0.5581240000000  0.4391350000000  0.5384340000000 1.0
C      1  0.4473710000000  0.5562120000000  0.4723630000000 1.0
C      1  0.4215590000000  0.5400390000000  0.4662870000000 1.0
C      1  0.4927040000000  0.4888910000000  0.4933810000000 1.0
C      1  0.4908670000000  0.4523320000000  0.4214460000000 1.0
C      1  0.4809640000000  0.5114130000000  0.5283050000000 1.0
C      1  0.5592800000000  0.5427010000000  0.5488500000000 1.0
C      1  0.4676720000000  0.5628430000000  0.5671350000000 1.0
C      1  0.5828150000000  0.5099020000000  0.5232300000000 1.0
C      1  0.5089460000000  0.5905630000000  0.5144180000000 1.0
C      1  0.5336510000000  0.4244390000000  0.5469120000000 1.0
C      1  0.4769530000000  0.5364670000000  0.5160580000000 1.0
C      1  0.4944600000000  0.4570760000000  0.6039770000000 1.0
C      1  0.5164360000000  0.4255880000000  0.4586080000000 1.0
C      1  0.4335290000000  0.5038170000000  0.5429910000000 1.0
C      1  0.5090540000000  0.5456830000000  0.4249290000000 1.0
C      1  0.4836340000000  0.5880710000000  0.5285930000000 1.0
C      1  0.5454090000000  0.4167300000000  0.4939920000000 1.0
C      1  0.4594630000000  0.5794130000000  0.4879740000000 1.0
C      1  0.4621940000000  0.4563020000000  0.4297210000000 1.0
C      1  0.5749460000000  0.5382640000000  0.5257300000000 1.0
C      1  0.5061060000000  0.4799330000000  0.5950290000000 1.0
C      1  0.5099410000000  0.4793160000000  0.4694110000000 1.0
C      1  0.5211190000000  0.4688910000000  0.5197580000000 1.0
C      1  0.5448890000000  0.4237390000000  0.4670730000000 1.0
C      1  0.5479000000000  0.4638190000000  0.5048450000000 1.0
C      1  0.4569760000000  0.4958080000000  0.5238130000000 1.0
C      1  0.5232980000000  0.5258830000000  0.5075430000000 1.0
C      1  0.5445200000000  0.4625470000000  0.5734740000000 1.0
C      1  0.5144480000000  0.5162820000000  0.5668780000000 1.0
C      1  0.5633280000000  0.5373570000000  0.4776330000000 1.0
C      1  0.5353920000000  0.5761920000000  0.4777760000000 1.0
C      1  0.5142250000000  0.5654760000000  0.5617260000000 1.0
C      1  0.5114110000000  0.4504340000000  0.4774820000000 1.0
C      1  0.4864710000000  0.5283560000000  0.4192200000000 1.0
C      1  0.5069380000000  0.4961580000000  0.5191310000000 1.0
C      1  0.4797750000000  0.5426410000000  0.5822910000000 1.0
C      1  0.4074190000000  0.5466130000000  0.4882620000000 1.0
C      1  0.5604110000000  0.5159790000000  0.5623150000000 1.0
C      1  0.4419790000000  0.4341320000000  0.5190550000000 1.0
C      1  0.5498830000000  0.4937040000000  0.4200970000000 1.0
C      1  0.4668760000000  0.4691830000000  0.5322520000000 1.0
C      1  0.5037520000000  0.5709720000000  0.4338220000000 1.0
C      1  0.4831370000000  0.5878490000000  0.4741240000000 1.0
C      1  0.4430670000000  0.5157970000000  0.4302990000000 1.0
C      1  0.5450610000000  0.5545970000000  0.4605750000000 1.0
C      1  0.4232080000000  0.5415510000000  0.5122060000000 1.0
C      1  0.4786530000000  0.4645510000000  0.5034260000000 1.0
C      1  0.4464060000000  0.4693260000000  0.4111130000000 1.0
C      1  0.4609530000000  0.4493010000000  0.4816410000000 1.0
C      1  0.4600920000000  0.5588460000000  0.4463530000000 1.0
C      1  0.5030950000000  0.4494660000000  0.5066330000000 1.0
C      1  0.4506640000000  0.5347760000000  0.4984380000000 1.0
C      1  0.4912470000000  0.4249330000000  0.5247240000000 1.0
C      1  0.5001160000000  0.4108150000000  0.4791080000000 1.0
END
