TITL C-38626-715-4 -0.238218258498693 125000 -782.681585954723 0 0 113 (Cs) n - 1
REM
REM in /rds/project/t2_vol4/rds-t2-cs072/BORA/CARBON/from-Arr/AIRSS/Generating-Clusters/GAP-ML-2020/Higher-Symm/SD-CG/HFTN-CG
REM
REM
REM
REM
REM
REM ./C.cell (b20cbc046b6831c77cfcea5457e17084)
REM AIRSS Version 0.9.1 bugfix July 2018 build 013d7b7c2542+ Fri, 06 Jul 2018 19:26:36 +0100
REM compiler GCC version 9.3.0
REM options -cpp -mtune=generic -march=x86-64 -g -O0
REM seed -1333814514 1166559056 -583122977 -4997454 -967942972 76576670 -1734576875 -401270463 2008732998 1520743699 -1627801710 -471139763 1714082492 869508785 468473871 -1945579864 1110123227 -1152242952 -1739648208 -1106034342 -854305266 -188944942 -518760991 -1798482644 1705048687 -875772766 1914829828 -879927007 249012935 950205087 -856178621 1400029589 701271897
REM
CELL 1.54180   50.00000   50.00000   50.00000   90.00000   90.00000   90.00000
LATT -1
SFAC C  
C      1  0.4356460000000  0.4633980000000  0.5642080000000 1.0
C      1  0.5638960000000  0.5361290000000  0.5642860000000 1.0
C      1  0.4356880000000  0.4635020000000  0.4360220000000 1.0
C      1  0.5639380000000  0.5362330000000  0.4361480000000 1.0
C      1  0.4673410000000  0.5323020000000  0.4861850000000 1.0
C      1  0.5342500000000  0.4624710000000  0.4855430000000 1.0
C      1  0.4673320000000  0.5322790000000  0.5141770000000 1.0
C      1  0.5342400000000  0.4624480000000  0.5147520000000 1.0
C      1  0.4727150000000  0.5748660000000  0.5365860000000 1.0
C      1  0.5272030000000  0.4248490000000  0.5383010000000 1.0
C      1  0.4727390000000  0.5749240000000  0.4638490000000 1.0
C      1  0.5272290000000  0.4249100000000  0.4619280000000 1.0
C      1  0.5232940000000  0.4636290000000  0.5658700000000 1.0
C      1  0.4775700000000  0.5356510000000  0.5651290000000 1.0
C      1  0.5233380000000  0.4637350000000  0.4344190000000 1.0
C      1  0.4776130000000  0.5357550000000  0.4352450000000 1.0
C      1  0.5458340000000  0.5559140000000  0.5538380000000 1.0
C      1  0.4540350000000  0.4437450000000  0.5538390000000 1.0
C      1  0.5458700000000  0.5560000000000  0.4466150000000 1.0
C      1  0.4540710000000  0.4438320000000  0.4463720000000 1.0
C      1  0.4214290000000  0.5419840000000  0.4700560000000 1.0
C      1  0.5809780000000  0.4581360000000  0.4689450000000 1.0
C      1  0.4214090000000  0.5419350000000  0.5302920000000 1.0
C      1  0.5809570000000  0.4580860000000  0.5313750000000 1.0
C      1  0.5050310000000  0.5354090000000  0.4323010000000 1.0
C      1  0.4957100000000  0.4642250000000  0.4320090000000 1.0
C      1  0.5049850000000  0.5352990000000  0.5680920000000 1.0
C      1  0.4956650000000  0.4641150000000  0.5682630000000 1.0
C      1  0.4966890000000  0.4319250000000  0.4677830000000 1.0
C      1  0.5034700000000  0.5673380000000  0.4686520000000 1.0
C      1  0.4966670000000  0.4318730000000  0.5324380000000 1.0
C      1  0.5034490000000  0.5672870000000  0.5317910000000 1.0
C      1  0.4730920000000  0.4232890000000  0.4855370000000 1.0
C      1  0.5272000000000  0.5762520000000  0.4857900000000 1.0
C      1  0.4730820000000  0.4232650000000  0.5146540000000 1.0
C      1  0.5271910000000  0.5762290000000  0.5146840000000 1.0
C      1  0.4540600000000  0.5794430000000  0.4851260000000 1.0
C      1  0.5445830000000  0.4298960000000  0.4845710000000 1.0
C      1  0.4540500000000  0.5794190000000  0.5153040000000 1.0
C      1  0.5445720000000  0.4298710000000  0.5156780000000 1.0
C      1  0.4620690000000  0.4840710000000  0.4859180000000 1.0
C      1  0.5394630000000  0.5132890000000  0.4859500000000 1.0
C      1  0.4620590000000  0.4840480000000  0.5143630000000 1.0
C      1  0.5394530000000  0.5132660000000  0.5144300000000 1.0
C      1  0.4887820000000  0.4904980000000  0.5545440000000 1.0
C      1  0.5126410000000  0.5088460000000  0.5544760000000 1.0
C      1  0.4888190000000  0.4905860000000  0.4457650000000 1.0
C      1  0.5126780000000  0.5089340000000  0.4458790000000 1.0
C      1  0.4227310000000  0.5142840000000  0.5159990000000 1.0
C      1  0.5785280000000  0.4852690000000  0.5163700000000 1.0
C      1  0.4227410000000  0.5143100000000  0.4843040000000 1.0
C      1  0.5785390000000  0.4852950000000  0.4839910000000 1.0
C      1  0.5920220000000  0.5350720000000  0.4860360000000 1.0
C      1  0.4084860000000  0.4646980000000  0.4859100000000 1.0
C      1  0.5920120000000  0.5350490000000  0.5144150000000 1.0
C      1  0.4084760000000  0.4646760000000  0.5143040000000 1.0
C      1  0.4089720000000  0.4895940000000  0.5274810000000 1.0
C      1  0.5912730000000  0.5102490000000  0.5277580000000 1.0
C      1  0.4089900000000  0.4896380000000  0.4727740000000 1.0
C      1  0.5912910000000  0.5102940000000  0.4726520000000 1.0
C      1  0.5474090000000  0.4875980000000  0.4743130000000 1.0
C      1  0.4539400000000  0.5094500000000  0.4744710000000 1.0
C      1  0.5473920000000  0.4875560000000  0.5260310000000 1.0
C      1  0.4539230000000  0.5094090000000  0.5258460000000 1.0
C      1  0.5837970000000  0.5203900000000  0.4472020000000 1.0
C      1  0.4157040000000  0.4793520000000  0.4471230000000 1.0
C      1  0.5837620000000  0.5203040000000  0.5532190000000 1.0
C      1  0.4156680000000  0.4792670000000  0.5531200000000 1.0
C      1  0.5658700000000  0.4574050000000  0.5561310000000 1.0
C      1  0.4354070000000  0.5420860000000  0.5552610000000 1.0
C      1  0.5659080000000  0.4574950000000  0.4441770000000 1.0
C      1  0.4354440000000  0.5421740000000  0.4450960000000 1.0
C      1  0.4606530000000  0.5565120000000  0.4441550000000 1.0
C      1  0.5403480000000  0.4429630000000  0.4424900000000 1.0
C      1  0.4606150000000  0.5564210000000  0.5562420000000 1.0
C      1  0.5403090000000  0.4428700000000  0.5577780000000 1.0
C      1  0.4487700000000  0.4315420000000  0.4718920000000 1.0
C      1  0.5513860000000  0.5679800000000  0.4721110000000 1.0
C      1  0.4487510000000  0.4314960000000  0.5282960000000 1.0
C      1  0.5513670000000  0.5679350000000  0.5283650000000 1.0
C      1  0.4819700000000  0.4420840000000  0.5572990000000 1.0
C      1  0.5178770000000  0.5576280000000  0.5569930000000 1.0
C      1  0.4820080000000  0.4421760000000  0.4429280000000 1.0
C      1  0.5179150000000  0.5577190000000  0.4434440000000 1.0
C      1  0.4888180000000  0.4806570000000  0.4767930000000 1.0
C      1  0.5131640000000  0.5181760000000  0.4766280000000 1.0
C      1  0.4888020000000  0.4806200000000  0.5235000000000 1.0
C      1  0.5131480000000  0.5181380000000  0.5237420000000 1.0
C      1  0.5356370000000  0.4887790000000  0.5563820000000 1.0
C      1  0.4654910000000  0.5100900000000  0.5564290000000 1.0
C      1  0.5356740000000  0.4888700000000  0.4439560000000 1.0
C      1  0.4655290000000  0.5101800000000  0.4438960000000 1.0
C      1  0.4286550000000  0.4914340000000  0.5744350000000 1.0
C      1  0.5716180000000  0.5081300000000  0.5750280000000 1.0
C      1  0.4287040000000  0.4915530000000  0.4258350000000 1.0
C      1  0.5716680000000  0.5082500000000  0.4253650000000 1.0
C      1  0.5734600000000  0.4367600000000  0.4857540000000 1.0
C      1  0.4283480000000  0.5642750000000  0.4858490000000 1.0
C      1  0.5734510000000  0.4367370000000  0.5145260000000 1.0
C      1  0.4283390000000  0.5642510000000  0.5145390000000 1.0
C      1  0.5744110000000  0.5592410000000  0.5144770000000 1.0
C      1  0.4257410000000  0.4401480000000  0.5143250000000 1.0
C      1  0.5744200000000  0.5592640000000  0.4860000000000 1.0
C      1  0.4257510000000  0.4401710000000  0.4858610000000 1.0
C      1  0.4968770000000  0.5409390000000  0.4843210000000 1.0
C      1  0.5041040000000  0.4571340000000  0.4843630000000 1.0
C      1  0.4968670000000  0.5409140000000  0.5160750000000 1.0
C      1  0.5040940000000  0.4571090000000  0.5159030000000 1.0
C      1  0.5609370000000  0.4833900000000  0.4295010000000 1.0
C      1  0.4400840000000  0.5162800000000  0.4301980000000 1.0
C      1  0.5608900000000  0.4832770000000  0.5708450000000 1.0
C      1  0.4400370000000  0.5161670000000  0.5701200000000 1.0
C      1  0.5014310000000  0.4985460000000  0.5001650000000 1.0
END
