TITL C-38736-9290-12 -0.208770668462262 125000 -654.726910403715 0 0 95 (C5) n - 1
REM
REM in /rds/project/t2_vol4/rds-t2-cs072/BORA/CARBON/from-Arr/AIRSS/Generating-Clusters/GAP-ML-2020/Higher-Symm/SD-CG/HFTN-CG
REM
REM
REM
REM
REM
REM ./C.cell (b20cbc046b6831c77cfcea5457e17084)
REM AIRSS Version 0.9.1 bugfix July 2018 build 013d7b7c2542+ Fri, 06 Jul 2018 19:26:36 +0100
REM compiler GCC version 9.3.0
REM options -cpp -mtune=generic -march=x86-64 -g -O0
REM seed 1507081133 1333471360 -1575533336 -1050368012 -1217140699 1598594778 495081130 364616055 276913382 -660808056 -973623072 -1677735624 -234901434 1882283552 1695181086 428763254 772018716 -2033668691 -124372194 -1981374730 -949941702 1768482614 1613149493 782913479 161728090 1366322288 1501206966 474084155 -1543116353 1890170518 -299133142 -1724065026 279611581
REM
CELL 1.54180   50.00000   50.00000   50.00000   90.00000   90.00000   90.00000
LATT -1
SFAC C  
C      1  0.4625840000000  0.4964870000000  0.5251700000000 1.0
C      1  0.4625860000000  0.5228570000000  0.5111190000000 1.0
C      1  0.4625880000000  0.5176420000000  0.4816980000000 1.0
C      1  0.4625870000000  0.4880500000000  0.4775660000000 1.0
C      1  0.4625840000000  0.4749760000000  0.5044330000000 1.0
C      1  0.4173570000000  0.4770940000000  0.5095690000000 1.0
C      1  0.4173580000000  0.5020320000000  0.5247430000000 1.0
C      1  0.4173610000000  0.5241700000000  0.5057140000000 1.0
C      1  0.4173620000000  0.5129130000000  0.4787790000000 1.0
C      1  0.4173600000000  0.4838180000000  0.4811620000000 1.0
C      1  0.4657680000000  0.5779110000000  0.5275910000000 1.0
C      1  0.4657730000000  0.5503210000000  0.4344280000000 1.0
C      1  0.4657670000000  0.4531920000000  0.4318800000000 1.0
C      1  0.4657580000000  0.4207530000000  0.5234670000000 1.0
C      1  0.4657580000000  0.4978340000000  0.5826200000000 1.0
C      1  0.5504640000000  0.4841110000000  0.5652230000000 1.0
C      1  0.5504710000000  0.5571150000000  0.5352660000000 1.0
C      1  0.5504770000000  0.5511840000000  0.4565780000000 1.0
C      1  0.5504740000000  0.4745130000000  0.4379030000000 1.0
C      1  0.5504660000000  0.4330600000000  0.5050500000000 1.0
C      1  0.4863740000000  0.5334490000000  0.5241320000000 1.0
C      1  0.4863770000000  0.5332880000000  0.4756450000000 1.0
C      1  0.4863760000000  0.4871260000000  0.4608150000000 1.0
C      1  0.4863710000000  0.4587560000000  0.5001350000000 1.0
C      1  0.4863690000000  0.4873850000000  0.5392670000000 1.0
C      1  0.5249580000000  0.4465810000000  0.5580590000000 1.0
C      1  0.5249630000000  0.5387070000000  0.5687460000000 1.0
C      1  0.5249730000000  0.5773390000000  0.4844310000000 1.0
C      1  0.5249730000000  0.5090890000000  0.4216350000000 1.0
C      1  0.5249640000000  0.4282760000000  0.4671390000000 1.0
C      1  0.5028060000000  0.4662570000000  0.4165690000000 1.0
C      1  0.5027950000000  0.4102250000000  0.5063100000000 1.0
C      1  0.5027930000000  0.4782580000000  0.5873310000000 1.0
C      1  0.5028030000000  0.5763380000000  0.5476640000000 1.0
C      1  0.5028110000000  0.5689200000000  0.4421280000000 1.0
C      1  0.4536230000000  0.4432550000000  0.5347010000000 1.0
C      1  0.4536250000000  0.5154730000000  0.5646910000000 1.0
C      1  0.4536330000000  0.5663120000000  0.5052760000000 1.0
C      1  0.4536360000000  0.5255150000000  0.4385640000000 1.0
C      1  0.4536300000000  0.4494610000000  0.4567500000000 1.0
C      1  0.5454430000000  0.4495560000000  0.5378100000000 1.0
C      1  0.5454460000000  0.5203660000000  0.5596580000000 1.0
C      1  0.5454540000000  0.5630260000000  0.4990660000000 1.0
C      1  0.5454560000000  0.5185820000000  0.4397690000000 1.0
C      1  0.5454490000000  0.4484540000000  0.4637150000000 1.0
C      1  0.4392650000000  0.4729870000000  0.4651280000000 1.0
C      1  0.4392600000000  0.4584950000000  0.5149160000000 1.0
C      1  0.4392600000000  0.5013670000000  0.5440840000000 1.0
C      1  0.4392650000000  0.5423560000000  0.5123230000000 1.0
C      1  0.4392680000000  0.5248160000000  0.4635260000000 1.0
C      1  0.5116580000000  0.4733420000000  0.5026090000000 1.0
C      1  0.5116570000000  0.4942420000000  0.5261600000000 1.0
C      1  0.5116600000000  0.5230990000000  0.5135600000000 1.0
C      1  0.5116630000000  0.5200330000000  0.4822220000000 1.0
C      1  0.5116610000000  0.4892810000000  0.4754540000000 1.0
C      1  0.5322390000000  0.4527780000000  0.5126680000000 1.0
C      1  0.5322390000000  0.4974520000000  0.5488250000000 1.0
C      1  0.5322450000000  0.5456440000000  0.5175110000000 1.0
C      1  0.5322480000000  0.5307550000000  0.4620010000000 1.0
C      1  0.5322450000000  0.4733600000000  0.4590070000000 1.0
C      1  0.5625860000000  0.4977580000000  0.4489490000000 1.0
C      1  0.5625800000000  0.4507470000000  0.4863560000000 1.0
C      1  0.5625770000000  0.4717960000000  0.5426250000000 1.0
C      1  0.5625810000000  0.5318160000000  0.5399950000000 1.0
C      1  0.5625870000000  0.5478610000000  0.4821000000000 1.0
C      1  0.4767320000000  0.4576240000000  0.5515110000000 1.0
C      1  0.4767370000000  0.5358980000000  0.5562200000000 1.0
C      1  0.4767440000000  0.5645650000000  0.4832320000000 1.0
C      1  0.4767440000000  0.5040070000000  0.4334140000000 1.0
C      1  0.4767370000000  0.4379140000000  0.4756130000000 1.0
C      1  0.4928860000000  0.5870280000000  0.5221390000000 1.0
C      1  0.4928910000000  0.5479490000000  0.4240730000000 1.0
C      1  0.4928840000000  0.4426070000000  0.4309350000000 1.0
C      1  0.4928740000000  0.4165800000000  0.5332420000000 1.0
C      1  0.4928750000000  0.5058380000000  0.5896090000000 1.0
C      1  0.4987760000000  0.4370150000000  0.5515350000000 1.0
C      1  0.4987800000000  0.5295490000000  0.5758270000000 1.0
C      1  0.4987900000000  0.5812470000000  0.4953290000000 1.0
C      1  0.4987910000000  0.5206640000000  0.4212860000000 1.0
C      1  0.4987830000000  0.4315240000000  0.4560230000000 1.0
C      1  0.4755110000000  0.5656450000000  0.5523440000000 1.0
C      1  0.4755190000000  0.5700700000000  0.4537430000000 1.0
C      1  0.4755160000000  0.4776630000000  0.4190650000000 1.0
C      1  0.4755060000000  0.4161270000000  0.4962340000000 1.0
C      1  0.4755030000000  0.4705030000000  0.5786050000000 1.0
C      1  0.5741770000000  0.4761900000000  0.4933110000000 1.0
C      1  0.5741750000000  0.4862710000000  0.5205770000000 1.0
C      1  0.5741770000000  0.5153190000000  0.5194150000000 1.0
C      1  0.5741800000000  0.5231890000000  0.4914300000000 1.0
C      1  0.5741790000000  0.4990060000000  0.4752970000000 1.0
C      1  0.5267620000000  0.4809450000000  0.4216310000000 1.0
C      1  0.5267520000000  0.4195760000000  0.4939050000000 1.0
C      1  0.5267490000000  0.4693470000000  0.5746040000000 1.0
C      1  0.5267570000000  0.5614780000000  0.5522060000000 1.0
C      1  0.5267650000000  0.5686460000000  0.4576640000000 1.0
END
