TITL C-38631-636-13 199.230865160803 125000 -1183.59751994195 0 0 162 (C1) n - 1
REM
REM in /rds/project/t2_vol4/rds-t2-cs072/BORA/CARBON/from-Arr/AIRSS/Generating-Clusters/GAP-ML-2020/Higher-Symm/SD-CG/HFTN-CG
REM
REM
REM
REM
REM
REM ./C.cell (b20cbc046b6831c77cfcea5457e17084)
REM AIRSS Version 0.9.1 bugfix July 2018 build 013d7b7c2542+ Fri, 06 Jul 2018 19:26:36 +0100
REM compiler GCC version 9.3.0
REM options -cpp -mtune=generic -march=x86-64 -g -O0
REM seed 1323159469 138703446 -1118020783 1904564343 524563154 925135769 -2013786955 1729808017 365097801 1666285330 1134345622 641048027 1687355004 -1299204749 -1401791846 -573305701 -994777520 1403293439 1068043431 1300671706 -32868949 -1184039368 505701245 156203463 751414828 1821700617 1814378811 408292045 -901555228 1357529464 869117737 -966288296 1921689455
REM
CELL 1.54180   50.00000   50.00000   50.00000   90.00000   90.00000   90.00000
LATT -1
SFAC C  
C      1  0.5255360000000  0.5883180000000  0.5241220000000 1.0
C      1  0.4956800000000  0.5867310000000  0.5312290000000 1.0
C      1  0.4719860000000  0.5882380000000  0.5114500000000 1.0
C      1  0.4724700000000  0.5898060000000  0.4817490000000 1.0
C      1  0.4959100000000  0.5907320000000  0.4638150000000 1.0
C      1  0.5242680000000  0.5912680000000  0.4712860000000 1.0
C      1  0.5379530000000  0.5898340000000  0.4970650000000 1.0
C      1  0.5797190000000  0.4355240000000  0.4949720000000 1.0
C      1  0.5539610000000  0.4349090000000  0.5591720000000 1.0
C      1  0.4877670000000  0.4343050000000  0.5788720000000 1.0
C      1  0.4307370000000  0.4344240000000  0.5393490000000 1.0
C      1  0.4258370000000  0.4357460000000  0.4707170000000 1.0
C      1  0.4773030000000  0.4345560000000  0.4239140000000 1.0
C      1  0.5456120000000  0.4366580000000  0.4348070000000 1.0
C      1  0.4726570000000  0.5333590000000  0.4832440000000 1.0
C      1  0.4960300000000  0.5339080000000  0.4689390000000 1.0
C      1  0.5222530000000  0.5343280000000  0.4777520000000 1.0
C      1  0.5326870000000  0.5346460000000  0.5033400000000 1.0
C      1  0.5180440000000  0.5330400000000  0.5268780000000 1.0
C      1  0.4914260000000  0.5236800000000  0.5263350000000 1.0
C      1  0.4699660000000  0.5329290000000  0.5106730000000 1.0
C      1  0.4427420000000  0.5026190000000  0.4937130000000 1.0
C      1  0.4696390000000  0.5018650000000  0.4531450000000 1.0
C      1  0.5173990000000  0.5016630000000  0.4478470000000 1.0
C      1  0.5523540000000  0.5019690000000  0.4812860000000 1.0
C      1  0.5489420000000  0.5029650000000  0.5294460000000 1.0
C      1  0.5086790000000  0.5009880000000  0.5587350000000 1.0
C      1  0.4578120000000  0.5011060000000  0.5412290000000 1.0
C      1  0.5856980000000  0.5466480000000  0.5546110000000 1.0
C      1  0.5102770000000  0.5461530000000  0.5988540000000 1.0
C      1  0.4262070000000  0.5427830000000  0.5780480000000 1.0
C      1  0.4069110000000  0.5499760000000  0.4912470000000 1.0
C      1  0.4400510000000  0.5420150000000  0.4083320000000 1.0
C      1  0.5292260000000  0.5490140000000  0.4092320000000 1.0
C      1  0.5970050000000  0.5464090000000  0.4674510000000 1.0
C      1  0.4974140000000  0.4549610000000  0.5960640000000 1.0
C      1  0.4232330000000  0.4545350000000  0.5577560000000 1.0
C      1  0.4080260000000  0.4573550000000  0.4767200000000 1.0
C      1  0.4610490000000  0.4550310000000  0.4132710000000 1.0
C      1  0.5436910000000  0.4582520000000  0.4163860000000 1.0
C      1  0.5934060000000  0.4567810000000  0.4822040000000 1.0
C      1  0.5725320000000  0.4561690000000  0.5621200000000 1.0
C      1  0.4813650000000  0.4497020000000  0.4708210000000 1.0
C      1  0.5111880000000  0.4501460000000  0.4675580000000 1.0
C      1  0.5328520000000  0.4498910000000  0.4883700000000 1.0
C      1  0.5299220000000  0.4488750000000  0.5181330000000 1.0
C      1  0.5042100000000  0.4500220000000  0.5348850000000 1.0
C      1  0.4757500000000  0.4499950000000  0.5251890000000 1.0
C      1  0.4656250000000  0.4487550000000  0.4962450000000 1.0
C      1  0.5114280000000  0.4098170000000  0.4676520000000 1.0
C      1  0.5325690000000  0.4094870000000  0.4882570000000 1.0
C      1  0.5293630000000  0.4095190000000  0.5177920000000 1.0
C      1  0.5043920000000  0.4093360000000  0.5337970000000 1.0
C      1  0.4764200000000  0.4092140000000  0.5242690000000 1.0
C      1  0.4664560000000  0.4095170000000  0.4964440000000 1.0
C      1  0.4819950000000  0.4091850000000  0.4711850000000 1.0
C      1  0.4524300000000  0.4761760000000  0.5939160000000 1.0
C      1  0.3990000000000  0.4802220000000  0.5212000000000 1.0
C      1  0.4194310000000  0.4774540000000  0.4340710000000 1.0
C      1  0.5021870000000  0.4799550000000  0.3966960000000 1.0
C      1  0.5827000000000  0.4800350000000  0.4378450000000 1.0
C      1  0.6011230000000  0.4788750000000  0.5267560000000 1.0
C      1  0.5426140000000  0.4784370000000  0.5956650000000 1.0
C      1  0.6041620000000  0.4790740000000  0.4970110000000 1.0
C      1  0.5676010000000  0.4787260000000  0.5795270000000 1.0
C      1  0.4808420000000  0.4774310000000  0.6030810000000 1.0
C      1  0.4077390000000  0.4775700000000  0.5495240000000 1.0
C      1  0.4048680000000  0.4802410000000  0.4599180000000 1.0
C      1  0.4724940000000  0.4774180000000  0.3993070000000 1.0
C      1  0.5609470000000  0.4812450000000  0.4173210000000 1.0
C      1  0.4403090000000  0.4344620000000  0.4477750000000 1.0
C      1  0.5042790000000  0.4360590000000  0.4207350000000 1.0
C      1  0.5651100000000  0.4359400000000  0.4536750000000 1.0
C      1  0.5770780000000  0.4353080000000  0.5220240000000 1.0
C      1  0.5310990000000  0.4348440000000  0.5737380000000 1.0
C      1  0.4620070000000  0.4337990000000  0.5699790000000 1.0
C      1  0.4214130000000  0.4355300000000  0.5139410000000 1.0
C      1  0.5469540000000  0.5041590000000  0.4053280000000 1.0
C      1  0.6063290000000  0.5015670000000  0.4788980000000 1.0
C      1  0.5829210000000  0.5014880000000  0.5698650000000 1.0
C      1  0.4976540000000  0.5007010000000  0.6077830000000 1.0
C      1  0.4140560000000  0.4990150000000  0.5676460000000 1.0
C      1  0.3968990000000  0.5041790000000  0.4757420000000 1.0
C      1  0.4528290000000  0.4983490000000  0.4005320000000 1.0
C      1  0.4436070000000  0.4539230000000  0.5778640000000 1.0
C      1  0.4053880000000  0.4574340000000  0.5049040000000 1.0
C      1  0.4370500000000  0.4550990000000  0.4289280000000 1.0
C      1  0.5168590000000  0.4576880000000  0.4070810000000 1.0
C      1  0.5838520000000  0.4571580000000  0.4552980000000 1.0
C      1  0.5878110000000  0.4562030000000  0.5380530000000 1.0
C      1  0.5256690000000  0.4554120000000  0.5926870000000 1.0
C      1  0.4380530000000  0.5644700000000  0.4488400000000 1.0
C      1  0.4780360000000  0.5639010000000  0.4210630000000 1.0
C      1  0.5614970000000  0.5656090000000  0.4488490000000 1.0
C      1  0.5790260000000  0.5650610000000  0.5141920000000 1.0
C      1  0.5371120000000  0.5650390000000  0.5679910000000 1.0
C      1  0.4679470000000  0.5622720000000  0.5702070000000 1.0
C      1  0.4313120000000  0.5647370000000  0.5380290000000 1.0
C      1  0.4123980000000  0.5268430000000  0.5600230000000 1.0
C      1  0.4040180000000  0.5322080000000  0.4693250000000 1.0
C      1  0.4608350000000  0.5257540000000  0.3995720000000 1.0
C      1  0.5515430000000  0.5319530000000  0.4131180000000 1.0
C      1  0.6048130000000  0.5291940000000  0.4878190000000 1.0
C      1  0.5746730000000  0.5294460000000  0.5735050000000 1.0
C      1  0.4894640000000  0.5283480000000  0.6029090000000 1.0
C      1  0.5102280000000  0.5310810000000  0.3986560000000 1.0
C      1  0.5896560000000  0.5292340000000  0.4464310000000 1.0
C      1  0.5983510000000  0.5289530000000  0.5369180000000 1.0
C      1  0.5321540000000  0.5288900000000  0.5981780000000 1.0
C      1  0.4437140000000  0.5254430000000  0.5903770000000 1.0
C      1  0.3998380000000  0.5322870000000  0.5122520000000 1.0
C      1  0.4239310000000  0.5260220000000  0.4240740000000 1.0
C      1  0.4959870000000  0.5790330000000  0.4359070000000 1.0
C      1  0.5386000000000  0.5807000000000  0.4478870000000 1.0
C      1  0.5659540000000  0.5793400000000  0.4942790000000 1.0
C      1  0.5446460000000  0.5789170000000  0.5449710000000 1.0
C      1  0.4904060000000  0.5756950000000  0.5590560000000 1.0
C      1  0.4434290000000  0.5787500000000  0.5170000000000 1.0
C      1  0.4458950000000  0.5790370000000  0.4716680000000 1.0
C      1  0.5099530000000  0.4802450000000  0.5379930000000 1.0
C      1  0.4691980000000  0.4801940000000  0.5240680000000 1.0
C      1  0.4617350000000  0.4807320000000  0.4954280000000 1.0
C      1  0.4799060000000  0.4807090000000  0.4701040000000 1.0
C      1  0.5110310000000  0.4812280000000  0.4673390000000 1.0
C      1  0.5340540000000  0.4809570000000  0.4886080000000 1.0
C      1  0.5333130000000  0.4806300000000  0.5197920000000 1.0
C      1  0.4287230000000  0.5714670000000  0.4932450000000 1.0
C      1  0.4502610000000  0.5640890000000  0.4237000000000 1.0
C      1  0.5220020000000  0.5713020000000  0.4271510000000 1.0
C      1  0.5778030000000  0.5679950000000  0.4708270000000 1.0
C      1  0.5709910000000  0.5678190000000  0.5404700000000 1.0
C      1  0.5111580000000  0.5665500000000  0.5773450000000 1.0
C      1  0.4404680000000  0.5640560000000  0.5643480000000 1.0
C      1  0.4711990000000  0.5333490000000  0.5805240000000 1.0
C      1  0.4196770000000  0.5366520000000  0.5327480000000 1.0
C      1  0.4269290000000  0.5361790000000  0.4523110000000 1.0
C      1  0.4857250000000  0.5354020000000  0.4133170000000 1.0
C      1  0.5625860000000  0.5372310000000  0.4389810000000 1.0
C      1  0.5883410000000  0.5360870000000  0.5106490000000 1.0
C      1  0.5464730000000  0.5362510000000  0.5740810000000 1.0
C      1  0.5502240000000  0.4277590000000  0.5309330000000 1.0
C      1  0.5072390000000  0.4279990000000  0.5579830000000 1.0
C      1  0.4593660000000  0.4276580000000  0.5415220000000 1.0
C      1  0.4417130000000  0.4281680000000  0.4940660000000 1.0
C      1  0.4686040000000  0.4271270000000  0.4508050000000 1.0
C      1  0.5192030000000  0.4287750000000  0.4446710000000 1.0
C      1  0.5555670000000  0.4279970000000  0.4802120000000 1.0
C      1  0.4348280000000  0.4982010000000  0.5883690000000 1.0
C      1  0.3942500000000  0.5041880000000  0.5044210000000 1.0
C      1  0.4282950000000  0.4985200000000  0.4169460000000 1.0
C      1  0.5196340000000  0.5035990000000  0.3957370000000 1.0
C      1  0.5965140000000  0.5018210000000  0.4513330000000 1.0
C      1  0.5987630000000  0.5013770000000  0.5454690000000 1.0
C      1  0.5265050000000  0.5011570000000  0.6047950000000 1.0
C      1  0.5396750000000  0.5182410000000  0.4598650000000 1.0
C      1  0.5578890000000  0.5185160000000  0.5057970000000 1.0
C      1  0.5317760000000  0.5184760000000  0.5490630000000 1.0
C      1  0.4812590000000  0.5152250000000  0.5549490000000 1.0
C      1  0.4456250000000  0.5185870000000  0.5204320000000 1.0
C      1  0.4510530000000  0.5183990000000  0.4691970000000 1.0
C      1  0.4922520000000  0.5180460000000  0.4435860000000 1.0
C      1  0.4935660000000  0.4938100000000  0.5194000000000 1.0
END
