TITL C-38629-676-3 -0.00266219106689201 125000 -43.7962931087224 0 0 7 (C2v) n - 1
REM
REM in /rds/project/t2_vol4/rds-t2-cs072/BORA/CARBON/from-Arr/AIRSS/Generating-Clusters/GAP-ML-2020/Higher-Symm/SD-CG/HFTN-CG
REM
REM
REM
REM
REM
REM ./C.cell (b20cbc046b6831c77cfcea5457e17084)
REM AIRSS Version 0.9.1 bugfix July 2018 build 013d7b7c2542+ Fri, 06 Jul 2018 19:26:36 +0100
REM compiler GCC version 9.3.0
REM options -cpp -mtune=generic -march=x86-64 -g -O0
REM seed -906108414 1850638368 -1585039978 1695232261 1184530069 -1988630546 458717823 -158085944 -898920226 1506206430 894594685 38823780 661523131 406967944 -2016971993 -773266194 667491440 2133130515 906718619 94625234 923911737 623432626 412363245 -156041801 -1810179304 1720689430 2109827995 -1026632947 -1058658831 1447786668 -1047056469 -75215211 -293222853
REM
CELL 1.54180   50.00000   50.00000   50.00000   90.00000   90.00000   90.00000
LATT -1
SFAC C  
C      1  0.4788650000000  0.5039540000000  0.4960880000000 1.0
C      1  0.5536740000000  0.5098540000000  0.5101260000000 1.0
C      1  0.4281470000000  0.4981040000000  0.4950170000000 1.0
C      1  0.4532530000000  0.5010000000000  0.4955470000000 1.0
C      1  0.5535720000000  0.5152980000000  0.4852060000000 1.0
C      1  0.5298240000000  0.5098310000000  0.4971630000000 1.0
C      1  0.5034620000000  0.5067910000000  0.4966070000000 1.0
END
