TITL C-38747-7499-4 0.0246808384415102 125000 -291.46940825696 0 0 43 (C1) n - 1
REM
REM in /rds/project/t2_vol4/rds-t2-cs072/BORA/CARBON/from-Arr/AIRSS/Generating-Clusters/GAP-ML-2020/Higher-Symm/SD-CG/HFTN-CG
REM
REM
REM
REM
REM
REM ./C.cell (b20cbc046b6831c77cfcea5457e17084)
REM AIRSS Version 0.9.1 bugfix July 2018 build 013d7b7c2542+ Fri, 06 Jul 2018 19:26:36 +0100
REM compiler GCC version 9.3.0
REM options -cpp -mtune=generic -march=x86-64 -g -O0
REM seed 887423580 1043665961 -509239201 1678108031 738558680 -988701333 -1139027315 2039106921 649294399 1137689049 -259742312 -57187086 -1611711285 -955778359 -2127338959 -821618015 133843042 -663852421 -2057650361 761129840 723948006 285796815 605827026 -2017563387 -1140764957 1759273424 -1027737918 1716241022 1975932114 -369905470 191931956 -1309289708 2092584286
REM
CELL 1.54180   50.00000   50.00000   50.00000   90.00000   90.00000   90.00000
LATT -1
SFAC C  
C      1  0.4875880000000  0.4249570000000  0.4691650000000 1.0
C      1  0.4852630000000  0.5327620000000  0.4499780000000 1.0
C      1  0.4494130000000  0.4702060000000  0.5064360000000 1.0
C      1  0.5388430000000  0.4766270000000  0.5357250000000 1.0
C      1  0.4818210000000  0.4411090000000  0.4473600000000 1.0
C      1  0.4553780000000  0.5174960000000  0.5151610000000 1.0
C      1  0.4628780000000  0.4830450000000  0.5451740000000 1.0
C      1  0.4699040000000  0.4606850000000  0.5275900000000 1.0
C      1  0.4624070000000  0.4638690000000  0.4560100000000 1.0
C      1  0.4914460000000  0.4991150000000  0.4854460000000 1.0
C      1  0.5457690000000  0.5034580000000  0.4746660000000 1.0
C      1  0.5525450000000  0.4804030000000  0.4904370000000 1.0
C      1  0.5020240000000  0.5348900000000  0.5603530000000 1.0
C      1  0.4756060000000  0.5647930000000  0.4891710000000 1.0
C      1  0.5423330000000  0.5234970000000  0.5418020000000 1.0
C      1  0.4834760000000  0.5574130000000  0.5143480000000 1.0
C      1  0.5574690000000  0.5164660000000  0.5188850000000 1.0
C      1  0.5225650000000  0.4578550000000  0.5200580000000 1.0
C      1  0.5587200000000  0.4876940000000  0.5173860000000 1.0
C      1  0.4767780000000  0.4861920000000  0.4461380000000 1.0
C      1  0.4751650000000  0.5094750000000  0.4617290000000 1.0
C      1  0.5310590000000  0.4989880000000  0.5536780000000 1.0
C      1  0.5057360000000  0.5061230000000  0.5652210000000 1.0
C      1  0.4743490000000  0.5309180000000  0.5548140000000 1.0
C      1  0.4651760000000  0.5401060000000  0.5301980000000 1.0
C      1  0.4501450000000  0.4649490000000  0.4805410000000 1.0
C      1  0.5287670000000  0.5475760000000  0.4934650000000 1.0
C      1  0.4826980000000  0.5066680000000  0.5092870000000 1.0
C      1  0.5053450000000  0.4697430000000  0.4792880000000 1.0
C      1  0.4768160000000  0.5013710000000  0.5608470000000 1.0
C      1  0.5216470000000  0.5434330000000  0.5416090000000 1.0
C      1  0.5480270000000  0.5260830000000  0.4935500000000 1.0
C      1  0.5305700000000  0.4629130000000  0.4924860000000 1.0
C      1  0.4438840000000  0.4936900000000  0.5246380000000 1.0
C      1  0.5167250000000  0.5498800000000  0.4682800000000 1.0
C      1  0.5262370000000  0.5027510000000  0.4536780000000 1.0
C      1  0.5128860000000  0.5543160000000  0.5169470000000 1.0
C      1  0.5037450000000  0.4547600000000  0.4345580000000 1.0
C      1  0.4944550000000  0.4485010000000  0.5181450000000 1.0
C      1  0.4938470000000  0.4426620000000  0.4892750000000 1.0
C      1  0.5146130000000  0.5281020000000  0.4495400000000 1.0
C      1  0.4882590000000  0.5562590000000  0.4676480000000 1.0
C      1  0.5076190000000  0.4782040000000  0.4492880000000 1.0
END
