TITL C-38609-641-7 -4.09385152407007 125000 -619.523439333883 0 0 89 (C1) n - 1
REM
REM in /rds/project/t2_vol4/rds-t2-cs072/BORA/CARBON/from-Arr/AIRSS/Generating-Clusters/GAP-ML-2020/Higher-Symm/SD-CG/HFTN-CG
REM
REM
REM
REM
REM
REM ./C.cell (b20cbc046b6831c77cfcea5457e17084)
REM AIRSS Version 0.9.1 bugfix July 2018 build 013d7b7c2542+ Fri, 06 Jul 2018 19:26:36 +0100
REM compiler GCC version 9.3.0
REM options -cpp -mtune=generic -march=x86-64 -g -O0
REM seed -1530733708 687547835 119016670 1663572243 -1765602274 -1284330519 837914785 -1902658328 -1775063257 1353931922 1570949181 1242501184 -1134451826 -1697376379 1354410097 -841864088 -1713008220 -2107294681 -323287080 496924079 1822755466 1550710939 122900918 1379579412 -1300231447 -187711038 428109869 662570567 -1215402081 1285317261 -1273212491 1213585439 -1728169661
REM
CELL 1.54180   50.00000   50.00000   50.00000   90.00000   90.00000   90.00000
LATT -1
SFAC C  
C      1  0.4386930000000  0.5310650000000  0.5425380000000 1.0
C      1  0.5582830000000  0.4660040000000  0.4624930000000 1.0
C      1  0.5550760000000  0.5127900000000  0.4509940000000 1.0
C      1  0.4393430000000  0.4801880000000  0.5550490000000 1.0
C      1  0.5398540000000  0.5585020000000  0.4580720000000 1.0
C      1  0.4517870000000  0.4331280000000  0.5417670000000 1.0
C      1  0.4963720000000  0.5176940000000  0.4136780000000 1.0
C      1  0.5053160000000  0.4799180000000  0.5857520000000 1.0
C      1  0.4433410000000  0.4898250000000  0.4581400000000 1.0
C      1  0.5555900000000  0.5118620000000  0.5426560000000 1.0
C      1  0.5576760000000  0.5497570000000  0.5106220000000 1.0
C      1  0.4453230000000  0.4495390000000  0.4922190000000 1.0
C      1  0.4783100000000  0.5494220000000  0.4907980000000 1.0
C      1  0.4932270000000  0.4561500000000  0.4992990000000 1.0
C      1  0.4432540000000  0.5449250000000  0.5173370000000 1.0
C      1  0.5483870000000  0.4549220000000  0.4870850000000 1.0
C      1  0.5423720000000  0.4193650000000  0.5305500000000 1.0
C      1  0.4587200000000  0.5817650000000  0.4696680000000 1.0
C      1  0.5303880000000  0.5034030000000  0.4697080000000 1.0
C      1  0.4668500000000  0.5019040000000  0.5241650000000 1.0
C      1  0.4521630000000  0.4628710000000  0.4675590000000 1.0
C      1  0.5537620000000  0.5395260000000  0.5371290000000 1.0
C      1  0.4703780000000  0.4209200000000  0.5256490000000 1.0
C      1  0.5294210000000  0.5765190000000  0.4786470000000 1.0
C      1  0.4899060000000  0.5690790000000  0.5370070000000 1.0
C      1  0.5086770000000  0.4293680000000  0.4636740000000 1.0
C      1  0.4778110000000  0.5286230000000  0.5352880000000 1.0
C      1  0.5201750000000  0.4757310000000  0.4631850000000 1.0
C      1  0.5363300000000  0.5693450000000  0.5056640000000 1.0
C      1  0.4701060000000  0.4323600000000  0.4978290000000 1.0
C      1  0.5343110000000  0.5067990000000  0.4981100000000 1.0
C      1  0.4685370000000  0.5015620000000  0.4956630000000 1.0
C      1  0.5203060000000  0.5222800000000  0.5790970000000 1.0
C      1  0.4817880000000  0.4778690000000  0.4284710000000 1.0
C      1  0.4776130000000  0.4771280000000  0.4813710000000 1.0
C      1  0.5125960000000  0.5197760000000  0.5080320000000 1.0
C      1  0.5690780000000  0.4923540000000  0.4665640000000 1.0
C      1  0.4360100000000  0.5024830000000  0.5356240000000 1.0
C      1  0.5124460000000  0.4416870000000  0.4382610000000 1.0
C      1  0.4868290000000  0.5552810000000  0.5625780000000 1.0
C      1  0.5595020000000  0.5392440000000  0.4634280000000 1.0
C      1  0.4377310000000  0.4561780000000  0.5392230000000 1.0
C      1  0.4852090000000  0.4643090000000  0.5743040000000 1.0
C      1  0.5218780000000  0.5302640000000  0.4196020000000 1.0
C      1  0.5024790000000  0.4904130000000  0.4122990000000 1.0
C      1  0.4976930000000  0.5071790000000  0.5873560000000 1.0
C      1  0.4963820000000  0.4199710000000  0.5402140000000 1.0
C      1  0.5079670000000  0.5946420000000  0.4722290000000 1.0
C      1  0.5051530000000  0.5138960000000  0.5337420000000 1.0
C      1  0.4929160000000  0.4871530000000  0.4582890000000 1.0
C      1  0.4973360000000  0.5445100000000  0.4497460000000 1.0
C      1  0.4953420000000  0.4634930000000  0.5268390000000 1.0
C      1  0.5300020000000  0.4849570000000  0.4194570000000 1.0
C      1  0.4705470000000  0.5100900000000  0.5786190000000 1.0
C      1  0.4320870000000  0.4638650000000  0.5116620000000 1.0
C      1  0.5693110000000  0.5343470000000  0.4895770000000 1.0
C      1  0.4913220000000  0.4891830000000  0.5334290000000 1.0
C      1  0.5027880000000  0.5155540000000  0.4633650000000 1.0
C      1  0.5187640000000  0.4508220000000  0.4823440000000 1.0
C      1  0.4713410000000  0.5541270000000  0.5183940000000 1.0
C      1  0.4697630000000  0.5434940000000  0.4445670000000 1.0
C      1  0.5302060000000  0.4555130000000  0.5563420000000 1.0
C      1  0.4824490000000  0.5928920000000  0.4685530000000 1.0
C      1  0.5201210000000  0.4067590000000  0.5350430000000 1.0
C      1  0.5473430000000  0.4469200000000  0.5341970000000 1.0
C      1  0.4563910000000  0.5525540000000  0.4703930000000 1.0
C      1  0.4588020000000  0.4963930000000  0.4346400000000 1.0
C      1  0.5409640000000  0.5046010000000  0.5667200000000 1.0
C      1  0.5313200000000  0.4779210000000  0.5729180000000 1.0
C      1  0.4699390000000  0.5219820000000  0.4266300000000 1.0
C      1  0.5572810000000  0.4950090000000  0.5155340000000 1.0
C      1  0.4392240000000  0.5060200000000  0.4849460000000 1.0
C      1  0.5007850000000  0.4472760000000  0.5519880000000 1.0
C      1  0.5210800000000  0.5516300000000  0.4374100000000 1.0
C      1  0.4802750000000  0.4249700000000  0.4705410000000 1.0
C      1  0.5184810000000  0.5700630000000  0.5291510000000 1.0
C      1  0.5339060000000  0.4638020000000  0.4395270000000 1.0
C      1  0.4645270000000  0.5334850000000  0.5613950000000 1.0
C      1  0.5739590000000  0.5058420000000  0.4926330000000 1.0
C      1  0.4271400000000  0.4915870000000  0.5088950000000 1.0
C      1  0.4390560000000  0.5359790000000  0.4900500000000 1.0
C      1  0.5555130000000  0.4648380000000  0.5130520000000 1.0
C      1  0.4849720000000  0.4498480000000  0.4321000000000 1.0
C      1  0.5140540000000  0.5475420000000  0.5692560000000 1.0
C      1  0.4614690000000  0.4829460000000  0.5727120000000 1.0
C      1  0.5421670000000  0.5100440000000  0.4247510000000 1.0
C      1  0.5324650000000  0.5554460000000  0.5490660000000 1.0
C      1  0.4666170000000  0.4415950000000  0.4521550000000 1.0
C      1  0.4905650000000  0.5225760000000  0.4889600000000 1.0
END
