TITL C-38500-6095-3 0.0221533054769417 125000 -162.719301206131 0 0 24 (Oh) n - 1
REM
REM in /rds/project/t2_vol4/rds-t2-cs072/BORA/CARBON/from-Arr/AIRSS/Generating-Clusters/GAP-ML-2020/Higher-Symm/SD-CG/HFTN-CG
REM
REM
REM
REM
REM
REM ./C.cell (b20cbc046b6831c77cfcea5457e17084)
REM AIRSS Version 0.9.1 bugfix July 2018 build 013d7b7c2542+ Fri, 06 Jul 2018 19:26:36 +0100
REM compiler GCC version 9.3.0
REM options -cpp -mtune=generic -march=x86-64 -g -O0
REM seed 371660499 -306606103 556691434 -1499647891 -1280875671 1656280692 192823857 119874846 -391016448 -1723293842 -178314940 -1917303574 1611611625 655500457 150657584 941380490 1594085450 949802293 522230106 819276518 363319642 -2101343354 -458031803 -505981163 -1625303179 1780828429 -2054961871 -167412148 -1894060077 40882344 327083734 442039093 -2065509800
REM
CELL 1.54180   50.00000   50.00000   50.00000   90.00000   90.00000   90.00000
LATT -1
SFAC C  
C      1  0.5210420000000  0.5402930000000  0.5000000000000 1.0
C      1  0.5000010000000  0.5210410000000  0.5402930000000 1.0
C      1  0.5402930000000  0.4999990000000  0.5210400000000 1.0
C      1  0.4789600000000  0.5402930000000  0.5000010000000 1.0
C      1  0.5210400000000  0.4597070000000  0.4999990000000 1.0
C      1  0.4789580000000  0.4597070000000  0.5000000000000 1.0
C      1  0.5000000000000  0.5210410000000  0.4597070000000 1.0
C      1  0.4999990000000  0.4789590000000  0.4597070000000 1.0
C      1  0.5000000000000  0.4789590000000  0.5402930000000 1.0
C      1  0.4597070000000  0.5000010000000  0.4789600000000 1.0
C      1  0.5402930000000  0.4999990000000  0.4789590000000 1.0
C      1  0.4597070000000  0.5000010000000  0.5210410000000 1.0
C      1  0.5000000000000  0.4597070000000  0.5210410000000 1.0
C      1  0.5210400000000  0.5000000000000  0.4597070000000 1.0
C      1  0.4597070000000  0.5210420000000  0.5000010000000 1.0
C      1  0.4999990000000  0.4597070000000  0.4789590000000 1.0
C      1  0.5000000000000  0.5402930000000  0.4789590000000 1.0
C      1  0.5000010000000  0.5402930000000  0.5210410000000 1.0
C      1  0.4789600000000  0.5000000000000  0.5402930000000 1.0
C      1  0.5210410000000  0.4999990000000  0.5402930000000 1.0
C      1  0.4789590000000  0.5000010000000  0.4597070000000 1.0
C      1  0.5402930000000  0.5210400000000  0.5000000000000 1.0
C      1  0.4597070000000  0.4789600000000  0.5000000000000 1.0
C      1  0.5402930000000  0.4789580000000  0.4999990000000 1.0
END
