TITL C-38514-6071-10 -87.3074680828584 125000 -243.131355742555 0 0 36 (C3i) n - 1
REM
REM in /rds/project/t2_vol4/rds-t2-cs072/BORA/CARBON/from-Arr/AIRSS/Generating-Clusters/GAP-ML-2020/Higher-Symm/SD-CG/HFTN-CG
REM
REM
REM
REM
REM
REM ./C.cell (b20cbc046b6831c77cfcea5457e17084)
REM AIRSS Version 0.9.1 bugfix July 2018 build 013d7b7c2542+ Fri, 06 Jul 2018 19:26:36 +0100
REM compiler GCC version 9.3.0
REM options -cpp -mtune=generic -march=x86-64 -g -O0
REM seed 1061369800 1883895461 751426999 1764837682 2128167316 700374615 1112944864 -117810436 816147273 530879677 -689338086 -60734321 -1555412561 -1518001394 -1882190069 -1610493850 -801359598 251443718 2108980577 1002061416 2120245233 1769361299 44998331 738166233 -1539625343 -2097509258 -373004385 1442233182 1360972628 2063279636 832164855 -1394270794 808030392
REM
CELL 1.54180   50.00000   50.00000   50.00000   90.00000   90.00000   90.00000
LATT -1
SFAC C  
C      1  0.4650100000000  0.4586310000000  0.4855840000000 1.0
C      1  0.4466800000000  0.5096190000000  0.5144220000000 1.0
C      1  0.4816680000000  0.5509840000000  0.4855750000000 1.0
C      1  0.5349900000000  0.5413690000000  0.5144160000000 1.0
C      1  0.5533190000000  0.4903810000000  0.4855780000000 1.0
C      1  0.5183320000000  0.4490160000000  0.5144250000000 1.0
C      1  0.4854650000000  0.5528310000000  0.5150270000000 1.0
C      1  0.5384830000000  0.5390010000000  0.4849630000000 1.0
C      1  0.5530200000000  0.4861750000000  0.5150300000000 1.0
C      1  0.5145350000000  0.4471690000000  0.4849730000000 1.0
C      1  0.4615170000000  0.4609990000000  0.5150360000000 1.0
C      1  0.4469800000000  0.5138250000000  0.4849700000000 1.0
C      1  0.5028540000000  0.5157110000000  0.5409370000000 1.0
C      1  0.5150270000000  0.5053790000000  0.4590600000000 1.0
C      1  0.5121780000000  0.4896800000000  0.5409400000000 1.0
C      1  0.4971460000000  0.4842890000000  0.4590630000000 1.0
C      1  0.4849730000000  0.4946210000000  0.5409400000000 1.0
C      1  0.4878220000000  0.5103200000000  0.4590600000000 1.0
C      1  0.5289930000000  0.5604240000000  0.4672080000000 1.0
C      1  0.5668300000000  0.5051070000000  0.5327810000000 1.0
C      1  0.5378330000000  0.4446730000000  0.4672190000000 1.0
C      1  0.4710070000000  0.4395760000000  0.5327920000000 1.0
C      1  0.4331700000000  0.4948930000000  0.4672190000000 1.0
C      1  0.4621670000000  0.5553270000000  0.5327810000000 1.0
C      1  0.5542660000000  0.5269100000000  0.5286490000000 1.0
C      1  0.5504330000000  0.4664560000000  0.4713470000000 1.0
C      1  0.4961710000000  0.4395550000000  0.5286600000000 1.0
C      1  0.4457340000000  0.4730900000000  0.4713510000000 1.0
C      1  0.4495660000000  0.5335440000000  0.5286530000000 1.0
C      1  0.5038290000000  0.5604460000000  0.4713400000000 1.0
C      1  0.4692890000000  0.5273310000000  0.4737860000000 1.0
C      1  0.5083180000000  0.5402650000000  0.5262090000000 1.0
C      1  0.5390260000000  0.5129270000000  0.4737840000000 1.0
C      1  0.5307110000000  0.4726690000000  0.5262140000000 1.0
C      1  0.4916820000000  0.4597350000000  0.4737910000000 1.0
C      1  0.4609740000000  0.4870730000000  0.5262160000000 1.0
END
