TITL C-38745-524-9 18.0398970931178 125000 -38.321444839198 0 0 7 (C3v) n - 1
REM
REM in /rds/project/t2_vol4/rds-t2-cs072/BORA/CARBON/from-Arr/AIRSS/Generating-Clusters/GAP-ML-2020/Higher-Symm/SD-CG/HFTN-CG
REM
REM
REM
REM
REM
REM ./C.cell (b20cbc046b6831c77cfcea5457e17084)
REM AIRSS Version 0.9.1 bugfix July 2018 build 013d7b7c2542+ Fri, 06 Jul 2018 19:26:36 +0100
REM compiler GCC version 9.3.0
REM options -cpp -mtune=generic -march=x86-64 -g -O0
REM seed 675749337 1492448034 -1824091774 1472921610 -867063494 -1403029776 199765954 360420766 816025028 -276510678 1425594086 732981412 1869683095 1633007704 2113843290 118495575 -750927154 594695345 -1937753802 -1055616132 -2007311441 -1193623379 1399112866 1475342515 -1045906737 -1998504048 -2051741635 1321491639 712380283 635198757 -486329504 1949859682 542384620
REM
CELL 1.54180   50.00000   50.00000   50.00000   90.00000   90.00000   90.00000
LATT -1
SFAC C  
C      1  0.4951490000000  0.4782790000000  0.5060580000000 1.0
C      1  0.5218980000000  0.4853940000000  0.5135760000000 1.0
C      1  0.5217160000000  0.5130600000000  0.5060140000000 1.0
C      1  0.5022050000000  0.5326420000000  0.5136660000000 1.0
C      1  0.4783110000000  0.5186780000000  0.5061350000000 1.0
C      1  0.4711340000000  0.4919640000000  0.5137170000000 1.0
C      1  0.4983460000000  0.5033530000000  0.4887870000000 1.0
END
