TITL C-38609-641-2 -0.0957695234932142 125000 -685.48675798417 0 0 97 (Cs) n - 1
REM
REM in /rds/project/t2_vol4/rds-t2-cs072/BORA/CARBON/from-Arr/AIRSS/Generating-Clusters/GAP-ML-2020/Higher-Symm/SD-CG/HFTN-CG
REM
REM
REM
REM
REM
REM ./C.cell (b20cbc046b6831c77cfcea5457e17084)
REM AIRSS Version 0.9.1 bugfix July 2018 build 013d7b7c2542+ Fri, 06 Jul 2018 19:26:36 +0100
REM compiler GCC version 9.3.0
REM options -cpp -mtune=generic -march=x86-64 -g -O0
REM seed -1490974268 1815405145 193644159 -19078135 399479969 -1441922537 1437504899 -636932998 867164764 1298944889 -1059401881 -1975912029 33894880 29077992 -1511802927 -2010776761 1206641053 -343469114 -1863836094 -2042432628 519921040 1502694280 277847404 -664212973 2056602405 -940206956 2143283524 1647719187 -468399668 32985517 793753558 183867859 1395887799
REM
CELL 1.54180   50.00000   50.00000   50.00000   90.00000   90.00000   90.00000
LATT -1
SFAC C  
C      1  0.4641110000000  0.4848450000000  0.5735490000000 1.0
C      1  0.4654710000000  0.5706040000000  0.4773860000000 1.0
C      1  0.4656270000000  0.4444970000000  0.4509640000000 1.0
C      1  0.4643420000000  0.5151420000000  0.5734530000000 1.0
C      1  0.4653670000000  0.4292280000000  0.4771150000000 1.0
C      1  0.4648220000000  0.5555930000000  0.4510690000000 1.0
C      1  0.5182830000000  0.4729290000000  0.4244390000000 1.0
C      1  0.5162340000000  0.4469240000000  0.5640400000000 1.0
C      1  0.5183130000000  0.5793830000000  0.5142790000000 1.0
C      1  0.5165070000000  0.5288890000000  0.4219860000000 1.0
C      1  0.5175940000000  0.5520310000000  0.5632610000000 1.0
C      1  0.5167900000000  0.4190900000000  0.5151260000000 1.0
C      1  0.4411040000000  0.5145120000000  0.4754010000000 1.0
C      1  0.4405880000000  0.4710220000000  0.5003560000000 1.0
C      1  0.4406030000000  0.5146260000000  0.5255420000000 1.0
C      1  0.4409420000000  0.4855290000000  0.4753020000000 1.0
C      1  0.4409570000000  0.5290790000000  0.5004570000000 1.0
C      1  0.4403400000000  0.4855610000000  0.5255250000000 1.0
C      1  0.5416970000000  0.5153400000000  0.4265470000000 1.0
C      1  0.5411350000000  0.4318990000000  0.5246090000000 1.0
C      1  0.5421160000000  0.5523980000000  0.5474990000000 1.0
C      1  0.5424700000000  0.4875100000000  0.4314390000000 1.0
C      1  0.5424780000000  0.5655220000000  0.5229720000000 1.0
C      1  0.5409130000000  0.4456680000000  0.5486280000000 1.0
C      1  0.4946910000000  0.5646140000000  0.5539950000000 1.0
C      1  0.4935120000000  0.5142990000000  0.4169770000000 1.0
C      1  0.4934140000000  0.4208640000000  0.5300670000000 1.0
C      1  0.4931510000000  0.4347720000000  0.5544560000000 1.0
C      1  0.4946920000000  0.4862960000000  0.4177340000000 1.0
C      1  0.4951230000000  0.5782780000000  0.5295080000000 1.0
C      1  0.5555900000000  0.5270860000000  0.5507470000000 1.0
C      1  0.5578200000000  0.5336530000000  0.4421910000000 1.0
C      1  0.5555610000000  0.4429030000000  0.5021230000000 1.0
C      1  0.5550580000000  0.4708600000000  0.5509070000000 1.0
C      1  0.5564610000000  0.4729520000000  0.4533130000000 1.0
C      1  0.5564900000000  0.5543510000000  0.5003290000000 1.0
C      1  0.5424980000000  0.5660310000000  0.4767930000000 1.0
C      1  0.5424370000000  0.4477640000000  0.4549550000000 1.0
C      1  0.5409270000000  0.4854290000000  0.5715940000000 1.0
C      1  0.5420750000000  0.4330760000000  0.4785790000000 1.0
C      1  0.5417110000000  0.5563640000000  0.4502420000000 1.0
C      1  0.5411640000000  0.5131150000000  0.5715190000000 1.0
C      1  0.4820740000000  0.4705010000000  0.5007460000000 1.0
C      1  0.4820900000000  0.5145270000000  0.5261750000000 1.0
C      1  0.4826950000000  0.5147540000000  0.4749570000000 1.0
C      1  0.4825110000000  0.5293010000000  0.5005630000000 1.0
C      1  0.4818460000000  0.4850900000000  0.5263140000000 1.0
C      1  0.4824950000000  0.4853050000000  0.4751510000000 1.0
C      1  0.4931680000000  0.4858500000000  0.5839580000000 1.0
C      1  0.4947240000000  0.5785340000000  0.4710110000000 1.0
C      1  0.4950730000000  0.4357530000000  0.4471850000000 1.0
C      1  0.4934460000000  0.5139250000000  0.5838200000000 1.0
C      1  0.4946410000000  0.4213700000000  0.4712570000000 1.0
C      1  0.4935300000000  0.5651980000000  0.4463770000000 1.0
C      1  0.5128370000000  0.4711490000000  0.5011490000000 1.0
C      1  0.5128520000000  0.5138380000000  0.5258070000000 1.0
C      1  0.5136740000000  0.5138140000000  0.4765650000000 1.0
C      1  0.5132570000000  0.5282210000000  0.5011330000000 1.0
C      1  0.5126280000000  0.4854110000000  0.5257400000000 1.0
C      1  0.5132430000000  0.4853350000000  0.4763620000000 1.0
C      1  0.4624900000000  0.5255180000000  0.4563330000000 1.0
C      1  0.4619590000000  0.4488910000000  0.5005000000000 1.0
C      1  0.4619860000000  0.5255490000000  0.5447780000000 1.0
C      1  0.4624840000000  0.4744380000000  0.4563270000000 1.0
C      1  0.4625110000000  0.5510460000000  0.5005760000000 1.0
C      1  0.4614900000000  0.4743950000000  0.5448430000000 1.0
C      1  0.4648080000000  0.5150490000000  0.4276500000000 1.0
C      1  0.4643130000000  0.4292510000000  0.5238420000000 1.0
C      1  0.4654110000000  0.5556290000000  0.5501240000000 1.0
C      1  0.4654410000000  0.4847520000000  0.4277980000000 1.0
C      1  0.4656710000000  0.5706510000000  0.5238310000000 1.0
C      1  0.4640970000000  0.4443060000000  0.5501340000000 1.0
C      1  0.4445670000000  0.4430290000000  0.5738620000000 1.0
C      1  0.4468800000000  0.5926690000000  0.5133070000000 1.0
C      1  0.4466860000000  0.4645360000000  0.4140740000000 1.0
C      1  0.4461490000000  0.5573880000000  0.5740420000000 1.0
C      1  0.4452180000000  0.4078020000000  0.5128280000000 1.0
C      1  0.4449810000000  0.5347930000000  0.4150240000000 1.0
C      1  0.5692310000000  0.5281770000000  0.5035500000000 1.0
C      1  0.5692150000000  0.4832340000000  0.4775900000000 1.0
C      1  0.5670620000000  0.4838540000000  0.5284040000000 1.0
C      1  0.5674360000000  0.4688840000000  0.5027880000000 1.0
C      1  0.5795720000000  0.5257750000000  0.4558180000000 1.0
C      1  0.5674510000000  0.5135220000000  0.5285710000000 1.0
C      1  0.5162430000000  0.4714640000000  0.5782140000000 1.0
C      1  0.5183200000000  0.5793930000000  0.4859330000000 1.0
C      1  0.5182670000000  0.4483800000000  0.4386120000000 1.0
C      1  0.5168280000000  0.5277420000000  0.5778830000000 1.0
C      1  0.5175480000000  0.4196190000000  0.4867800000000 1.0
C      1  0.5165150000000  0.5535570000000  0.4362340000000 1.0
C      1  0.4460970000000  0.4076410000000  0.4875480000000 1.0
C      1  0.4452620000000  0.5354090000000  0.5865340000000 1.0
C      1  0.4449890000000  0.5566750000000  0.4276630000000 1.0
C      1  0.4467300000000  0.5926030000000  0.4880450000000 1.0
C      1  0.4445740000000  0.4649400000000  0.5865180000000 1.0
C      1  0.4468280000000  0.4426210000000  0.4266390000000 1.0
C      1  0.5748220000000  0.5121750000000  0.4793660000000 1.0
END
