TITL C-38720-9535-5 91.1025587563883 125000 -607.567457781689 0 0 89 (C1) n - 1
REM
REM in /rds/project/t2_vol4/rds-t2-cs072/BORA/CARBON/from-Arr/AIRSS/Generating-Clusters/GAP-ML-2020/Higher-Symm/SD-CG/HFTN-CG
REM
REM
REM
REM
REM
REM ./C.cell (b20cbc046b6831c77cfcea5457e17084)
REM AIRSS Version 0.9.1 bugfix July 2018 build 013d7b7c2542+ Fri, 06 Jul 2018 19:26:36 +0100
REM compiler GCC version 9.3.0
REM options -cpp -mtune=generic -march=x86-64 -g -O0
REM seed 1874614330 -43717577 871018343 -39455642 321167583 -1824368084 -317822616 1243119260 -670642948 777335324 1144841794 1404101593 -1106934528 -497380388 -724590428 2095088379 -1421357051 -1323597252 1154373472 742422530 1685071499 1928398602 1180531873 581584059 372451611 1657838986 -737850334 473929720 1227035039 -2006730549 1328289186 1134672096 348723391
REM
CELL 1.54180   50.00000   50.00000   50.00000   90.00000   90.00000   90.00000
LATT -1
SFAC C  
C      1  0.5595750000000  0.5700790000000  0.5339840000000 1.0
C      1  0.5732480000000  0.5278220000000  0.5551420000000 1.0
C      1  0.5368230000000  0.5532180000000  0.5749810000000 1.0
C      1  0.4553870000000  0.5783270000000  0.4735240000000 1.0
C      1  0.4485610000000  0.4277850000000  0.5360080000000 1.0
C      1  0.5547700000000  0.4317370000000  0.4727370000000 1.0
C      1  0.4142360000000  0.5062040000000  0.4426000000000 1.0
C      1  0.4304050000000  0.4706730000000  0.5468510000000 1.0
C      1  0.5750800000000  0.4750250000000  0.4488240000000 1.0
C      1  0.4730970000000  0.5566090000000  0.4356770000000 1.0
C      1  0.4690720000000  0.4513610000000  0.5778820000000 1.0
C      1  0.5305580000000  0.4536270000000  0.4369550000000 1.0
C      1  0.5390220000000  0.5724700000000  0.5556000000000 1.0
C      1  0.5534470000000  0.5293860000000  0.5735690000000 1.0
C      1  0.5753100000000  0.5475950000000  0.5338330000000 1.0
C      1  0.4760890000000  0.5788520000000  0.4522720000000 1.0
C      1  0.5336390000000  0.4286520000000  0.4506490000000 1.0
C      1  0.4694420000000  0.4338530000000  0.5558730000000 1.0
C      1  0.4383990000000  0.5160130000000  0.4341540000000 1.0
C      1  0.5506040000000  0.4764500000000  0.4348780000000 1.0
C      1  0.4503530000000  0.4748180000000  0.5682340000000 1.0
C      1  0.4392270000000  0.5558560000000  0.4705420000000 1.0
C      1  0.5689720000000  0.4554880000000  0.4713310000000 1.0
C      1  0.4254240000000  0.4439690000000  0.5337200000000 1.0
C      1  0.4906170000000  0.4275980000000  0.5363150000000 1.0
C      1  0.4385160000000  0.5377500000000  0.4927000000000 1.0
C      1  0.5357700000000  0.5007000000000  0.4326470000000 1.0
C      1  0.5132480000000  0.4250090000000  0.4706860000000 1.0
C      1  0.5192710000000  0.5775240000000  0.5361980000000 1.0
C      1  0.4967940000000  0.5787400000000  0.4725000000000 1.0
C      1  0.5715300000000  0.5269360000000  0.5135250000000 1.0
C      1  0.5702590000000  0.4766870000000  0.4908050000000 1.0
C      1  0.4234720000000  0.4561420000000  0.5072860000000 1.0
C      1  0.4726320000000  0.4932590000000  0.5713410000000 1.0
C      1  0.4610760000000  0.4973970000000  0.4325400000000 1.0
C      1  0.5303510000000  0.5120950000000  0.5738310000000 1.0
C      1  0.5333210000000  0.4304510000000  0.4917790000000 1.0
C      1  0.4958410000000  0.5391620000000  0.4332850000000 1.0
C      1  0.4294140000000  0.4817860000000  0.5195030000000 1.0
C      1  0.4689720000000  0.4254780000000  0.5153200000000 1.0
C      1  0.5393650000000  0.5750140000000  0.5146800000000 1.0
C      1  0.4756550000000  0.5791500000000  0.4939620000000 1.0
C      1  0.5129260000000  0.5364190000000  0.5754620000000 1.0
C      1  0.4914410000000  0.4695710000000  0.5769110000000 1.0
C      1  0.5049500000000  0.4651300000000  0.4341450000000 1.0
C      1  0.5753290000000  0.4966450000000  0.4681710000000 1.0
C      1  0.4250460000000  0.4941890000000  0.4657450000000 1.0
C      1  0.5710740000000  0.5069870000000  0.5357540000000 1.0
C      1  0.5467070000000  0.4781070000000  0.5096460000000 1.0
C      1  0.4792490000000  0.5146310000000  0.5507680000000 1.0
C      1  0.5196420000000  0.5621280000000  0.4692110000000 1.0
C      1  0.4389250000000  0.4494390000000  0.4840250000000 1.0
C      1  0.4539240000000  0.5424280000000  0.5163350000000 1.0
C      1  0.5520050000000  0.5285820000000  0.4915090000000 1.0
C      1  0.5433150000000  0.5258010000000  0.4432080000000 1.0
C      1  0.5271300000000  0.4899880000000  0.5545420000000 1.0
C      1  0.4581780000000  0.4699370000000  0.4426740000000 1.0
C      1  0.4961480000000  0.5584810000000  0.5340640000000 1.0
C      1  0.4897850000000  0.4434620000000  0.4718400000000 1.0
C      1  0.5087410000000  0.4503350000000  0.5341520000000 1.0
C      1  0.5143590000000  0.4639910000000  0.5615700000000 1.0
C      1  0.5621150000000  0.5210700000000  0.4647740000000 1.0
C      1  0.4724130000000  0.5644300000000  0.5180200000000 1.0
C      1  0.4817730000000  0.4546580000000  0.4455150000000 1.0
C      1  0.5220030000000  0.5455160000000  0.4454350000000 1.0
C      1  0.4917530000000  0.5406400000000  0.5580680000000 1.0
C      1  0.4597700000000  0.5174750000000  0.5281340000000 1.0
C      1  0.5513570000000  0.4877940000000  0.5366430000000 1.0
C      1  0.4372690000000  0.4673760000000  0.4623010000000 1.0
C      1  0.5324570000000  0.5536460000000  0.4946960000000 1.0
C      1  0.4667460000000  0.4425030000000  0.4921730000000 1.0
C      1  0.5250540000000  0.4548100000000  0.5079870000000 1.0
C      1  0.5031110000000  0.4676400000000  0.4879500000000 1.0
C      1  0.4664030000000  0.5217200000000  0.4631650000000 1.0
C      1  0.5090420000000  0.4932540000000  0.4442000000000 1.0
C      1  0.4771380000000  0.4732330000000  0.5031110000000 1.0
C      1  0.4453510000000  0.5102780000000  0.4832140000000 1.0
C      1  0.4877310000000  0.4720790000000  0.5296500000000 1.0
C      1  0.4858650000000  0.5116050000000  0.4411790000000 1.0
C      1  0.5010250000000  0.4977240000000  0.5362910000000 1.0
C      1  0.5133710000000  0.5403440000000  0.5153140000000 1.0
C      1  0.5313000000000  0.5026680000000  0.4951950000000 1.0
C      1  0.5191770000000  0.4869590000000  0.4730570000000 1.0
C      1  0.4542740000000  0.4955600000000  0.5077780000000 1.0
C      1  0.4495860000000  0.5410600000000  0.4465440000000 1.0
C      1  0.5388500000000  0.4668330000000  0.4633400000000 1.0
C      1  0.4633490000000  0.4619560000000  0.5424080000000 1.0
C      1  0.5334660000000  0.5339880000000  0.5341800000000 1.0
C      1  0.5099660000000  0.5123310000000  0.5124080000000 1.0
END
