TITL C-38517-6058-7 0.025025747648143 125000 -429.760167465039 0 0 64 (C1) n - 1
REM
REM in /rds/project/t2_vol4/rds-t2-cs072/BORA/CARBON/from-Arr/AIRSS/Generating-Clusters/GAP-ML-2020/Higher-Symm/SD-CG/HFTN-CG
REM
REM
REM
REM
REM
REM ./C.cell (b20cbc046b6831c77cfcea5457e17084)
REM AIRSS Version 0.9.1 bugfix July 2018 build 013d7b7c2542+ Fri, 06 Jul 2018 19:26:36 +0100
REM compiler GCC version 9.3.0
REM options -cpp -mtune=generic -march=x86-64 -g -O0
REM seed -28413125 600347185 1006655760 660915214 -2105807971 1608939787 -1881119252 1376168815 -1743755032 -321361265 1487637066 2118219328 -804631933 -53575503 2080946098 32054673 -1282240336 -706173813 1015090997 1960087047 -1414595944 -1013607265 -766918282 1027829280 1960037422 -953060512 -1785980780 884313539 1563417780 1654443216 -533378018 -677081739 -402359069
REM
CELL 1.54180   50.00000   50.00000   50.00000   90.00000   90.00000   90.00000
LATT -1
SFAC C  
C      1  0.4708480000000  0.4522980000000  0.4860190000000 1.0
C      1  0.4701750000000  0.5098510000000  0.4508950000000 1.0
C      1  0.4729680000000  0.5475310000000  0.4896550000000 1.0
C      1  0.4664140000000  0.5296290000000  0.5433400000000 1.0
C      1  0.4765190000000  0.4700460000000  0.5354190000000 1.0
C      1  0.5352070000000  0.4667690000000  0.5572050000000 1.0
C      1  0.5331160000000  0.4348870000000  0.4872270000000 1.0
C      1  0.5302120000000  0.4930910000000  0.4369670000000 1.0
C      1  0.5339070000000  0.5608560000000  0.4730250000000 1.0
C      1  0.5369690000000  0.5434430000000  0.5483280000000 1.0
C      1  0.5033620000000  0.4662410000000  0.5211660000000 1.0
C      1  0.4994820000000  0.4657760000000  0.4921560000000 1.0
C      1  0.4978770000000  0.5134790000000  0.4662760000000 1.0
C      1  0.5015840000000  0.5353690000000  0.4908050000000 1.0
C      1  0.5088630000000  0.5115860000000  0.5067060000000 1.0
C      1  0.5425450000000  0.5338450000000  0.4632710000000 1.0
C      1  0.5437100000000  0.5460170000000  0.5197210000000 1.0
C      1  0.5472880000000  0.4923600000000  0.5501490000000 1.0
C      1  0.5449420000000  0.4502570000000  0.5092500000000 1.0
C      1  0.5397230000000  0.4764640000000  0.4594830000000 1.0
C      1  0.4994010000000  0.4724210000000  0.4278260000000 1.0
C      1  0.5036040000000  0.5636350000000  0.4506290000000 1.0
C      1  0.5015580000000  0.5698070000000  0.5442290000000 1.0
C      1  0.5052920000000  0.4811300000000  0.5763190000000 1.0
C      1  0.5037400000000  0.4189660000000  0.5061060000000 1.0
C      1  0.4784060000000  0.4401090000000  0.5312650000000 1.0
C      1  0.4732650000000  0.4571630000000  0.4566210000000 1.0
C      1  0.4742040000000  0.5362550000000  0.4394620000000 1.0
C      1  0.4759620000000  0.5665900000000  0.5118510000000 1.0
C      1  0.4813460000000  0.5124850000000  0.5606330000000 1.0
C      1  0.5571840000000  0.4937800000000  0.5237190000000 1.0
C      1  0.5592390000000  0.4737680000000  0.5035050000000 1.0
C      1  0.5572770000000  0.4881520000000  0.4779690000000 1.0
C      1  0.5580860000000  0.5175690000000  0.4805400000000 1.0
C      1  0.5600260000000  0.5261130000000  0.5082590000000 1.0
C      1  0.4560730000000  0.4856060000000  0.5201560000000 1.0
C      1  0.4487140000000  0.4712460000000  0.4949960000000 1.0
C      1  0.4481700000000  0.5079640000000  0.4722700000000 1.0
C      1  0.4533670000000  0.5258600000000  0.4954260000000 1.0
C      1  0.4513550000000  0.5157420000000  0.5231910000000 1.0
C      1  0.5246830000000  0.4638690000000  0.5834970000000 1.0
C      1  0.5234670000000  0.4087650000000  0.4908690000000 1.0
C      1  0.5203950000000  0.4815950000000  0.4132870000000 1.0
C      1  0.5243100000000  0.5803710000000  0.4550650000000 1.0
C      1  0.5222800000000  0.5654260000000  0.5609820000000 1.0
C      1  0.5036060000000  0.5746940000000  0.5157370000000 1.0
C      1  0.5083220000000  0.5105110000000  0.5719430000000 1.0
C      1  0.5056160000000  0.4298070000000  0.5324600000000 1.0
C      1  0.5002620000000  0.4514560000000  0.4476460000000 1.0
C      1  0.5030810000000  0.5403480000000  0.4340940000000 1.0
C      1  0.4765080000000  0.5568420000000  0.4603860000000 1.0
C      1  0.4741800000000  0.5571400000000  0.5387890000000 1.0
C      1  0.4808240000000  0.4833290000000  0.5610970000000 1.0
C      1  0.4758190000000  0.4296680000000  0.5036590000000 1.0
C      1  0.4742820000000  0.4817100000000  0.4408460000000 1.0
C      1  0.5210670000000  0.5199680000000  0.4471470000000 1.0
C      1  0.5239460000000  0.5587520000000  0.5013820000000 1.0
C      1  0.5338610000000  0.5165600000000  0.5597120000000 1.0
C      1  0.5263010000000  0.4510420000000  0.5332920000000 1.0
C      1  0.5202910000000  0.4553000000000  0.4694710000000 1.0
C      1  0.4666580000000  0.4964740000000  0.4939210000000 1.0
C      1  0.5376190000000  0.5081270000000  0.5078480000000 1.0
C      1  0.4324800000000  0.4839290000000  0.4749690000000 1.0
C      1  0.4951350000000  0.4941140000000  0.4888670000000 1.0
END
