TITL C-38506-6113-4 -0.124534117541848 125000 -551.480704885624 0 0 82 (C1) n - 1
REM
REM in /rds/project/t2_vol4/rds-t2-cs072/BORA/CARBON/from-Arr/AIRSS/Generating-Clusters/GAP-ML-2020/Higher-Symm/SD-CG/HFTN-CG
REM
REM
REM
REM
REM
REM ./C.cell (b20cbc046b6831c77cfcea5457e17084)
REM AIRSS Version 0.9.1 bugfix July 2018 build 013d7b7c2542+ Fri, 06 Jul 2018 19:26:36 +0100
REM compiler GCC version 9.3.0
REM options -cpp -mtune=generic -march=x86-64 -g -O0
REM seed -788396923 -62110937 -1311881035 36162929 1556433391 1634027965 -1451967203 579362865 -737195340 1351461552 -773040792 1201836978 987488105 248194684 1672697812 -738952991 33182541 1553120878 -1988383331 1246392510 -1587830490 -233100729 1308359543 -421495204 1311423516 -553848020 -623344509 792760490 -380837792 1227573070 -260479933 1013528629 1707322674
REM
CELL 1.54180   50.00000   50.00000   50.00000   90.00000   90.00000   90.00000
LATT -1
SFAC C  
C      1  0.4677300000000  0.5555990000000  0.4450730000000 1.0
C      1  0.4674580000000  0.5200530000000  0.5740650000000 1.0
C      1  0.4670140000000  0.4259590000000  0.4793390000000 1.0
C      1  0.4848200000000  0.5747780000000  0.5578560000000 1.0
C      1  0.4863420000000  0.5130400000000  0.4046640000000 1.0
C      1  0.4847490000000  0.4122430000000  0.5362810000000 1.0
C      1  0.4523430000000  0.4600920000000  0.4478150000000 1.0
C      1  0.4515550000000  0.5662040000000  0.4897380000000 1.0
C      1  0.4512950000000  0.4764950000000  0.5626320000000 1.0
C      1  0.4536370000000  0.4513750000000  0.5484160000000 1.0
C      1  0.4529100000000  0.5662510000000  0.5185340000000 1.0
C      1  0.4543430000000  0.4838530000000  0.4320960000000 1.0
C      1  0.4326760000000  0.4988350000000  0.5543950000000 1.0
C      1  0.4413110000000  0.4615110000000  0.4747330000000 1.0
C      1  0.4402100000000  0.5432120000000  0.4757610000000 1.0
C      1  0.4522340000000  0.5089200000000  0.4456450000000 1.0
C      1  0.4511110000000  0.4506620000000  0.5198290000000 1.0
C      1  0.4500720000000  0.5408810000000  0.5326730000000 1.0
C      1  0.5049390000000  0.4977220000000  0.4395660000000 1.0
C      1  0.5030110000000  0.5521420000000  0.5268790000000 1.0
C      1  0.5041100000000  0.4492600000000  0.5315510000000 1.0
C      1  0.5019070000000  0.4977930000000  0.5611410000000 1.0
C      1  0.5019540000000  0.5540500000000  0.4706910000000 1.0
C      1  0.5018540000000  0.4482860000000  0.4676220000000 1.0
C      1  0.4579860000000  0.5256310000000  0.4874130000000 1.0
C      1  0.4489530000000  0.4969410000000  0.5141330000000 1.0
C      1  0.4537410000000  0.4835850000000  0.4868590000000 1.0
C      1  0.4642250000000  0.5223100000000  0.5148740000000 1.0
C      1  0.4668640000000  0.5039980000000  0.4706680000000 1.0
C      1  0.4667620000000  0.4734400000000  0.5115030000000 1.0
C      1  0.4793060000000  0.4913140000000  0.4205910000000 1.0
C      1  0.4775150000000  0.5723210000000  0.5311760000000 1.0
C      1  0.4783870000000  0.4373690000000  0.5465760000000 1.0
C      1  0.4734450000000  0.4914470000000  0.5717630000000 1.0
C      1  0.4738850000000  0.5685230000000  0.4709930000000 1.0
C      1  0.4735810000000  0.4422740000000  0.4554850000000 1.0
C      1  0.5380650000000  0.4998000000000  0.5283420000000 1.0
C      1  0.5383940000000  0.4757380000000  0.4856270000000 1.0
C      1  0.5382570000000  0.5246480000000  0.4860990000000 1.0
C      1  0.5458400000000  0.5006560000000  0.4721630000000 1.0
C      1  0.5456250000000  0.4757390000000  0.5134200000000 1.0
C      1  0.5451000000000  0.5239470000000  0.5146250000000 1.0
C      1  0.5524100000000  0.5672810000000  0.5131090000000 1.0
C      1  0.5531890000000  0.4551060000000  0.5518060000000 1.0
C      1  0.5539080000000  0.4773500000000  0.4354200000000 1.0
C      1  0.5526930000000  0.5681500000000  0.4833650000000 1.0
C      1  0.5529530000000  0.4512890000000  0.4497930000000 1.0
C      1  0.5524510000000  0.4804690000000  0.5673930000000 1.0
C      1  0.5608220000000  0.4997640000000  0.5498210000000 1.0
C      1  0.5613140000000  0.4572300000000  0.4751650000000 1.0
C      1  0.5611950000000  0.5432800000000  0.4757480000000 1.0
C      1  0.5644590000000  0.4983590000000  0.4496640000000 1.0
C      1  0.5640790000000  0.4572290000000  0.5267150000000 1.0
C      1  0.5633050000000  0.5446230000000  0.5241800000000 1.0
C      1  0.5230790000000  0.4508530000000  0.4461910000000 1.0
C      1  0.5227870000000  0.5712940000000  0.4838440000000 1.0
C      1  0.5227650000000  0.4777470000000  0.5695040000000 1.0
C      1  0.5241650000000  0.4537990000000  0.5530920000000 1.0
C      1  0.5233410000000  0.5688120000000  0.5125640000000 1.0
C      1  0.5248580000000  0.4768050000000  0.4333570000000 1.0
C      1  0.5819460000000  0.5248160000000  0.5145930000000 1.0
C      1  0.5824010000000  0.4756960000000  0.5144320000000 1.0
C      1  0.5824820000000  0.5001920000000  0.4720560000000 1.0
C      1  0.5834710000000  0.5256990000000  0.4855740000000 1.0
C      1  0.5836710000000  0.4745620000000  0.4856720000000 1.0
C      1  0.5832720000000  0.5004130000000  0.5298180000000 1.0
C      1  0.4948510000000  0.5473530000000  0.4412470000000 1.0
C      1  0.4949720000000  0.5270810000000  0.5700530000000 1.0
C      1  0.4943810000000  0.4256440000000  0.4880600000000 1.0
C      1  0.5011260000000  0.5510430000000  0.5575710000000 1.0
C      1  0.5014890000000  0.5252710000000  0.4256650000000 1.0
C      1  0.5008110000000  0.4232560000000  0.5149920000000 1.0
C      1  0.4974710000000  0.5008210000000  0.4696690000000 1.0
C      1  0.4960390000000  0.5244720000000  0.5147920000000 1.0
C      1  0.4968870000000  0.4741880000000  0.5139190000000 1.0
C      1  0.5075810000000  0.4991110000000  0.5294890000000 1.0
C      1  0.5078430000000  0.5258330000000  0.4852400000000 1.0
C      1  0.5078290000000  0.4748370000000  0.4843420000000 1.0
C      1  0.4450810000000  0.5258540000000  0.5571920000000 1.0
C      1  0.4461290000000  0.5370410000000  0.4476440000000 1.0
C      1  0.4464300000000  0.4397450000000  0.4938740000000 1.0
C      1  0.4243150000000  0.4945260000000  0.5295420000000 1.0
END
