TITL C-38513-6159-3 -42.7602821887584 125000 -298.330327262418 0 0 45 (C1) n - 1
REM
REM in /rds/project/t2_vol4/rds-t2-cs072/BORA/CARBON/from-Arr/AIRSS/Generating-Clusters/GAP-ML-2020/Higher-Symm/SD-CG/HFTN-CG
REM
REM
REM
REM
REM
REM ./C.cell (b20cbc046b6831c77cfcea5457e17084)
REM AIRSS Version 0.9.1 bugfix July 2018 build 013d7b7c2542+ Fri, 06 Jul 2018 19:26:36 +0100
REM compiler GCC version 9.3.0
REM options -cpp -mtune=generic -march=x86-64 -g -O0
REM seed -1124281149 990197077 1597042579 -1697273280 1168304036 2006936168 -154061885 -1806224310 703579020 -1470758899 -2052591855 320669703 1325693680 -199658822 -1377744350 -871311609 1631455576 -980214581 1616249982 -1529504432 533574995 -89729844 26172594 1829930704 -854615587 -2086158706 -676071276 266613231 -1617957575 -438778500 -376580281 463617393 1938440251
REM
CELL 1.54180   50.00000   50.00000   50.00000   90.00000   90.00000   90.00000
LATT -1
SFAC C  
C      1  0.5225110000000  0.4997490000000  0.5328590000000 1.0
C      1  0.5076220000000  0.4736010000000  0.5371500000000 1.0
C      1  0.4780400000000  0.4797830000000  0.5408720000000 1.0
C      1  0.4746080000000  0.5106330000000  0.5393170000000 1.0
C      1  0.5024990000000  0.5225330000000  0.5359340000000 1.0
C      1  0.5288630000000  0.5043860000000  0.4613450000000 1.0
C      1  0.5127200000000  0.4784730000000  0.4652600000000 1.0
C      1  0.4836070000000  0.4866680000000  0.4706670000000 1.0
C      1  0.4819620000000  0.5164850000000  0.4688560000000 1.0
C      1  0.5094440000000  0.5281340000000  0.4637630000000 1.0
C      1  0.5071990000000  0.5463350000000  0.5206630000000 1.0
C      1  0.5453490000000  0.5039700000000  0.5160690000000 1.0
C      1  0.5168200000000  0.4488760000000  0.5252560000000 1.0
C      1  0.4561410000000  0.4640570000000  0.5288240000000 1.0
C      1  0.4547480000000  0.5228470000000  0.5221240000000 1.0
C      1  0.5163970000000  0.5533850000000  0.4768940000000 1.0
C      1  0.5561300000000  0.5034930000000  0.4727890000000 1.0
C      1  0.5223870000000  0.4563340000000  0.4810560000000 1.0
C      1  0.4662950000000  0.4695260000000  0.4857260000000 1.0
C      1  0.4590570000000  0.5316260000000  0.4783170000000 1.0
C      1  0.5259050000000  0.5001180000000  0.5642870000000 1.0
C      1  0.5113280000000  0.4754420000000  0.5674560000000 1.0
C      1  0.4827730000000  0.4813690000000  0.5704810000000 1.0
C      1  0.4790110000000  0.5105080000000  0.5695760000000 1.0
C      1  0.5062950000000  0.5215190000000  0.5666750000000 1.0
C      1  0.5224480000000  0.5035290000000  0.4318240000000 1.0
C      1  0.5067990000000  0.4790140000000  0.4352130000000 1.0
C      1  0.4789340000000  0.4867930000000  0.4397970000000 1.0
C      1  0.4776470000000  0.5151540000000  0.4381180000000 1.0
C      1  0.5039420000000  0.5263190000000  0.4340900000000 1.0
C      1  0.5447090000000  0.4466430000000  0.5210900000000 1.0
C      1  0.4622950000000  0.4382710000000  0.5197880000000 1.0
C      1  0.4391240000000  0.5047630000000  0.5047980000000 1.0
C      1  0.4851840000000  0.5596430000000  0.5069180000000 1.0
C      1  0.5504320000000  0.5305400000000  0.5045100000000 1.0
C      1  0.5473160000000  0.4596890000000  0.4965500000000 1.0
C      1  0.4769830000000  0.4447160000000  0.4970350000000 1.0
C      1  0.4355090000000  0.5159700000000  0.4793770000000 1.0
C      1  0.4955300000000  0.5711320000000  0.4833000000000 1.0
C      1  0.5662330000000  0.5278520000000  0.4817560000000 1.0
C      1  0.4476350000000  0.4785580000000  0.5047850000000 1.0
C      1  0.5553750000000  0.4861210000000  0.4967850000000 1.0
C      1  0.4628210000000  0.5436800000000  0.5045900000000 1.0
C      1  0.5288710000000  0.5474610000000  0.5029630000000 1.0
C      1  0.5045020000000  0.4443020000000  0.4990470000000 1.0
END
