TITL C-38732-381-5 182.840372114591 125000 -355.367777405921 0 0 54 (C3i) n - 1
REM
REM in /rds/project/t2_vol4/rds-t2-cs072/BORA/CARBON/from-Arr/AIRSS/Generating-Clusters/GAP-ML-2020/Higher-Symm/SD-CG/HFTN-CG
REM
REM
REM
REM
REM
REM ./C.cell (b20cbc046b6831c77cfcea5457e17084)
REM AIRSS Version 0.9.1 bugfix July 2018 build 013d7b7c2542+ Fri, 06 Jul 2018 19:26:36 +0100
REM compiler GCC version 9.3.0
REM options -cpp -mtune=generic -march=x86-64 -g -O0
REM seed 1443425240 1689481629 -1496959272 345985958 1684901912 -288650063 301493551 680262344 1841843813 -108850713 -1222187306 -1710742381 1702478403 -1328061800 -2024696167 -2007444724 1104174426 558604017 810314932 -2121521094 -1968161003 584113113 -1989154599 291744047 -1135211578 644184228 1638229348 738958448 211889632 1525080186 1473170306 -1146432458 -715469293
REM
CELL 1.54180   50.00000   50.00000   50.00000   90.00000   90.00000   90.00000
LATT -1
SFAC C  
C      1  0.5741900000000  0.5264930000000  0.4975530000000 1.0
C      1  0.4258210000000  0.5111600000000  0.4758140000000 1.0
C      1  0.5741780000000  0.4846010000000  0.4782620000000 1.0
C      1  0.4258100000000  0.4735070000000  0.5024470000000 1.0
C      1  0.5741790000000  0.4888400000000  0.5241860000000 1.0
C      1  0.4258220000000  0.5153990000000  0.5217380000000 1.0
C      1  0.4868640000000  0.4286830000000  0.5262310000000 1.0
C      1  0.5131110000000  0.4870520000000  0.5748810000000 1.0
C      1  0.4869010000000  0.5583810000000  0.5486500000000 1.0
C      1  0.5131360000000  0.5713170000000  0.4737690000000 1.0
C      1  0.4868890000000  0.5129480000000  0.4251190000000 1.0
C      1  0.5130990000000  0.4416190000000  0.4513500000000 1.0
C      1  0.4691630000000  0.4728170000000  0.4485340000000 1.0
C      1  0.5308120000000  0.4418240000000  0.4978160000000 1.0
C      1  0.4691620000000  0.4690340000000  0.5492820000000 1.0
C      1  0.5308370000000  0.5271830000000  0.5514660000000 1.0
C      1  0.4691880000000  0.5581760000000  0.5021840000000 1.0
C      1  0.5308380000000  0.5309660000000  0.4507180000000 1.0
C      1  0.5351740000000  0.5131950000000  0.4748700000000 1.0
C      1  0.4648260000000  0.4848490000000  0.4759990000000 1.0
C      1  0.5351620000000  0.4716240000000  0.5011290000000 1.0
C      1  0.4648260000000  0.4868050000000  0.5251300000000 1.0
C      1  0.5351740000000  0.5151510000000  0.5240010000000 1.0
C      1  0.4648380000000  0.5283760000000  0.4988700000000 1.0
C      1  0.4538650000000  0.5143860000000  0.5233660000000 1.0
C      1  0.5461470000000  0.5274090000000  0.4992360000000 1.0
C      1  0.4538650000000  0.5130630000000  0.4758690000000 1.0
C      1  0.5461350000000  0.4856140000000  0.4766340000000 1.0
C      1  0.4538530000000  0.4725910000000  0.5007640000000 1.0
C      1  0.5461350000000  0.4869370000000  0.5241310000000 1.0
C      1  0.5285690000000  0.4363450000000  0.4711010000000 1.0
C      1  0.4713960000000  0.4431580000000  0.5406700000000 1.0
C      1  0.5285880000000  0.5067880000000  0.5695690000000 1.0
C      1  0.4714310000000  0.5636550000000  0.5288990000000 1.0
C      1  0.5286040000000  0.5568420000000  0.4593300000000 1.0
C      1  0.4714110000000  0.4932120000000  0.4304310000000 1.0
C      1  0.4190470000000  0.4887890000000  0.5250540000000 1.0
C      1  0.5809540000000  0.5160570000000  0.5222570000000 1.0
C      1  0.4190580000000  0.5273390000000  0.4972020000000 1.0
C      1  0.5809530000000  0.5112110000000  0.4749460000000 1.0
C      1  0.4190450000000  0.4839430000000  0.4777430000000 1.0
C      1  0.5809420000000  0.4726610000000  0.5027980000000 1.0
C      1  0.4961820000000  0.4632030000000  0.4554250000000 1.0
C      1  0.5037910000000  0.4429970000000  0.5095800000000 1.0
C      1  0.4961860000000  0.4797970000000  0.5541560000000 1.0
C      1  0.5038180000000  0.5367970000000  0.5445750000000 1.0
C      1  0.4962090000000  0.5570030000000  0.4904200000000 1.0
C      1  0.5038140000000  0.5202030000000  0.4458440000000 1.0
C      1  0.4953040000000  0.5280030000000  0.4957260000000 1.0
C      1  0.5047080000000  0.5102980000000  0.4736130000000 1.0
C      1  0.4952900000000  0.4822990000000  0.4778870000000 1.0
C      1  0.5046960000000  0.4719970000000  0.5042740000000 1.0
C      1  0.4952920000000  0.4897020000000  0.5263870000000 1.0
C      1  0.5047100000000  0.5177010000000  0.5221130000000 1.0
END
