TITL C-38719-9585-10 37.3365975484439 125000 -436.635214501534 0 0 64 (Ci) n - 1
REM
REM in /rds/project/t2_vol4/rds-t2-cs072/BORA/CARBON/from-Arr/AIRSS/Generating-Clusters/GAP-ML-2020/Higher-Symm/SD-CG/HFTN-CG
REM
REM
REM
REM
REM
REM ./C.cell (b20cbc046b6831c77cfcea5457e17084)
REM AIRSS Version 0.9.1 bugfix July 2018 build 013d7b7c2542+ Fri, 06 Jul 2018 19:26:36 +0100
REM compiler GCC version 9.3.0
REM options -cpp -mtune=generic -march=x86-64 -g -O0
REM seed -4353597 2147255823 1810678393 -1614560657 -1229811520 1129957891 -860874402 1003861508 1469970090 1393818393 -1335690550 953970506 1602357731 1507263251 1661273163 1326339148 -1165636581 556736093 -536414054 1248721205 -1955661271 -871265349 1474099330 388218974 -259113740 -336743857 -143261318 -794209108 1458471215 1579630192 2001344147 228588621 -1836153779
REM
CELL 1.54180   50.00000   50.00000   50.00000   90.00000   90.00000   90.00000
LATT -1
SFAC C  
C      1  0.4294250000000  0.4868730000000  0.4900860000000 1.0
C      1  0.5705750000000  0.5131270000000  0.5099140000000 1.0
C      1  0.5702390000000  0.4949380000000  0.5308290000000 1.0
C      1  0.4297610000000  0.5050620000000  0.4691710000000 1.0
C      1  0.4488790000000  0.5418330000000  0.4998350000000 1.0
C      1  0.5511210000000  0.4581670000000  0.5001650000000 1.0
C      1  0.5240530000000  0.4893340000000  0.5245620000000 1.0
C      1  0.4759470000000  0.5106660000000  0.4754380000000 1.0
C      1  0.5094710000000  0.5301850000000  0.4469380000000 1.0
C      1  0.4905290000000  0.4698150000000  0.5530620000000 1.0
C      1  0.4471380000000  0.4935390000000  0.4478270000000 1.0
C      1  0.5528620000000  0.5064610000000  0.5521730000000 1.0
C      1  0.4482380000000  0.4641320000000  0.4835080000000 1.0
C      1  0.5517620000000  0.5358680000000  0.5164920000000 1.0
C      1  0.5305160000000  0.4392820000000  0.5061270000000 1.0
C      1  0.4694840000000  0.5607180000000  0.4938730000000 1.0
C      1  0.4919240000000  0.4756830000000  0.5016610000000 1.0
C      1  0.5080760000000  0.5243170000000  0.4983390000000 1.0
C      1  0.4638330000000  0.4803090000000  0.5538840000000 1.0
C      1  0.5361670000000  0.5196910000000  0.4461160000000 1.0
C      1  0.5089820000000  0.4870890000000  0.5685180000000 1.0
C      1  0.4910180000000  0.5129110000000  0.4314820000000 1.0
C      1  0.5253250000000  0.4417840000000  0.5342870000000 1.0
C      1  0.4746750000000  0.5582160000000  0.4657130000000 1.0
C      1  0.4648560000000  0.5155330000000  0.4425470000000 1.0
C      1  0.5351440000000  0.4844670000000  0.5574530000000 1.0
C      1  0.4937090000000  0.5638500000000  0.5088140000000 1.0
C      1  0.5062910000000  0.4361500000000  0.4911860000000 1.0
C      1  0.4917290000000  0.4677740000000  0.4538050000000 1.0
C      1  0.5082710000000  0.5322260000000  0.5461950000000 1.0
C      1  0.5495710000000  0.5278500000000  0.4700280000000 1.0
C      1  0.4504290000000  0.4721500000000  0.5299720000000 1.0
C      1  0.5539210000000  0.5046700000000  0.4866420000000 1.0
C      1  0.4460790000000  0.4953300000000  0.5133580000000 1.0
C      1  0.4679720000000  0.4882650000000  0.4910310000000 1.0
C      1  0.5320280000000  0.5117350000000  0.5089690000000 1.0
C      1  0.4555100000000  0.5406740000000  0.4541770000000 1.0
C      1  0.5444900000000  0.4593260000000  0.5458230000000 1.0
C      1  0.5430150000000  0.5487540000000  0.4900280000000 1.0
C      1  0.4569850000000  0.4512460000000  0.5099720000000 1.0
C      1  0.4964480000000  0.4897520000000  0.5255920000000 1.0
C      1  0.5035520000000  0.5102480000000  0.4744080000000 1.0
C      1  0.4857950000000  0.4459270000000  0.5105250000000 1.0
C      1  0.5142050000000  0.5540730000000  0.4894750000000 1.0
C      1  0.5033510000000  0.4870520000000  0.4335560000000 1.0
C      1  0.4966490000000  0.5129480000000  0.5664440000000 1.0
C      1  0.4563900000000  0.5226210000000  0.5204970000000 1.0
C      1  0.5436100000000  0.4773790000000  0.4795030000000 1.0
C      1  0.4372910000000  0.5322850000000  0.4749250000000 1.0
C      1  0.5627090000000  0.4677150000000  0.5250750000000 1.0
C      1  0.4614260000000  0.4695230000000  0.4578990000000 1.0
C      1  0.5385740000000  0.5304770000000  0.5421010000000 1.0
C      1  0.5315400000000  0.4914380000000  0.4379930000000 1.0
C      1  0.4684600000000  0.5085620000000  0.5620070000000 1.0
C      1  0.4683510000000  0.5548180000000  0.5484010000000 1.0
C      1  0.5316490000000  0.4451820000000  0.4515990000000 1.0
C      1  0.4559770000000  0.5303770000000  0.5490620000000 1.0
C      1  0.5440230000000  0.4696230000000  0.4509380000000 1.0
C      1  0.4930630000000  0.5564170000000  0.5374760000000 1.0
C      1  0.5069370000000  0.4435830000000  0.4625240000000 1.0
C      1  0.4899330000000  0.5184640000000  0.5212360000000 1.0
C      1  0.5100670000000  0.4815360000000  0.4787640000000 1.0
C      1  0.5018810000000  0.5543340000000  0.4619900000000 1.0
C      1  0.4981190000000  0.4456660000000  0.5380100000000 1.0
END
