TITL C-38619-668-3 -0.0210526241930546 125000 -105.303484400074 0 0 17 (C1) n - 1
REM
REM in /rds/project/t2_vol4/rds-t2-cs072/BORA/CARBON/from-Arr/AIRSS/Generating-Clusters/GAP-ML-2020/Higher-Symm/SD-CG/HFTN-CG
REM
REM
REM
REM
REM
REM ./C.cell (b20cbc046b6831c77cfcea5457e17084)
REM AIRSS Version 0.9.1 bugfix July 2018 build 013d7b7c2542+ Fri, 06 Jul 2018 19:26:36 +0100
REM compiler GCC version 9.3.0
REM options -cpp -mtune=generic -march=x86-64 -g -O0
REM seed 1393747459 -1949551156 -668634912 1119019221 -268927833 776405331 1050172971 -156480559 1697167863 979156406 1365038840 1581950564 -798170058 -13230596 359923853 1485006840 -132608865 -1744610636 1634417095 -1111394229 -373426876 1523052086 -238211215 1315927458 2069429209 -579444137 -878968371 -451856198 -708611539 -1500324668 -997791287 -625688277 1404590822
REM
CELL 1.54180   50.00000   50.00000   50.00000   90.00000   90.00000   90.00000
LATT -1
SFAC C  
C      1  0.5074710000000  0.4441750000000  0.5093880000000 1.0
C      1  0.5081450000000  0.5573460000000  0.5069900000000 1.0
C      1  0.4589110000000  0.4879880000000  0.5295130000000 1.0
C      1  0.4607900000000  0.5157730000000  0.5281400000000 1.0
C      1  0.5308210000000  0.4798070000000  0.4839380000000 1.0
C      1  0.5332290000000  0.5265100000000  0.4843680000000 1.0
C      1  0.5151680000000  0.5191290000000  0.4609610000000 1.0
C      1  0.5187890000000  0.4936740000000  0.4621850000000 1.0
C      1  0.5312930000000  0.5499760000000  0.4983340000000 1.0
C      1  0.5246110000000  0.4568020000000  0.4958370000000 1.0
C      1  0.4619500000000  0.4869010000000  0.4998460000000 1.0
C      1  0.4626620000000  0.5144570000000  0.4983650000000 1.0
C      1  0.4834760000000  0.4416440000000  0.5190310000000 1.0
C      1  0.4835210000000  0.5614900000000  0.5128980000000 1.0
C      1  0.4707310000000  0.5368640000000  0.5119580000000 1.0
C      1  0.4700320000000  0.4654110000000  0.5157550000000 1.0
C      1  0.5466570000000  0.5023830000000  0.4923580000000 1.0
END
