TITL C-38630-683-8 0.238195198956751 125000 -24.7148474618047 0 0 5 (D3h) n - 1
REM
REM in /rds/project/t2_vol4/rds-t2-cs072/BORA/CARBON/from-Arr/AIRSS/Generating-Clusters/GAP-ML-2020/Higher-Symm/SD-CG/HFTN-CG
REM
REM
REM
REM
REM
REM ./C.cell (b20cbc046b6831c77cfcea5457e17084)
REM AIRSS Version 0.9.1 bugfix July 2018 build 013d7b7c2542+ Fri, 06 Jul 2018 19:26:36 +0100
REM compiler GCC version 9.3.0
REM options -cpp -mtune=generic -march=x86-64 -g -O0
REM seed -1520761283 -1012199699 940489165 353061138 -1570319506 444666079 -55413648 1576349134 578275657 -296563602 -12566633 -873269861 1150073788 1812151706 -1839802301 1842318660 -1737466863 -1777427145 1022080961 1058678776 -1499346348 -671428173 797086120 -329493123 -382408622 1880632528 -702827851 34216981 -331235465 290672267 1885168315 721143248 1336949373
REM
CELL 1.54180   50.00000   50.00000   50.00000   90.00000   90.00000   90.00000
LATT -1
SFAC C  
C      1  0.4739770000000  0.5021520000000  0.5044550000000 1.0
C      1  0.5086270000000  0.4830330000000  0.5044530000000 1.0
C      1  0.5078590000000  0.5226000000000  0.5044550000000 1.0
C      1  0.4968210000000  0.5025940000000  0.5245990000000 1.0
C      1  0.4968200000000  0.5025960000000  0.4843100000000 1.0
END
