TITL C-39748-1810-5 131.115297069237 125000 -274.619092906759 0 0 42 (Ci) n - 1
REM
REM in /rds/project/t2_vol4/rds-t2-cs072/BORA/CARBON/from-Arr/AIRSS/Generating-Clusters/GAP-ML-2020/Higher-Symm/SD-CG/HFTN-CG
REM
REM
REM
REM
REM
REM ./C.cell (b20cbc046b6831c77cfcea5457e17084)
REM AIRSS Version 0.9.1 bugfix July 2018 build 013d7b7c2542+ Fri, 06 Jul 2018 19:26:36 +0100
REM compiler GCC version 9.3.0
REM options -cpp -mtune=generic -march=x86-64 -g -O0
REM seed -1285071234 -1609739682 -371615856 1924287738 751578006 -1694678436 523437681 -1617629286 -1521229345 689552388 -1932138475 -988777190 -421592749 237118981 -793371850 1932374948 1548484447 -441726036 -1668192514 -1906248076 127984072 1574398785 196477763 -316995937 1855653668 -1189116747 -23765058 -1296217116 -631848427 1173520672 92102108 1884280073 -1554212727
REM
CELL 1.54180   50.00000   50.00000   50.00000   90.00000   90.00000   90.00000
LATT -1
SFAC C  
C      1  0.4724470000000  0.5276900000000  0.5092210000000 1.0
C      1  0.5330750000000  0.4831550000000  0.5159090000000 1.0
C      1  0.4669250000000  0.5168460000000  0.4821730000000 1.0
C      1  0.5275530000000  0.4723100000000  0.4888610000000 1.0
C      1  0.4428450000000  0.4921570000000  0.5264540000000 1.0
C      1  0.5639310000000  0.5147730000000  0.5223650000000 1.0
C      1  0.4360690000000  0.4852270000000  0.4757170000000 1.0
C      1  0.5571550000000  0.5078430000000  0.4716280000000 1.0
C      1  0.4698890000000  0.4847210000000  0.5284570000000 1.0
C      1  0.5377780000000  0.5235300000000  0.5289770000000 1.0
C      1  0.4622220000000  0.4764700000000  0.4691050000000 1.0
C      1  0.5301110000000  0.5152790000000  0.4696250000000 1.0
C      1  0.4285380000000  0.4729600000000  0.5122270000000 1.0
C      1  0.5820970000000  0.5321180000000  0.5093230000000 1.0
C      1  0.4179030000000  0.4678820000000  0.4887580000000 1.0
C      1  0.5714620000000  0.5270400000000  0.4858550000000 1.0
C      1  0.4739540000000  0.4567950000000  0.4864560000000 1.0
C      1  0.5221900000000  0.5391500000000  0.4832130000000 1.0
C      1  0.4778100000000  0.4608500000000  0.5148690000000 1.0
C      1  0.5260460000000  0.5432050000000  0.5116260000000 1.0
C      1  0.4880880000000  0.5082880000000  0.5309510000000 1.0
C      1  0.5180510000000  0.5011070000000  0.5334590000000 1.0
C      1  0.4819480000000  0.4988940000000  0.4646230000000 1.0
C      1  0.5119120000000  0.4917120000000  0.4671310000000 1.0
C      1  0.5197950000000  0.4778340000000  0.5542820000000 1.0
C      1  0.4850860000000  0.5282050000000  0.5542660000000 1.0
C      1  0.5149140000000  0.4717950000000  0.4438160000000 1.0
C      1  0.4802050000000  0.5221660000000  0.4437990000000 1.0
C      1  0.5046810000000  0.5580380000000  0.5225100000000 1.0
C      1  0.5014720000000  0.4466940000000  0.5220800000000 1.0
C      1  0.4985280000000  0.5533060000000  0.4760020000000 1.0
C      1  0.4953190000000  0.4419620000000  0.4755720000000 1.0
C      1  0.5117110000000  0.4541280000000  0.5468610000000 1.0
C      1  0.4964050000000  0.5503060000000  0.5480390000000 1.0
C      1  0.5035950000000  0.4496940000000  0.4500430000000 1.0
C      1  0.4882890000000  0.5458720000000  0.4512210000000 1.0
C      1  0.5569440000000  0.4817350000000  0.4843590000000 1.0
C      1  0.4393490000000  0.5125470000000  0.4849520000000 1.0
C      1  0.5606510000000  0.4874530000000  0.5131290000000 1.0
C      1  0.4430560000000  0.5182650000000  0.5137230000000 1.0
C      1  0.5157810000000  0.4459210000000  0.4956020000000 1.0
C      1  0.4842190000000  0.5540790000000  0.5024800000000 1.0
END
