TITL C-39745-1820-12 -0.0426709656829817 125000 -269.795062257216 0 0 40 (C3) n - 1
REM
REM in /rds/project/t2_vol4/rds-t2-cs072/BORA/CARBON/from-Arr/AIRSS/Generating-Clusters/GAP-ML-2020/Higher-Symm/SD-CG/HFTN-CG
REM
REM
REM
REM
REM
REM ./C.cell (b20cbc046b6831c77cfcea5457e17084)
REM AIRSS Version 0.9.1 bugfix July 2018 build 013d7b7c2542+ Fri, 06 Jul 2018 19:26:36 +0100
REM compiler GCC version 9.3.0
REM options -cpp -mtune=generic -march=x86-64 -g -O0
REM seed 1751519126 -659818234 -917746646 1430857136 138121868 -1351182226 -1992469370 -2134629149 230867323 2054866952 -69353458 1673465077 1135472912 -1799062677 1437763495 1115289904 -268230229 999336661 761023501 -1633711459 -2056513935 1377226374 -1838549082 289997827 -2078690849 1517792732 2070578613 -388583015 -680950779 1872461837 -375515918 1234915941 -1171651857
REM
CELL 1.54180   50.00000   50.00000   50.00000   90.00000   90.00000   90.00000
LATT -1
SFAC C  
C      1  0.5547610000000  0.5031950000000  0.4939110000000 1.0
C      1  0.4676030000000  0.5043760000000  0.4553770000000 1.0
C      1  0.4778700000000  0.5070070000000  0.5500890000000 1.0
C      1  0.5187380000000  0.5371800000000  0.5557370000000 1.0
C      1  0.5412790000000  0.5334740000000  0.4550010000000 1.0
C      1  0.4427440000000  0.5370930000000  0.4857770000000 1.0
C      1  0.4549190000000  0.5102100000000  0.5328190000000 1.0
C      1  0.5515040000000  0.5072680000000  0.5223380000000 1.0
C      1  0.4940640000000  0.5064170000000  0.4439340000000 1.0
C      1  0.5169260000000  0.4626820000000  0.4528950000000 1.0
C      1  0.4483170000000  0.4662830000000  0.5095250000000 1.0
C      1  0.5317190000000  0.4649770000000  0.5406630000000 1.0
C      1  0.4940180000000  0.5306970000000  0.5459210000000 1.0
C      1  0.5446950000000  0.5273420000000  0.4814630000000 1.0
C      1  0.4634920000000  0.5291860000000  0.4697620000000 1.0
C      1  0.4788690000000  0.4557720000000  0.5473190000000 1.0
C      1  0.5484260000000  0.4522950000000  0.4955810000000 1.0
C      1  0.4687860000000  0.4533990000000  0.4611810000000 1.0
C      1  0.5428850000000  0.5347310000000  0.5255690000000 1.0
C      1  0.5030020000000  0.5334670000000  0.4491730000000 1.0
C      1  0.4568040000000  0.5369520000000  0.5218530000000 1.0
C      1  0.4892360000000  0.5423490000000  0.4726500000000 1.0
C      1  0.4845540000000  0.5439880000000  0.5218760000000 1.0
C      1  0.5295340000000  0.5421370000000  0.5013530000000 1.0
C      1  0.5413020000000  0.4591350000000  0.4684340000000 1.0
C      1  0.4493430000000  0.4620070000000  0.4807350000000 1.0
C      1  0.5060430000000  0.4627270000000  0.5542240000000 1.0
C      1  0.5260040000000  0.5426980000000  0.4363700000000 1.0
C      1  0.4348860000000  0.5473730000000  0.5080960000000 1.0
C      1  0.5426340000000  0.5457740000000  0.5511860000000 1.0
C      1  0.5443220000000  0.4895120000000  0.5411160000000 1.0
C      1  0.5126790000000  0.4873010000000  0.4411960000000 1.0
C      1  0.4419810000000  0.4915930000000  0.5184840000000 1.0
C      1  0.4552160000000  0.4799730000000  0.4605880000000 1.0
C      1  0.4869130000000  0.4821290000000  0.5587750000000 1.0
C      1  0.5560820000000  0.4779030000000  0.4823050000000 1.0
C      1  0.5393180000000  0.4477350000000  0.5199190000000 1.0
C      1  0.4940530000000  0.4470320000000  0.4570410000000 1.0
C      1  0.4622580000000  0.4500630000000  0.5276310000000 1.0
C      1  0.5012200000000  0.5469630000000  0.4984990000000 1.0
END
