TITL C-39142-8415-3 0.0593481147475559 125000 -1133.06717882256 0 0 163 (C1) n - 1
REM
REM in /rds/project/t2_vol4/rds-t2-cs072/BORA/CARBON/from-Arr/AIRSS/Generating-Clusters/GAP-ML-2020/Higher-Symm/SD-CG/HFTN-CG
REM
REM
REM
REM
REM
REM ./C.cell (b20cbc046b6831c77cfcea5457e17084)
REM AIRSS Version 0.9.1 bugfix July 2018 build 013d7b7c2542+ Fri, 06 Jul 2018 19:26:36 +0100
REM compiler GCC version 9.3.0
REM options -cpp -mtune=generic -march=x86-64 -g -O0
REM seed -1723800252 1656915046 -1766130354 998358136 -8217063 546630317 -787125971 -1008661064 521234825 158261358 1681843839 279478698 94299718 1596759417 1320394648 -737256304 1682913592 -1017449667 -1513285825 -1615088495 -1243549470 341621355 -357002651 127055607 -1748221753 1320901209 643564338 797198459 -1771314304 -845486436 -1755100428 1285494259 -1310753484
REM
CELL 1.54180   50.00000   50.00000   50.00000   90.00000   90.00000   90.00000
LATT -1
SFAC C  
C      1  0.5020200000000  0.4967930000000  0.3994740000000 1.0
C      1  0.4125690000000  0.4968420000000  0.5475450000000 1.0
C      1  0.5861500000000  0.4964420000000  0.5520420000000 1.0
C      1  0.5681580000000  0.5623270000000  0.5342380000000 1.0
C      1  0.4956280000000  0.5627670000000  0.4231470000000 1.0
C      1  0.4365170000000  0.5618940000000  0.5406740000000 1.0
C      1  0.4844830000000  0.5615420000000  0.5052070000000 1.0
C      1  0.5133760000000  0.5620790000000  0.5110310000000 1.0
C      1  0.5034750000000  0.5624360000000  0.4829900000000 1.0
C      1  0.5519650000000  0.4347860000000  0.5478750000000 1.0
C      1  0.5156120000000  0.4351760000000  0.4311450000000 1.0
C      1  0.4321350000000  0.4345640000000  0.5209870000000 1.0
C      1  0.5337140000000  0.5291410000000  0.5900960000000 1.0
C      1  0.5610750000000  0.5293080000000  0.4256110000000 1.0
C      1  0.4048930000000  0.5291420000000  0.4835040000000 1.0
C      1  0.5723700000000  0.5204920000000  0.5661700000000 1.0
C      1  0.5209920000000  0.5207580000000  0.4042730000000 1.0
C      1  0.4068660000000  0.5206670000000  0.5288650000000 1.0
C      1  0.4968580000000  0.4093210000000  0.5553590000000 1.0
C      1  0.5494850000000  0.4097780000000  0.4750170000000 1.0
C      1  0.4538040000000  0.4102440000000  0.4694710000000 1.0
C      1  0.4943100000000  0.4948420000000  0.4713090000000 1.0
C      1  0.4779450000000  0.4925390000000  0.5195550000000 1.0
C      1  0.5283300000000  0.4943350000000  0.5101840000000 1.0
C      1  0.5199760000000  0.4826620000000  0.4212260000000 1.0
C      1  0.4223580000000  0.4826330000000  0.5212160000000 1.0
C      1  0.5583680000000  0.4822520000000  0.5568250000000 1.0
C      1  0.4521400000000  0.4272970000000  0.5640490000000 1.0
C      1  0.5794610000000  0.4275910000000  0.5091610000000 1.0
C      1  0.4683870000000  0.4277980000000  0.4263380000000 1.0
C      1  0.4717910000000  0.5236850000000  0.5488730000000 1.0
C      1  0.5579440000000  0.5244110000000  0.4991750000000 1.0
C      1  0.4702600000000  0.5250990000000  0.4496340000000 1.0
C      1  0.4456260000000  0.5792970000000  0.4675860000000 1.0
C      1  0.4997070000000  0.5786850000000  0.5623300000000 1.0
C      1  0.5546070000000  0.5791890000000  0.4683950000000 1.0
C      1  0.4594820000000  0.4722590000000  0.5625420000000 1.0
C      1  0.5742250000000  0.4728050000000  0.5037400000000 1.0
C      1  0.4665520000000  0.4730870000000  0.4339250000000 1.0
C      1  0.4441700000000  0.5610180000000  0.4433280000000 1.0
C      1  0.4797600000000  0.5598590000000  0.5747940000000 1.0
C      1  0.5756020000000  0.5604570000000  0.4793720000000 1.0
C      1  0.5221480000000  0.4960930000000  0.4816280000000 1.0
C      1  0.4746840000000  0.4896050000000  0.4920250000000 1.0
C      1  0.5054410000000  0.4952300000000  0.5286510000000 1.0
C      1  0.4166570000000  0.4380600000000  0.4927540000000 1.0
C      1  0.5356480000000  0.4378800000000  0.5755780000000 1.0
C      1  0.5475860000000  0.4381770000000  0.4312990000000 1.0
C      1  0.5207450000000  0.5132140000000  0.5654590000000 1.0
C      1  0.5462490000000  0.5135680000000  0.4491570000000 1.0
C      1  0.4332750000000  0.5143170000000  0.4841930000000 1.0
C      1  0.5574520000000  0.4104440000000  0.5041820000000 1.0
C      1  0.4750560000000  0.4107270000000  0.4480120000000 1.0
C      1  0.4675720000000  0.4102780000000  0.5474490000000 1.0
C      1  0.5294990000000  0.5750610000000  0.5626880000000 1.0
C      1  0.5398150000000  0.5755170000000  0.4424860000000 1.0
C      1  0.4305920000000  0.5752450000000  0.4932490000000 1.0
C      1  0.5364100000000  0.5238130000000  0.4753770000000 1.0
C      1  0.4569660000000  0.5307750000000  0.4775790000000 1.0
C      1  0.5031220000000  0.5233690000000  0.5434870000000 1.0
C      1  0.4836500000000  0.5377620000000  0.5947700000000 1.0
C      1  0.5908050000000  0.5379590000000  0.4661820000000 1.0
C      1  0.4254850000000  0.5380770000000  0.4377420000000 1.0
C      1  0.4671380000000  0.4680290000000  0.5328970000000 1.0
C      1  0.5445140000000  0.4690350000000  0.5122670000000 1.0
C      1  0.4886420000000  0.4692860000000  0.4552270000000 1.0
C      1  0.4433990000000  0.4620310000000  0.5150060000000 1.0
C      1  0.5412210000000  0.4625970000000  0.5413430000000 1.0
C      1  0.5153270000000  0.4631890000000  0.4439220000000 1.0
C      1  0.5417460000000  0.4123490000000  0.5293460000000 1.0
C      1  0.5046510000000  0.4128520000000  0.4492670000000 1.0
C      1  0.4537160000000  0.4125190000000  0.5212090000000 1.0
C      1  0.4266060000000  0.4466480000000  0.4475440000000 1.0
C      1  0.4915190000000  0.4459710000000  0.5899200000000 1.0
C      1  0.5819810000000  0.4463640000000  0.4622880000000 1.0
C      1  0.4781590000000  0.4668650000000  0.4072680000000 1.0
C      1  0.4305620000000  0.4663550000000  0.5652170000000 1.0
C      1  0.5913100000000  0.4665850000000  0.5272410000000 1.0
C      1  0.5993810000000  0.5104120000000  0.4791720000000 1.0
C      1  0.4325900000000  0.5103770000000  0.4241910000000 1.0
C      1  0.4681850000000  0.5104530000000  0.5956770000000 1.0
C      1  0.4142360000000  0.4720530000000  0.4574080000000 1.0
C      1  0.5062830000000  0.4711610000000  0.5961630000000 1.0
C      1  0.5800170000000  0.4714750000000  0.4462660000000 1.0
C      1  0.6035070000000  0.4923080000000  0.5292780000000 1.0
C      1  0.4736910000000  0.4924960000000  0.3954770000000 1.0
C      1  0.4229180000000  0.4923890000000  0.5741750000000 1.0
C      1  0.4982120000000  0.5903620000000  0.4639370000000 1.0
C      1  0.4701950000000  0.5899040000000  0.5190080000000 1.0
C      1  0.5319140000000  0.5900170000000  0.5159020000000 1.0
C      1  0.5133700000000  0.4087360000000  0.5320120000000 1.0
C      1  0.5210570000000  0.4092750000000  0.4725630000000 1.0
C      1  0.4657490000000  0.4095950000000  0.4953360000000 1.0
C      1  0.4391720000000  0.5047320000000  0.5943590000000 1.0
C      1  0.6126440000000  0.5046170000000  0.5050200000000 1.0
C      1  0.4481910000000  0.5046930000000  0.3995790000000 1.0
C      1  0.3927120000000  0.5112810000000  0.5040030000000 1.0
C      1  0.5575710000000  0.5111870000000  0.5907080000000 1.0
C      1  0.5495740000000  0.5113760000000  0.4047910000000 1.0
C      1  0.4030430000000  0.4629090000000  0.4840610000000 1.0
C      1  0.5351160000000  0.4626030000000  0.5919810000000 1.0
C      1  0.5620320000000  0.4628590000000  0.4234490000000 1.0
C      1  0.5466570000000  0.5096910000000  0.5500260000000 1.0
C      1  0.5196800000000  0.5100410000000  0.4349470000000 1.0
C      1  0.4343940000000  0.5097860000000  0.5137200000000 1.0
C      1  0.5595310000000  0.4886040000000  0.4615160000000 1.0
C      1  0.4381900000000  0.4890490000000  0.4679370000000 1.0
C      1  0.5034920000000  0.4882330000000  0.5707180000000 1.0
C      1  0.5397590000000  0.5958930000000  0.4867510000000 1.0
C      1  0.4690140000000  0.5956330000000  0.4718000000000 1.0
C      1  0.4913760000000  0.5955270000000  0.5404040000000 1.0
C      1  0.5467410000000  0.5807380000000  0.5390940000000 1.0
C      1  0.5107190000000  0.5810900000000  0.4394570000000 1.0
C      1  0.4427930000000  0.5805370000000  0.5198510000000 1.0
C      1  0.5142700000000  0.4315250000000  0.4904100000000 1.0
C      1  0.4848110000000  0.4317930000000  0.4929450000000 1.0
C      1  0.5017850000000  0.4311630000000  0.5172700000000 1.0
C      1  0.4138480000000  0.5484520000000  0.5275310000000 1.0
C      1  0.5676790000000  0.5483750000000  0.5602640000000 1.0
C      1  0.5184610000000  0.5487100000000  0.4107850000000 1.0
C      1  0.5847270000000  0.4482690000000  0.4897180000000 1.0
C      1  0.4489750000000  0.4485430000000  0.4314730000000 1.0
C      1  0.4663360000000  0.4477750000000  0.5786180000000 1.0
C      1  0.5439790000000  0.5544400000000  0.4238900000000 1.0
C      1  0.4121350000000  0.5544250000000  0.4989410000000 1.0
C      1  0.5435860000000  0.5541590000000  0.5758400000000 1.0
C      1  0.5116050000000  0.4716180000000  0.5460790000000 1.0
C      1  0.5339550000000  0.4723550000000  0.4673420000000 1.0
C      1  0.4540860000000  0.4707000000000  0.4869160000000 1.0
C      1  0.4745770000000  0.4537330000000  0.4762280000000 1.0
C      1  0.4925880000000  0.4529870000000  0.5348220000000 1.0
C      1  0.5335830000000  0.4537700000000  0.4894690000000 1.0
C      1  0.5616750000000  0.4270890000000  0.4543270000000 1.0
C      1  0.4296840000000  0.4272390000000  0.4690420000000 1.0
C      1  0.5086470000000  0.4267690000000  0.5762590000000 1.0
C      1  0.3993550000000  0.4835300000000  0.5025880000000 1.0
C      1  0.5531220000000  0.4833360000000  0.5859640000000 1.0
C      1  0.5477000000000  0.4835930000000  0.4109820000000 1.0
C      1  0.4706230000000  0.5367940000000  0.5012460000000 1.0
C      1  0.5191500000000  0.5383850000000  0.5254880000000 1.0
C      1  0.5127250000000  0.5388390000000  0.4706150000000 1.0
C      1  0.4085950000000  0.4983060000000  0.4413760000000 1.0
C      1  0.4950510000000  0.4981500000000  0.6078930000000 1.0
C      1  0.5961520000000  0.4982470000000  0.4497840000000 1.0
C      1  0.5871360000000  0.5248520000000  0.4407000000000 1.0
C      1  0.4049340000000  0.5249440000000  0.4535120000000 1.0
C      1  0.5075230000000  0.5246910000000  0.6046810000000 1.0
C      1  0.4535930000000  0.4990240000000  0.4425890000000 1.0
C      1  0.4737460000000  0.4983600000000  0.5686600000000 1.0
C      1  0.5731380000000  0.4986980000000  0.4880220000000 1.0
C      1  0.4698320000000  0.5514470000000  0.4331260000000 1.0
C      1  0.4584430000000  0.5502600000000  0.5574770000000 1.0
C      1  0.5716180000000  0.5510920000000  0.5065170000000 1.0
C      1  0.4622660000000  0.5172920000000  0.5219450000000 1.0
C      1  0.5408890000000  0.5185850000000  0.5214240000000 1.0
C      1  0.4976400000000  0.5191060000000  0.4547100000000 1.0
C      1  0.4900750000000  0.4401100000000  0.4127080000000 1.0
C      1  0.4293980000000  0.4396650000000  0.5522330000000 1.0
C      1  0.5806040000000  0.4398510000000  0.5347630000000 1.0
C      1  0.5157400000000  0.6094520000000  0.4779000000000 1.0
C      1  0.4735080000000  0.6090540000000  0.4970830000000 1.0
C      1  0.5111320000000  0.6091190000000  0.5241050000000 1.0
C      1  0.5000660000000  0.6185800000000  0.4997320000000 1.0
END
