TITL C-39153-8529-1 -0.113348153092528 125000 -143.004945601649 0 0 22 (C2v) n - 1
REM
REM in /rds/project/t2_vol4/rds-t2-cs072/BORA/CARBON/from-Arr/AIRSS/Generating-Clusters/GAP-ML-2020/Higher-Symm/SD-CG/HFTN-CG
REM
REM
REM
REM
REM
REM ./C.cell (b20cbc046b6831c77cfcea5457e17084)
REM AIRSS Version 0.9.1 bugfix July 2018 build 013d7b7c2542+ Fri, 06 Jul 2018 19:26:36 +0100
REM compiler GCC version 9.3.0
REM options -cpp -mtune=generic -march=x86-64 -g -O0
REM seed -149440306 1598487520 -1775487658 -887406529 1901698648 867316821 1422087487 -1597244025 -1063790288 1436446387 1322694430 179422916 -794397168 -1209178751 -1040563319 423022916 -694754104 346122826 197487220 2013020121 898291944 1278196009 -947077151 -2033617936 -1273665286 -1234993133 -1330890647 -12839495 -1174314209 1589440515 49397532 733033124 164616748
REM
CELL 1.54180   50.00000   50.00000   50.00000   90.00000   90.00000   90.00000
LATT -1
SFAC C  
C      1  0.5383360000000  0.5268660000000  0.5140860000000 1.0
C      1  0.5455520000000  0.4998380000000  0.5146300000000 1.0
C      1  0.5379850000000  0.4729370000000  0.5150040000000 1.0
C      1  0.5202030000000  0.4512570000000  0.5150640000000 1.0
C      1  0.4924490000000  0.4453450000000  0.5148250000000 1.0
C      1  0.4686080000000  0.4607020000000  0.5144380000000 1.0
C      1  0.4571770000000  0.4861970000000  0.5142960000000 1.0
C      1  0.4573500000000  0.5141320000000  0.5147210000000 1.0
C      1  0.4690150000000  0.5394410000000  0.5152240000000 1.0
C      1  0.4928990000000  0.5546430000000  0.5150320000000 1.0
C      1  0.5206620000000  0.5487090000000  0.5146800000000 1.0
C      1  0.5380050000000  0.5270420000000  0.4849290000000 1.0
C      1  0.5455110000000  0.5001180000000  0.4852830000000 1.0
C      1  0.5382060000000  0.4731110000000  0.4858470000000 1.0
C      1  0.5205050000000  0.4512940000000  0.4853430000000 1.0
C      1  0.4927470000000  0.4453190000000  0.4850870000000 1.0
C      1  0.4688710000000  0.4605560000000  0.4849680000000 1.0
C      1  0.4573170000000  0.4859250000000  0.4850390000000 1.0
C      1  0.4572050000000  0.5138370000000  0.4854760000000 1.0
C      1  0.4686570000000  0.5392990000000  0.4857710000000 1.0
C      1  0.4924930000000  0.5546870000000  0.4852960000000 1.0
C      1  0.5202470000000  0.5487470000000  0.4849600000000 1.0
END
