TITL C-39159-8430-1 -11.474075752272 125000 -840.986218034472 0 0 120 (C3) n - 1
REM
REM in /rds/project/t2_vol4/rds-t2-cs072/BORA/CARBON/from-Arr/AIRSS/Generating-Clusters/GAP-ML-2020/Higher-Symm/SD-CG/HFTN-CG
REM
REM
REM
REM
REM
REM ./C.cell (b20cbc046b6831c77cfcea5457e17084)
REM AIRSS Version 0.9.1 bugfix July 2018 build 013d7b7c2542+ Fri, 06 Jul 2018 19:26:36 +0100
REM compiler GCC version 9.3.0
REM options -cpp -mtune=generic -march=x86-64 -g -O0
REM seed -2107049622 1788539171 1156994448 -204712532 -1057912064 -2002412896 -1827164966 -1869061248 163542565 -1458013435 959627088 -1525703826 -578684828 1836368470 815859459 861532651 513192309 -924627131 -233125278 898864864 -1398520895 -1698431797 -1186826543 2079385463 -934974259 1822183522 509796993 -386456293 -529755033 -604201960 -2142238913 -1164316170 1404649039
REM
CELL 1.54180   50.00000   50.00000   50.00000   90.00000   90.00000   90.00000
LATT -1
SFAC C  
C      1  0.5060480000000  0.5302370000000  0.3983880000000 1.0
C      1  0.5231630000000  0.4796370000000  0.3983900000000 1.0
C      1  0.4707850000000  0.4901140000000  0.3983900000000 1.0
C      1  0.5437340000000  0.4267000000000  0.4782760000000 1.0
C      1  0.4146540000000  0.4987730000000  0.4782750000000 1.0
C      1  0.5416110000000  0.5745240000000  0.4782700000000 1.0
C      1  0.4581590000000  0.4327990000000  0.5632990000000 1.0
C      1  0.4627220000000  0.5698410000000  0.5632930000000 1.0
C      1  0.5791220000000  0.4973680000000  0.5632950000000 1.0
C      1  0.5204690000000  0.4158930000000  0.4648420000000 1.0
C      1  0.4169270000000  0.5243250000000  0.4648390000000 1.0
C      1  0.5626030000000  0.5597780000000  0.4648350000000 1.0
C      1  0.4340990000000  0.5675800000000  0.5197110000000 1.0
C      1  0.5914760000000  0.5232840000000  0.5197100000000 1.0
C      1  0.4744260000000  0.4091390000000  0.5197160000000 1.0
C      1  0.5131440000000  0.5267390000000  0.4750700000000 1.0
C      1  0.5165850000000  0.4752460000000  0.4750720000000 1.0
C      1  0.4702700000000  0.4980120000000  0.4750710000000 1.0
C      1  0.4925430000000  0.5860900000000  0.4743870000000 1.0
C      1  0.5782850000000  0.4634110000000  0.4743910000000 1.0
C      1  0.4291710000000  0.4504960000000  0.4743940000000 1.0
C      1  0.5248860000000  0.4887830000000  0.5573200000000 1.0
C      1  0.4778420000000  0.4840610000000  0.5573210000000 1.0
C      1  0.4972740000000  0.5271630000000  0.5573190000000 1.0
C      1  0.4717100000000  0.4125390000000  0.5472310000000 1.0
C      1  0.4384010000000  0.5682340000000  0.5472250000000 1.0
C      1  0.5898910000000  0.5192330000000  0.5472240000000 1.0
C      1  0.4906970000000  0.4419830000000  0.4382630000000 1.0
C      1  0.4544080000000  0.5370610000000  0.4382600000000 1.0
C      1  0.5548930000000  0.5209490000000  0.4382590000000 1.0
C      1  0.4213690000000  0.4982990000000  0.5060000000000 1.0
C      1  0.5378420000000  0.5689470000000  0.5059960000000 1.0
C      1  0.5407880000000  0.4327550000000  0.5060010000000 1.0
C      1  0.5642960000000  0.5166970000000  0.5801070000000 1.0
C      1  0.4823110000000  0.4359760000000  0.5801110000000 1.0
C      1  0.4533970000000  0.5473370000000  0.5801070000000 1.0
C      1  0.4733680000000  0.5209650000000  0.4937430000000 1.0
C      1  0.5314720000000  0.5125810000000  0.4937430000000 1.0
C      1  0.4951590000000  0.4664530000000  0.4937450000000 1.0
C      1  0.4808530000000  0.5737550000000  0.4512960000000 1.0
C      1  0.5734470000000  0.4797010000000  0.4512980000000 1.0
C      1  0.4456970000000  0.4465390000000  0.4513020000000 1.0
C      1  0.4947160000000  0.5394710000000  0.4918160000000 1.0
C      1  0.5368250000000  0.4848400000000  0.4918180000000 1.0
C      1  0.4684590000000  0.4756880000000  0.4918190000000 1.0
C      1  0.5105550000000  0.5542380000000  0.4116800000000 1.0
C      1  0.5416950000000  0.4637340000000  0.4116830000000 1.0
C      1  0.4477460000000  0.4820180000000  0.4116840000000 1.0
C      1  0.4819690000000  0.5158220000000  0.4056890000000 1.0
C      1  0.5227190000000  0.5076970000000  0.4056890000000 1.0
C      1  0.4953070000000  0.4764690000000  0.4056910000000 1.0
C      1  0.4225940000000  0.5210100000000  0.5533070000000 1.0
C      1  0.5568980000000  0.5565340000000  0.5533040000000 1.0
C      1  0.5205100000000  0.4224620000000  0.5533100000000 1.0
C      1  0.4465960000000  0.4828980000000  0.5129090000000 1.0
C      1  0.5118920000000  0.5548010000000  0.5129050000000 1.0
C      1  0.5415130000000  0.4623020000000  0.5129080000000 1.0
C      1  0.5063110000000  0.5604690000000  0.4394710000000 1.0
C      1  0.5492130000000  0.4642960000000  0.4394750000000 1.0
C      1  0.4444740000000  0.4752280000000  0.4394760000000 1.0
C      1  0.5064810000000  0.5283700000000  0.4467170000000 1.0
C      1  0.5213300000000  0.4801990000000  0.4467180000000 1.0
C      1  0.4721880000000  0.4914250000000  0.4467190000000 1.0
C      1  0.4289800000000  0.5463230000000  0.5632750000000 1.0
C      1  0.5756260000000  0.5383480000000  0.5632730000000 1.0
C      1  0.4953960000000  0.4153370000000  0.5632790000000 1.0
C      1  0.4602620000000  0.5208540000000  0.5856650000000 1.0
C      1  0.5379280000000  0.5239930000000  0.5856640000000 1.0
C      1  0.5018140000000  0.4551630000000  0.5856680000000 1.0
C      1  0.4567020000000  0.4177900000000  0.4983410000000 1.0
C      1  0.4504530000000  0.5786020000000  0.4983350000000 1.0
C      1  0.5928450000000  0.5036080000000  0.4983360000000 1.0
C      1  0.5332550000000  0.5507910000000  0.5709520000000 1.0
C      1  0.5273570000000  0.4458100000000  0.5709560000000 1.0
C      1  0.4393910000000  0.5034080000000  0.5709550000000 1.0
C      1  0.4364780000000  0.4384020000000  0.5003420000000 1.0
C      1  0.4784160000000  0.5858110000000  0.5003350000000 1.0
C      1  0.5851070000000  0.4757870000000  0.5003380000000 1.0
C      1  0.5448450000000  0.4672300000000  0.5648350000000 1.0
C      1  0.4491970000000  0.4775530000000  0.5648360000000 1.0
C      1  0.5059610000000  0.5552250000000  0.5648320000000 1.0
C      1  0.4929760000000  0.4842490000000  0.5863580000000 1.0
C      1  0.4898710000000  0.5139650000000  0.5863570000000 1.0
C      1  0.5171580000000  0.5017960000000  0.5863570000000 1.0
C      1  0.5802970000000  0.5455370000000  0.4818010000000 1.0
C      1  0.4992880000000  0.4076910000000  0.4818080000000 1.0
C      1  0.4204150000000  0.5467700000000  0.4818040000000 1.0
C      1  0.4176370000000  0.5456680000000  0.5100830000000 1.0
C      1  0.5807310000000  0.5484950000000  0.5100810000000 1.0
C      1  0.5016330000000  0.4058380000000  0.5100880000000 1.0
C      1  0.5881050000000  0.5188340000000  0.4746220000000 1.0
C      1  0.4722580000000  0.4142800000000  0.4746280000000 1.0
C      1  0.4396360000000  0.5668830000000  0.4746220000000 1.0
C      1  0.5763250000000  0.5072070000000  0.4518010000000 1.0
C      1  0.4680790000000  0.4302940000000  0.4518060000000 1.0
C      1  0.4555940000000  0.5624940000000  0.4518010000000 1.0
C      1  0.4885750000000  0.5742170000000  0.5520420000000 1.0
C      1  0.5699860000000  0.4727900000000  0.5520450000000 1.0
C      1  0.4414420000000  0.4529990000000  0.5520470000000 1.0
C      1  0.5182480000000  0.5793400000000  0.4634390000000 1.0
C      1  0.5595870000000  0.4445250000000  0.4634440000000 1.0
C      1  0.4221640000000  0.4761310000000  0.4634450000000 1.0
C      1  0.5554920000000  0.5476510000000  0.4416160000000 1.0
C      1  0.5135210000000  0.4281130000000  0.4416210000000 1.0
C      1  0.4309840000000  0.5242290000000  0.4416190000000 1.0
C      1  0.4933030000000  0.5758790000000  0.5235760000000 1.0
C      1  0.5690620000000  0.4678620000000  0.5235790000000 1.0
C      1  0.4376370000000  0.4562610000000  0.5235810000000 1.0
C      1  0.4648470000000  0.5120920000000  0.5190940000000 1.0
C      1  0.5280480000000  0.5243990000000  0.5190930000000 1.0
C      1  0.5071060000000  0.4635110000000  0.5190960000000 1.0
C      1  0.5244800000000  0.4169560000000  0.5243940000000 1.0
C      1  0.4158410000000  0.5203240000000  0.5243910000000 1.0
C      1  0.5596800000000  0.5627230000000  0.5243870000000 1.0
C      1  0.5015400000000  0.4737250000000  0.5436410000000 1.0
C      1  0.4764740000000  0.5118070000000  0.5436400000000 1.0
C      1  0.5219870000000  0.5144740000000  0.5436390000000 1.0
C      1  0.5273870000000  0.5093660000000  0.4345870000000 1.0
C      1  0.4944180000000  0.4715940000000  0.4345890000000 1.0
C      1  0.4781920000000  0.5190320000000  0.4345870000000 1.0
END
