TITL C-39133-8361-1 -0.10248300152027 125000 -1056.05217759314 0 0 152 (C1) n - 1
REM
REM in /rds/project/t2_vol4/rds-t2-cs072/BORA/CARBON/from-Arr/AIRSS/Generating-Clusters/GAP-ML-2020/Higher-Symm/SD-CG/HFTN-CG
REM
REM
REM
REM
REM
REM ./C.cell (b20cbc046b6831c77cfcea5457e17084)
REM AIRSS Version 0.9.1 bugfix July 2018 build 013d7b7c2542+ Fri, 06 Jul 2018 19:26:36 +0100
REM compiler GCC version 9.3.0
REM options -cpp -mtune=generic -march=x86-64 -g -O0
REM seed -1548719859 1620085201 1394730019 -755443861 811711506 -1800586582 -1049030368 461966823 1634042798 939458061 -2137597870 1385791749 1237435032 334919979 -1825913216 30685389 661293860 112292319 -1249965876 -573674237 -1170523930 442896416 1496419322 -1961464586 -1081660393 -897099260 -830185776 433249211 -1785326940 1917796826 -1275177299 -99827446 1376917369
REM
CELL 1.54180   50.00000   50.00000   50.00000   90.00000   90.00000   90.00000
LATT -1
SFAC C  
C      1  0.5314760000000  0.4502190000000  0.4183620000000 1.0
C      1  0.4129230000000  0.4507170000000  0.5136540000000 1.0
C      1  0.5548810000000  0.4508580000000  0.5684490000000 1.0
C      1  0.5679240000000  0.4385870000000  0.4563790000000 1.0
C      1  0.4275920000000  0.4389320000000  0.4632060000000 1.0
C      1  0.5036340000000  0.4385980000000  0.5811370000000 1.0
C      1  0.5299750000000  0.6027980000000  0.4752020000000 1.0
C      1  0.4656410000000  0.6040570000000  0.4810810000000 1.0
C      1  0.5015230000000  0.6026080000000  0.5437760000000 1.0
C      1  0.4192220000000  0.5202880000000  0.5396250000000 1.0
C      1  0.5738460000000  0.5209400000000  0.5496350000000 1.0
C      1  0.5063940000000  0.5197870000000  0.4106950000000 1.0
C      1  0.4686270000000  0.5353090000000  0.5950320000000 1.0
C      1  0.5966570000000  0.5359160000000  0.4797050000000 1.0
C      1  0.4344530000000  0.5361150000000  0.4265420000000 1.0
C      1  0.5833870000000  0.5433420000000  0.5332040000000 1.0
C      1  0.4871960000000  0.5414940000000  0.4096350000000 1.0
C      1  0.4278370000000  0.5420530000000  0.5567620000000 1.0
C      1  0.4422810000000  0.5042860000000  0.5897180000000 1.0
C      1  0.6055820000000  0.5049750000000  0.5052300000000 1.0
C      1  0.4510230000000  0.5044100000000  0.4058720000000 1.0
C      1  0.5331060000000  0.4550890000000  0.4950780000000 1.0
C      1  0.4785450000000  0.4552570000000  0.4739800000000 1.0
C      1  0.4873090000000  0.4550650000000  0.5317400000000 1.0
C      1  0.4277310000000  0.5466180000000  0.4517840000000 1.0
C      1  0.4945570000000  0.5447250000000  0.5896120000000 1.0
C      1  0.5788490000000  0.5458630000000  0.4604700000000 1.0
C      1  0.5356750000000  0.5774130000000  0.4602780000000 1.0
C      1  0.4493620000000  0.5793350000000  0.4890440000000 1.0
C      1  0.5160660000000  0.5770630000000  0.5526600000000 1.0
C      1  0.4441570000000  0.5155450000000  0.4940520000000 1.0
C      1  0.5219260000000  0.5148920000000  0.5518300000000 1.0
C      1  0.5333060000000  0.5150620000000  0.4551070000000 1.0
C      1  0.4686980000000  0.5072660000000  0.6032890000000 1.0
C      1  0.6040610000000  0.5079340000000  0.4755040000000 1.0
C      1  0.4263680000000  0.5082210000000  0.4223760000000 1.0
C      1  0.4594920000000  0.4685590000000  0.4926470000000 1.0
C      1  0.5131020000000  0.4680880000000  0.5388950000000 1.0
C      1  0.5264090000000  0.4684040000000  0.4692950000000 1.0
C      1  0.5971300000000  0.4799110000000  0.5148920000000 1.0
C      1  0.4638760000000  0.4795010000000  0.4085700000000 1.0
C      1  0.4381750000000  0.4794160000000  0.5771500000000 1.0
C      1  0.5162370000000  0.4306520000000  0.4953880000000 1.0
C      1  0.4872480000000  0.4307320000000  0.4883720000000 1.0
C      1  0.4955990000000  0.4306750000000  0.5169300000000 1.0
C      1  0.4979410000000  0.5647460000000  0.4239580000000 1.0
C      1  0.4346540000000  0.5658990000000  0.5401050000000 1.0
C      1  0.5652680000000  0.5670190000000  0.5360590000000 1.0
C      1  0.5416410000000  0.5283550000000  0.5019650000000 1.0
C      1  0.4804890000000  0.5288900000000  0.4639030000000 1.0
C      1  0.4772850000000  0.5291110000000  0.5360540000000 1.0
C      1  0.5296640000000  0.5601750000000  0.5080100000000 1.0
C      1  0.4912040000000  0.5594790000000  0.4703610000000 1.0
C      1  0.4779170000000  0.5596460000000  0.5240380000000 1.0
C      1  0.4677960000000  0.4453830000000  0.4449260000000 1.0
C      1  0.4675780000000  0.4451480000000  0.5555770000000 1.0
C      1  0.5637600000000  0.4453790000000  0.5002870000000 1.0
C      1  0.4680580000000  0.4089210000000  0.4854720000000 1.0
C      1  0.5027120000000  0.4088530000000  0.5349370000000 1.0
C      1  0.5283240000000  0.4087440000000  0.4804110000000 1.0
C      1  0.4834990000000  0.4232000000000  0.5671310000000 1.0
C      1  0.5659320000000  0.4233260000000  0.4808470000000 1.0
C      1  0.4497210000000  0.4234660000000  0.4527300000000 1.0
C      1  0.5096410000000  0.5671760000000  0.5807030000000 1.0
C      1  0.5632500000000  0.5680580000000  0.4520550000000 1.0
C      1  0.4288750000000  0.5692400000000  0.4693320000000 1.0
C      1  0.4592410000000  0.5325300000000  0.4100740000000 1.0
C      1  0.4422740000000  0.5326290000000  0.5808910000000 1.0
C      1  0.5976680000000  0.5333340000000  0.5094830000000 1.0
C      1  0.5100020000000  0.4886890000000  0.5583310000000 1.0
C      1  0.5449320000000  0.4889200000000  0.4621900000000 1.0
C      1  0.4443730000000  0.4893440000000  0.4802560000000 1.0
C      1  0.5335540000000  0.6009750000000  0.5042130000000 1.0
C      1  0.4815200000000  0.6030480000000  0.4557710000000 1.0
C      1  0.4751700000000  0.5991620000000  0.5516680000000 1.0
C      1  0.4959740000000  0.4106320000000  0.4444220000000 1.0
C      1  0.4530500000000  0.4106680000000  0.5313360000000 1.0
C      1  0.5500880000000  0.4108610000000  0.5250650000000 1.0
C      1  0.5678870000000  0.4322700000000  0.5262460000000 1.0
C      1  0.4881510000000  0.4320030000000  0.4284280000000 1.0
C      1  0.4430400000000  0.4319810000000  0.5461790000000 1.0
C      1  0.4612400000000  0.5781230000000  0.5422600000000 1.0
C      1  0.5502230000000  0.5798880000000  0.5145240000000 1.0
C      1  0.4852230000000  0.5769060000000  0.4467270000000 1.0
C      1  0.5099100000000  0.5111830000000  0.4374460000000 1.0
C      1  0.4407090000000  0.5120450000000  0.5232160000000 1.0
C      1  0.5489230000000  0.5118690000000  0.5397820000000 1.0
C      1  0.5184890000000  0.5273940000000  0.5818710000000 1.0
C      1  0.5610510000000  0.5277990000000  0.4430560000000 1.0
C      1  0.4204950000000  0.5289120000000  0.4756810000000 1.0
C      1  0.5168760000000  0.5028160000000  0.6004150000000 1.0
C      1  0.5778540000000  0.5031840000000  0.4351720000000 1.0
C      1  0.4048290000000  0.5043010000000  0.4652730000000 1.0
C      1  0.5430950000000  0.4333390000000  0.4393830000000 1.0
C      1  0.4252120000000  0.4337500000000  0.4931300000000 1.0
C      1  0.5308880000000  0.4337290000000  0.5680860000000 1.0
C      1  0.5036620000000  0.4483150000000  0.4123040000000 1.0
C      1  0.4214740000000  0.4485660000000  0.5407530000000 1.0
C      1  0.5741210000000  0.4489270000000  0.5475390000000 1.0
C      1  0.5250120000000  0.4774160000000  0.5139250000000 1.0
C      1  0.4988470000000  0.4777260000000  0.4715470000000 1.0
C      1  0.4751190000000  0.4776710000000  0.5155310000000 1.0
C      1  0.4103340000000  0.4929770000000  0.5366050000000 1.0
C      1  0.5759900000000  0.4935020000000  0.5590850000000 1.0
C      1  0.5130920000000  0.4924390000000  0.4044180000000 1.0
C      1  0.5083980000000  0.5585920000000  0.5287200000000 1.0
C      1  0.5193260000000  0.5584560000000  0.4791140000000 1.0
C      1  0.4719320000000  0.5594310000000  0.4948830000000 1.0
C      1  0.5047210000000  0.6142930000000  0.4697890000000 1.0
C      1  0.4890560000000  0.6150160000000  0.4947410000000 1.0
C      1  0.5085510000000  0.6094660000000  0.5168290000000 1.0
C      1  0.5866880000000  0.4625830000000  0.4641310000000 1.0
C      1  0.4250970000000  0.4629640000000  0.4432750000000 1.0
C      1  0.4874320000000  0.4622690000000  0.5934990000000 1.0
C      1  0.5572380000000  0.4853820000000  0.4299770000000 1.0
C      1  0.4104920000000  0.4861520000000  0.4855650000000 1.0
C      1  0.5318790000000  0.4852560000000  0.5850480000000 1.0
C      1  0.4579240000000  0.4938980000000  0.4528480000000 1.0
C      1  0.4795770000000  0.4934570000000  0.5604460000000 1.0
C      1  0.5618270000000  0.4936710000000  0.4874860000000 1.0
C      1  0.4666350000000  0.5013080000000  0.5343810000000 1.0
C      1  0.5455560000000  0.5007090000000  0.5118780000000 1.0
C      1  0.4870980000000  0.5014080000000  0.4547650000000 1.0
C      1  0.5376210000000  0.4777390000000  0.4125420000000 1.0
C      1  0.4051470000000  0.4783870000000  0.5112650000000 1.0
C      1  0.5569050000000  0.4784660000000  0.5764950000000 1.0
C      1  0.5294740000000  0.4134210000000  0.5452050000000 1.0
C      1  0.5238120000000  0.4131610000000  0.4521450000000 1.0
C      1  0.4458100000000  0.4134000000000  0.5034380000000 1.0
C      1  0.4695570000000  0.4032980000000  0.4583480000000 1.0
C      1  0.4784020000000  0.4031700000000  0.5470810000000 1.0
C      1  0.5511160000000  0.4033070000000  0.4952850000000 1.0
C      1  0.5876860000000  0.4736140000000  0.5414340000000 1.0
C      1  0.4916340000000  0.4729370000000  0.4034920000000 1.0
C      1  0.4199630000000  0.4731950000000  0.5555700000000 1.0
C      1  0.5251130000000  0.5667500000000  0.4328660000000 1.0
C      1  0.4288700000000  0.5674960000000  0.5122600000000 1.0
C      1  0.5453100000000  0.5670570000000  0.5571010000000 1.0
C      1  0.4139900000000  0.5550200000000  0.4909780000000 1.0
C      1  0.5355940000000  0.5532450000000  0.5808630000000 1.0
C      1  0.5510400000000  0.5535560000000  0.4291290000000 1.0
C      1  0.5052800000000  0.5287020000000  0.5307650000000 1.0
C      1  0.5232380000000  0.5285820000000  0.4804440000000 1.0
C      1  0.4709260000000  0.5291030000000  0.4905640000000 1.0
C      1  0.5807310000000  0.4679720000000  0.4924270000000 1.0
C      1  0.4526630000000  0.4680470000000  0.4341500000000 1.0
C      1  0.4658620000000  0.4677130000000  0.5741600000000 1.0
C      1  0.4914380000000  0.4896670000000  0.6054610000000 1.0
C      1  0.5948460000000  0.4901620000000  0.4547400000000 1.0
C      1  0.4129610000000  0.4907730000000  0.4408570000000 1.0
C      1  0.4996460000000  0.4894800000000  0.5004450000000 1.0
C      1  0.4997400000000  0.5190520000000  0.5007160000000 1.0
END
