TITL C-39749-1827-3 7.9986402525364 125000 -41.8552956460589 0 0 7 (D7h) n - 1
REM
REM in /rds/project/t2_vol4/rds-t2-cs072/BORA/CARBON/from-Arr/AIRSS/Generating-Clusters/GAP-ML-2020/Higher-Symm/SD-CG/HFTN-CG
REM
REM
REM
REM
REM
REM ./C.cell (b20cbc046b6831c77cfcea5457e17084)
REM AIRSS Version 0.9.1 bugfix July 2018 build 013d7b7c2542+ Fri, 06 Jul 2018 19:26:36 +0100
REM compiler GCC version 9.3.0
REM options -cpp -mtune=generic -march=x86-64 -g -O0
REM seed -796598084 -1087120566 1010680850 1271311859 -649522451 976499882 1941633973 481044421 -2011771851 -918095327 -735196399 -290271220 1309300928 -717047040 370251427 -25820396 71988786 -1374405942 1715510055 -447890378 -1083627370 376062044 -52035024 793227170 1914516500 -1432928106 -1383122552 1768915291 -1144450523 1952121815 195867983 -861623796 637986528
REM
CELL 1.54180   50.00000   50.00000   50.00000   90.00000   90.00000   90.00000
LATT -1
SFAC C  
C      1  0.5154330000000  0.5262160000000  0.5000000000000 1.0
C      1  0.4891260000000  0.5284110000000  0.5000000000000 1.0
C      1  0.4710070000000  0.5092120000000  0.5000000000000 1.0
C      1  0.4747210000000  0.4830760000000  0.5000000000000 1.0
C      1  0.4974700000000  0.4696840000000  0.5000000000000 1.0
C      1  0.5221250000000  0.4791210000000  0.5000000000000 1.0
C      1  0.5301180000000  0.5042800000000  0.5000000000000 1.0
END
