TITL C-39142-8415-8 -8.14832296915082 125000 -482.923196495546 0 0 69 (Cs) n - 1
REM
REM in /rds/project/t2_vol4/rds-t2-cs072/BORA/CARBON/from-Arr/AIRSS/Generating-Clusters/GAP-ML-2020/Higher-Symm/SD-CG/HFTN-CG
REM
REM
REM
REM
REM
REM ./C.cell (b20cbc046b6831c77cfcea5457e17084)
REM AIRSS Version 0.9.1 bugfix July 2018 build 013d7b7c2542+ Fri, 06 Jul 2018 19:26:36 +0100
REM compiler GCC version 9.3.0
REM options -cpp -mtune=generic -march=x86-64 -g -O0
REM seed 1688462209 772027945 -816590496 1663028455 -2011306157 2031968504 1679272635 51910622 -274196566 1481268401 2105075977 2056898156 1473316005 2034487317 1463119254 587656407 2138729765 -295525036 -27456730 -1598313063 109612197 164960959 1928943350 1199354588 659130873 523996045 1846038563 1781212303 -1466410120 1983935079 -1233576442 -1327487300 -1267639629
REM
CELL 1.54180   50.00000   50.00000   50.00000   90.00000   90.00000   90.00000
LATT -1
SFAC C  
C      1  0.5325820000000  0.4577830000000  0.4479600000000 1.0
C      1  0.4666850000000  0.4539580000000  0.4432080000000 1.0
C      1  0.4338440000000  0.4597270000000  0.4989090000000 1.0
C      1  0.4651390000000  0.4657300000000  0.5558000000000 1.0
C      1  0.5323190000000  0.4615900000000  0.5595290000000 1.0
C      1  0.5667450000000  0.4539720000000  0.5030410000000 1.0
C      1  0.5327610000000  0.5438810000000  0.4474120000000 1.0
C      1  0.4672200000000  0.5474860000000  0.4431090000000 1.0
C      1  0.4338700000000  0.5414740000000  0.4972430000000 1.0
C      1  0.4677090000000  0.5304860000000  0.5503130000000 1.0
C      1  0.5324410000000  0.5351870000000  0.5557460000000 1.0
C      1  0.5677770000000  0.5477480000000  0.5022280000000 1.0
C      1  0.4915750000000  0.4657320000000  0.5651920000000 1.0
C      1  0.5517480000000  0.4597330000000  0.5407950000000 1.0
C      1  0.5614090000000  0.4539630000000  0.4768590000000 1.0
C      1  0.5072820000000  0.4577820000000  0.4389730000000 1.0
C      1  0.4460270000000  0.4539660000000  0.4601560000000 1.0
C      1  0.4370990000000  0.4615850000000  0.5257020000000 1.0
C      1  0.4930370000000  0.5304870000000  0.5593110000000 1.0
C      1  0.5527720000000  0.5414800000000  0.5394830000000 1.0
C      1  0.5610480000000  0.5474900000000  0.4764420000000 1.0
C      1  0.5074820000000  0.5438800000000  0.4384320000000 1.0
C      1  0.4457310000000  0.5477420000000  0.4588700000000 1.0
C      1  0.4393850000000  0.5351820000000  0.5226870000000 1.0
C      1  0.4894580000000  0.4368380000000  0.4491160000000 1.0
C      1  0.4466990000000  0.4379180000000  0.4844940000000 1.0
C      1  0.4577410000000  0.4444520000000  0.5374260000000 1.0
C      1  0.5089090000000  0.4444540000000  0.5556040000000 1.0
C      1  0.5508700000000  0.4379230000000  0.5215010000000 1.0
C      1  0.5400140000000  0.4368400000000  0.4670760000000 1.0
C      1  0.4896720000000  0.5651370000000  0.4483340000000 1.0
C      1  0.4467170000000  0.5635670000000  0.4835310000000 1.0
C      1  0.4582200000000  0.5532220000000  0.5357020000000 1.0
C      1  0.5096150000000  0.5532240000000  0.5539610000000 1.0
C      1  0.5514530000000  0.5635730000000  0.5207390000000 1.0
C      1  0.5403300000000  0.5651390000000  0.4663300000000 1.0
C      1  0.5499090000000  0.4763940000000  0.4622950000000 1.0
C      1  0.4847930000000  0.4763900000000  0.4391630000000 1.0
C      1  0.4393940000000  0.4772280000000  0.4761460000000 1.0
C      1  0.4462050000000  0.4839820000000  0.5423100000000 1.0
C      1  0.5147750000000  0.4839860000000  0.5666690000000 1.0
C      1  0.5618020000000  0.4772340000000  0.5196310000000 1.0
C      1  0.5495880000000  0.5250520000000  0.4620630000000 1.0
C      1  0.4851850000000  0.5250490000000  0.4391830000000 1.0
C      1  0.4389210000000  0.5243940000000  0.4743510000000 1.0
C      1  0.4545730000000  0.5096630000000  0.5305780000000 1.0
C      1  0.5156810000000  0.5096670000000  0.5522870000000 1.0
C      1  0.5632970000000  0.5244010000000  0.5185360000000 1.0
C      1  0.4767890000000  0.4304020000000  0.5219980000000 1.0
C      1  0.5038640000000  0.4304030000000  0.5316170000000 1.0
C      1  0.5257020000000  0.4277910000000  0.5132200000000 1.0
C      1  0.5202990000000  0.4269680000000  0.4850290000000 1.0
C      1  0.4934290000000  0.4269660000000  0.4754840000000 1.0
C      1  0.4714520000000  0.4277890000000  0.4939470000000 1.0
C      1  0.4767700000000  0.5699520000000  0.5215890000000 1.0
C      1  0.5041250000000  0.5699530000000  0.5313070000000 1.0
C      1  0.5259360000000  0.5733360000000  0.5125310000000 1.0
C      1  0.5206470000000  0.5752860000000  0.4842470000000 1.0
C      1  0.4936390000000  0.5752850000000  0.4746520000000 1.0
C      1  0.4716920000000  0.5733330000000  0.4932600000000 1.0
C      1  0.5388400000000  0.5006950000000  0.4765810000000 1.0
C      1  0.4843670000000  0.5006920000000  0.4572290000000 1.0
C      1  0.4711530000000  0.5043300000000  0.5047010000000 1.0
C      1  0.4574590000000  0.5012370000000  0.4777650000000 1.0
C      1  0.5191430000000  0.5043330000000  0.5217490000000 1.0
C      1  0.5467610000000  0.5012420000000  0.5094900000000 1.0
C      1  0.4986390000000  0.4875410000000  0.5034000000000 1.0
C      1  0.4991030000000  0.5148950000000  0.5020910000000 1.0
C      1  0.5079020000000  0.5001350000000  0.4773240000000 1.0
END
