TITL C-39159-8430-4 0.185805566572719 125000 -1050.64632072021 0 0 148 (C1) n - 1
REM
REM in /rds/project/t2_vol4/rds-t2-cs072/BORA/CARBON/from-Arr/AIRSS/Generating-Clusters/GAP-ML-2020/Higher-Symm/SD-CG/HFTN-CG
REM
REM
REM
REM
REM
REM ./C.cell (b20cbc046b6831c77cfcea5457e17084)
REM AIRSS Version 0.9.1 bugfix July 2018 build 013d7b7c2542+ Fri, 06 Jul 2018 19:26:36 +0100
REM compiler GCC version 9.3.0
REM options -cpp -mtune=generic -march=x86-64 -g -O0
REM seed 633487828 -1016253849 -1060412819 2054975784 -175631314 1766117311 -603692902 -969223307 -1314928412 -1474980984 58593790 -1980688055 1058689751 758303221 1529526117 -1852196339 -281944406 1068493778 -975725730 -1339488527 554717529 661437293 -2005735214 -1721918772 -1634310414 -1559523650 82753193 -352618713 357093006 -1099387246 334241203 -312260760 -29064891
REM
CELL 1.54180   50.00000   50.00000   50.00000   90.00000   90.00000   90.00000
LATT -1
SFAC C  
C      1  0.5122550000000  0.5937440000000  0.4887750000000 1.0
C      1  0.5120520000000  0.5714100000000  0.4406680000000 1.0
C      1  0.5118930000000  0.5294890000000  0.4077900000000 1.0
C      1  0.5135650000000  0.4761480000000  0.4077150000000 1.0
C      1  0.5125280000000  0.4302410000000  0.4350170000000 1.0
C      1  0.5128350000000  0.4084160000000  0.4827400000000 1.0
C      1  0.5105640000000  0.4133150000000  0.5362560000000 1.0
C      1  0.5093020000000  0.4480490000000  0.5751570000000 1.0
C      1  0.5096030000000  0.4978650000000  0.5920360000000 1.0
C      1  0.5110160000000  0.5486790000000  0.5815970000000 1.0
C      1  0.5122050000000  0.5826360000000  0.5400250000000 1.0
C      1  0.4674520000000  0.4285390000000  0.5573770000000 1.0
C      1  0.4678600000000  0.4714440000000  0.5883990000000 1.0
C      1  0.4673700000000  0.5245620000000  0.5910780000000 1.0
C      1  0.4728530000000  0.5716410000000  0.5647890000000 1.0
C      1  0.4706950000000  0.5929170000000  0.5155990000000 1.0
C      1  0.4721110000000  0.5869330000000  0.4629470000000 1.0
C      1  0.4708710000000  0.5531170000000  0.4224850000000 1.0
C      1  0.4714100000000  0.5018760000000  0.4046450000000 1.0
C      1  0.4732620000000  0.4517230000000  0.4185180000000 1.0
C      1  0.4710650000000  0.4178720000000  0.4584620000000 1.0
C      1  0.4726010000000  0.4064190000000  0.5091310000000 1.0
C      1  0.3910040000000  0.4867680000000  0.4562980000000 1.0
C      1  0.3994620000000  0.4675330000000  0.4742750000000 1.0
C      1  0.3892240000000  0.4594700000000  0.4990060000000 1.0
C      1  0.4015510000000  0.4587320000000  0.5229630000000 1.0
C      1  0.4028520000000  0.4666580000000  0.5516450000000 1.0
C      1  0.4022720000000  0.4943950000000  0.5598250000000 1.0
C      1  0.4016880000000  0.5176910000000  0.5428780000000 1.0
C      1  0.3887360000000  0.5291690000000  0.5221510000000 1.0
C      1  0.3990100000000  0.5386960000000  0.4983990000000 1.0
C      1  0.3913930000000  0.5336560000000  0.4725270000000 1.0
C      1  0.4003720000000  0.5123280000000  0.4583810000000 1.0
C      1  0.5774710000000  0.5357680000000  0.4339650000000 1.0
C      1  0.5778820000000  0.5080710000000  0.4248110000000 1.0
C      1  0.5773610000000  0.4561870000000  0.4401150000000 1.0
C      1  0.5772260000000  0.4365970000000  0.4616590000000 1.0
C      1  0.5768940000000  0.4259680000000  0.5149500000000 1.0
C      1  0.5765100000000  0.4368360000000  0.5420180000000 1.0
C      1  0.5778420000000  0.4752180000000  0.5748310000000 1.0
C      1  0.5773220000000  0.5250330000000  0.5717170000000 1.0
C      1  0.5775340000000  0.5498220000000  0.5563760000000 1.0
C      1  0.5784050000000  0.5743890000000  0.5061130000000 1.0
C      1  0.5781640000000  0.5709230000000  0.4772000000000 1.0
C      1  0.5398650000000  0.5907760000000  0.4892650000000 1.0
C      1  0.5384300000000  0.5619680000000  0.4483560000000 1.0
C      1  0.5398390000000  0.5281330000000  0.4104210000000 1.0
C      1  0.5418080000000  0.4766020000000  0.4107750000000 1.0
C      1  0.5403020000000  0.4316800000000  0.4367630000000 1.0
C      1  0.5409670000000  0.4104580000000  0.4835140000000 1.0
C      1  0.5384490000000  0.4141800000000  0.5352540000000 1.0
C      1  0.5367650000000  0.4527520000000  0.5667150000000 1.0
C      1  0.5369770000000  0.4986330000000  0.5823650000000 1.0
C      1  0.5387460000000  0.5473860000000  0.5793660000000 1.0
C      1  0.5385430000000  0.5718940000000  0.5351680000000 1.0
C      1  0.4342530000000  0.5747550000000  0.4834710000000 1.0
C      1  0.4369930000000  0.5628330000000  0.4569080000000 1.0
C      1  0.4350840000000  0.5234790000000  0.4252220000000 1.0
C      1  0.4371480000000  0.4744340000000  0.4263390000000 1.0
C      1  0.4348320000000  0.4492890000000  0.4411670000000 1.0
C      1  0.4372540000000  0.4226550000000  0.4928720000000 1.0
C      1  0.4349170000000  0.4262800000000  0.5218910000000 1.0
C      1  0.4273870000000  0.4612660000000  0.5693750000000 1.0
C      1  0.4296630000000  0.4910720000000  0.5745630000000 1.0
C      1  0.4349970000000  0.5495530000000  0.5622210000000 1.0
C      1  0.4385410000000  0.5677930000000  0.5400280000000 1.0
C      1  0.4987700000000  0.5536360000000  0.4206930000000 1.0
C      1  0.4993390000000  0.5024320000000  0.4032360000000 1.0
C      1  0.5007670000000  0.4510010000000  0.4174460000000 1.0
C      1  0.4990820000000  0.4161620000000  0.4573950000000 1.0
C      1  0.5000390000000  0.4060910000000  0.5094680000000 1.0
C      1  0.4959030000000  0.4276660000000  0.5586980000000 1.0
C      1  0.4961450000000  0.4712900000000  0.5886390000000 1.0
C      1  0.4961290000000  0.5242310000000  0.5920540000000 1.0
C      1  0.5003670000000  0.5707240000000  0.5644030000000 1.0
C      1  0.4988940000000  0.5930980000000  0.5155380000000 1.0
C      1  0.4998390000000  0.5876210000000  0.4623330000000 1.0
C      1  0.4430290000000  0.5436360000000  0.5212530000000 1.0
C      1  0.4280130000000  0.5472690000000  0.4963020000000 1.0
C      1  0.4415200000000  0.5358300000000  0.4701370000000 1.0
C      1  0.4296490000000  0.5148920000000  0.4526880000000 1.0
C      1  0.4423170000000  0.4880790000000  0.4532270000000 1.0
C      1  0.4286180000000  0.4633820000000  0.4673570000000 1.0
C      1  0.4428020000000  0.4518780000000  0.4899250000000 1.0
C      1  0.4304630000000  0.4556250000000  0.5181380000000 1.0
C      1  0.4445390000000  0.4811380000000  0.5270070000000 1.0
C      1  0.4437650000000  0.5018480000000  0.5506920000000 1.0
C      1  0.4299950000000  0.5265460000000  0.5436250000000 1.0
C      1  0.5187880000000  0.4677120000000  0.4691400000000 1.0
C      1  0.5343960000000  0.4661330000000  0.4948970000000 1.0
C      1  0.5195400000000  0.4619130000000  0.5182960000000 1.0
C      1  0.5316940000000  0.4719800000000  0.5414740000000 1.0
C      1  0.5334890000000  0.4985400000000  0.5487830000000 1.0
C      1  0.5199520000000  0.5190350000000  0.5333940000000 1.0
C      1  0.5323700000000  0.5434950000000  0.5208270000000 1.0
C      1  0.5183180000000  0.5393320000000  0.4948450000000 1.0
C      1  0.5300130000000  0.5378650000000  0.4678560000000 1.0
C      1  0.5170880000000  0.5152620000000  0.4560450000000 1.0
C      1  0.5329230000000  0.4929910000000  0.4636190000000 1.0
C      1  0.5909520000000  0.4830710000000  0.5504420000000 1.0
C      1  0.5904230000000  0.5111600000000  0.5494590000000 1.0
C      1  0.5914100000000  0.5357040000000  0.5339820000000 1.0
C      1  0.5913190000000  0.5479290000000  0.5094300000000 1.0
C      1  0.5913220000000  0.5446030000000  0.4805910000000 1.0
C      1  0.5915030000000  0.5281180000000  0.4589320000000 1.0
C      1  0.5924570000000  0.5006900000000  0.4497400000000 1.0
C      1  0.5934080000000  0.4744940000000  0.4573020000000 1.0
C      1  0.5929580000000  0.4549210000000  0.4789950000000 1.0
C      1  0.5922300000000  0.4503120000000  0.5060540000000 1.0
C      1  0.5909710000000  0.4608820000000  0.5330720000000 1.0
C      1  0.4580530000000  0.4166420000000  0.5328790000000 1.0
C      1  0.4533090000000  0.4504070000000  0.5727060000000 1.0
C      1  0.4535940000000  0.4973220000000  0.5913530000000 1.0
C      1  0.4579260000000  0.5488250000000  0.5777620000000 1.0
C      1  0.4601160000000  0.5843630000000  0.5415450000000 1.0
C      1  0.4577540000000  0.5886080000000  0.4892210000000 1.0
C      1  0.4588690000000  0.5713320000000  0.4421190000000 1.0
C      1  0.4583440000000  0.5273710000000  0.4138020000000 1.0
C      1  0.4589820000000  0.4757180000000  0.4092010000000 1.0
C      1  0.4590230000000  0.4359210000000  0.4390260000000 1.0
C      1  0.4588510000000  0.4086830000000  0.4837030000000 1.0
C      1  0.5527770000000  0.4122810000000  0.5098780000000 1.0
C      1  0.5520990000000  0.4304720000000  0.5543060000000 1.0
C      1  0.5527350000000  0.4729860000000  0.5822280000000 1.0
C      1  0.5526590000000  0.5232050000000  0.5851770000000 1.0
C      1  0.5527750000000  0.5624300000000  0.5593420000000 1.0
C      1  0.5537840000000  0.5849530000000  0.5136280000000 1.0
C      1  0.5536230000000  0.5792880000000  0.4669050000000 1.0
C      1  0.5533650000000  0.5475610000000  0.4269300000000 1.0
C      1  0.5541930000000  0.5026260000000  0.4105980000000 1.0
C      1  0.5540620000000  0.4542840000000  0.4246830000000 1.0
C      1  0.5538260000000  0.4214380000000  0.4602500000000 1.0
C      1  0.4887290000000  0.5459520000000  0.4944140000000 1.0
C      1  0.4718990000000  0.5295100000000  0.4754340000000 1.0
C      1  0.4870250000000  0.5140660000000  0.4561650000000 1.0
C      1  0.4736230000000  0.4888390000000  0.4541390000000 1.0
C      1  0.4889060000000  0.4725260000000  0.4727090000000 1.0
C      1  0.4742140000000  0.4540560000000  0.4909800000000 1.0
C      1  0.4898470000000  0.4662160000000  0.5141550000000 1.0
C      1  0.4734570000000  0.4761820000000  0.5342660000000 1.0
C      1  0.4756280000000  0.5001840000000  0.5493210000000 1.0
C      1  0.4898600000000  0.5220880000000  0.5383160000000 1.0
C      1  0.4735210000000  0.5340190000000  0.5174680000000 1.0
C      1  0.5187270000000  0.5085700000000  0.5040050000000 1.0
C      1  0.4686750000000  0.5098780000000  0.4988710000000 1.0
C      1  0.4916540000000  0.4917030000000  0.4980960000000 1.0
C      1  0.4434240000000  0.4974840000000  0.5039910000000 1.0
C      1  0.5423340000000  0.4948290000000  0.4919090000000 1.0
END
