TITL C-39734-1785-2 728.863905504736 125000 -722.682661165911 0 0 101 (C1) n - 1
REM
REM in /rds/project/t2_vol4/rds-t2-cs072/BORA/CARBON/from-Arr/AIRSS/Generating-Clusters/GAP-ML-2020/Higher-Symm/SD-CG/HFTN-CG
REM
REM
REM
REM
REM
REM ./C.cell (b20cbc046b6831c77cfcea5457e17084)
REM AIRSS Version 0.9.1 bugfix July 2018 build 013d7b7c2542+ Fri, 06 Jul 2018 19:26:36 +0100
REM compiler GCC version 9.3.0
REM options -cpp -mtune=generic -march=x86-64 -g -O0
REM seed 1439246445 -1723562723 1115251942 -826801339 -1877124099 -1543836521 1978626979 -1214304975 -959843797 -1850800716 1661009161 -1944102512 -856863746 39042064 -1453153311 -1712954282 -987999757 -674381757 931123506 -172558411 -811015214 -910983544 -211383019 1203578026 389853252 549967670 709974823 658297412 -220060792 1626912139 644343261 -998359340 1455602437
REM
CELL 1.54180   50.00000   50.00000   50.00000   90.00000   90.00000   90.00000
LATT -1
SFAC C  
C      1  0.4481970000000  0.4523190000000  0.4351040000000 1.0
C      1  0.4903020000000  0.4345250000000  0.4405400000000 1.0
C      1  0.5337880000000  0.4465130000000  0.4407290000000 1.0
C      1  0.5603070000000  0.4837710000000  0.4378780000000 1.0
C      1  0.5548950000000  0.5292290000000  0.4425040000000 1.0
C      1  0.5221890000000  0.5607540000000  0.4410820000000 1.0
C      1  0.4774850000000  0.5643450000000  0.4368430000000 1.0
C      1  0.4422530000000  0.5365850000000  0.4439340000000 1.0
C      1  0.4315730000000  0.4928310000000  0.4427330000000 1.0
C      1  0.4537520000000  0.4839440000000  0.5197610000000 1.0
C      1  0.4788380000000  0.4371290000000  0.5222750000000 1.0
C      1  0.5035120000000  0.4262100000000  0.5109990000000 1.0
C      1  0.5275360000000  0.4421480000000  0.5150580000000 1.0
C      1  0.5222650000000  0.4711930000000  0.5077790000000 1.0
C      1  0.5836400000000  0.5164320000000  0.5180390000000 1.0
C      1  0.5113040000000  0.5108780000000  0.5218680000000 1.0
C      1  0.4895570000000  0.5281750000000  0.5237010000000 1.0
C      1  0.4626590000000  0.5153500000000  0.5202080000000 1.0
C      1  0.5356860000000  0.5038280000000  0.4799690000000 1.0
C      1  0.5245410000000  0.5206350000000  0.4976380000000 1.0
C      1  0.5017190000000  0.5319260000000  0.4835960000000 1.0
C      1  0.4810180000000  0.5146370000000  0.4772570000000 1.0
C      1  0.4906290000000  0.4888300000000  0.4720580000000 1.0
C      1  0.4791580000000  0.4656600000000  0.4820870000000 1.0
C      1  0.4955060000000  0.4431420000000  0.4711200000000 1.0
C      1  0.5233270000000  0.4530980000000  0.4694930000000 1.0
C      1  0.5197840000000  0.4813180000000  0.4792880000000 1.0
C      1  0.5405140000000  0.5701550000000  0.5309560000000 1.0
C      1  0.4957000000000  0.5825930000000  0.5294570000000 1.0
C      1  0.4524820000000  0.5594910000000  0.5271040000000 1.0
C      1  0.4231000000000  0.5154890000000  0.5375500000000 1.0
C      1  0.4429410000000  0.4742590000000  0.5469380000000 1.0
C      1  0.4798450000000  0.4412500000000  0.5514090000000 1.0
C      1  0.5303290000000  0.4459180000000  0.5452950000000 1.0
C      1  0.5674310000000  0.4821750000000  0.5447030000000 1.0
C      1  0.5722530000000  0.5287820000000  0.5414670000000 1.0
C      1  0.5720340000000  0.5066400000000  0.4493060000000 1.0
C      1  0.5468130000000  0.5546370000000  0.4540790000000 1.0
C      1  0.4999930000000  0.5764130000000  0.4499140000000 1.0
C      1  0.4528210000000  0.5619060000000  0.4510630000000 1.0
C      1  0.4265360000000  0.5165910000000  0.4577320000000 1.0
C      1  0.4302900000000  0.4664420000000  0.4524220000000 1.0
C      1  0.4613710000000  0.4288780000000  0.4435030000000 1.0
C      1  0.5174780000000  0.4216440000000  0.4421780000000 1.0
C      1  0.5603180000000  0.4586860000000  0.4499070000000 1.0
C      1  0.5039400000000  0.4734030000000  0.5764740000000 1.0
C      1  0.5300030000000  0.4848070000000  0.5743680000000 1.0
C      1  0.5413740000000  0.5114000000000  0.5736620000000 1.0
C      1  0.5334750000000  0.5389540000000  0.5675890000000 1.0
C      1  0.5101090000000  0.5556930000000  0.5661550000000 1.0
C      1  0.4809930000000  0.5533210000000  0.5647460000000 1.0
C      1  0.4615240000000  0.5323550000000  0.5660770000000 1.0
C      1  0.4584430000000  0.5056240000000  0.5739700000000 1.0
C      1  0.4760880000000  0.4819460000000  0.5772770000000 1.0
C      1  0.4156570000000  0.5058410000000  0.5113600000000 1.0
C      1  0.4378620000000  0.4348650000000  0.4876660000000 1.0
C      1  0.4694520000000  0.4069580000000  0.4861990000000 1.0
C      1  0.5439740000000  0.4117420000000  0.4789050000000 1.0
C      1  0.5794160000000  0.4881010000000  0.5184320000000 1.0
C      1  0.5746100000000  0.5500530000000  0.4856040000000 1.0
C      1  0.5352620000000  0.5751680000000  0.5029450000000 1.0
C      1  0.4678290000000  0.6008330000000  0.4745510000000 1.0
C      1  0.4600530000000  0.5557090000000  0.4988180000000 1.0
C      1  0.5795820000000  0.4784310000000  0.4906270000000 1.0
C      1  0.5849420000000  0.5260200000000  0.4910260000000 1.0
C      1  0.5054910000000  0.5788970000000  0.5011810000000 1.0
C      1  0.4905090000000  0.5513420000000  0.5021080000000 1.0
C      1  0.4559790000000  0.5248610000000  0.4928740000000 1.0
C      1  0.4301490000000  0.4833510000000  0.5005820000000 1.0
C      1  0.4575240000000  0.4231410000000  0.5063720000000 1.0
C      1  0.4974130000000  0.4154770000000  0.4847370000000 1.0
C      1  0.5451250000000  0.4380530000000  0.4890250000000 1.0
C      1  0.5127530000000  0.5382590000000  0.4248190000000 1.0
C      1  0.4841340000000  0.5402210000000  0.4222750000000 1.0
C      1  0.4602510000000  0.5240100000000  0.4240660000000 1.0
C      1  0.4535420000000  0.4961560000000  0.4233380000000 1.0
C      1  0.4660930000000  0.4703320000000  0.4205200000000 1.0
C      1  0.4925090000000  0.4584650000000  0.4224840000000 1.0
C      1  0.5198540000000  0.4662690000000  0.4228750000000 1.0
C      1  0.5357680000000  0.4898930000000  0.4235570000000 1.0
C      1  0.5332690000000  0.5185000000000  0.4257610000000 1.0
C      1  0.4729150000000  0.5707990000000  0.5427910000000 1.0
C      1  0.4453130000000  0.5341740000000  0.5395200000000 1.0
C      1  0.4333850000000  0.4971110000000  0.5589870000000 1.0
C      1  0.4628080000000  0.4611590000000  0.5623680000000 1.0
C      1  0.5057770000000  0.4483550000000  0.5600700000000 1.0
C      1  0.5456850000000  0.4672880000000  0.5560600000000 1.0
C      1  0.5654260000000  0.5071960000000  0.5583940000000 1.0
C      1  0.5525220000000  0.5491300000000  0.5471170000000 1.0
C      1  0.5169190000000  0.5755930000000  0.5460090000000 1.0
C      1  0.4507470000000  0.4184340000000  0.4672930000000 1.0
C      1  0.5203580000000  0.4065210000000  0.4668080000000 1.0
C      1  0.5671040000000  0.4564280000000  0.4782610000000 1.0
C      1  0.5841900000000  0.5026140000000  0.4744330000000 1.0
C      1  0.5529330000000  0.5656500000000  0.4811240000000 1.0
C      1  0.4931120000000  0.5897840000000  0.4749680000000 1.0
C      1  0.4551120000000  0.5757710000000  0.4766450000000 1.0
C      1  0.4290770000000  0.5138770000000  0.4867070000000 1.0
C      1  0.4279590000000  0.4608120000000  0.4812010000000 1.0
C      1  0.5021790000000  0.4840760000000  0.5216060000000 1.0
C      1  0.4777800000000  0.4689830000000  0.5117620000000 1.0
END
