TITL C-39137-8592-5 543.915415633986 125000 -595.219940464609 0 0 84 (C1) n - 1
REM
REM in /rds/project/t2_vol4/rds-t2-cs072/BORA/CARBON/from-Arr/AIRSS/Generating-Clusters/GAP-ML-2020/Higher-Symm/SD-CG/HFTN-CG
REM
REM
REM
REM
REM
REM ./C.cell (b20cbc046b6831c77cfcea5457e17084)
REM AIRSS Version 0.9.1 bugfix July 2018 build 013d7b7c2542+ Fri, 06 Jul 2018 19:26:36 +0100
REM compiler GCC version 9.3.0
REM options -cpp -mtune=generic -march=x86-64 -g -O0
REM seed 11646459 988151412 1973578307 1797135972 -795976162 20098411 192045010 1635111618 1295628128 -1827887222 -1392984637 26254999 1020905543 -554883372 -910465269 1620163713 -1256336028 -1778250161 1890016096 -1875884576 -1787385016 986365899 97548256 1347452336 -1710012991 -373824498 -1122036563 -1029898596 1660610165 1567614450 -1737103285 1707450304 2103668081
REM
CELL 1.54180   50.00000   50.00000   50.00000   90.00000   90.00000   90.00000
LATT -1
SFAC C  
C      1  0.5420810000000  0.5294210000000  0.4410310000000 1.0
C      1  0.5409250000000  0.4708310000000  0.4398460000000 1.0
C      1  0.4848260000000  0.4529210000000  0.4373210000000 1.0
C      1  0.4514810000000  0.5011300000000  0.4417550000000 1.0
C      1  0.4851620000000  0.5476320000000  0.4380260000000 1.0
C      1  0.4582160000000  0.5785930000000  0.5312920000000 1.0
C      1  0.5305160000000  0.5643910000000  0.5326390000000 1.0
C      1  0.5782760000000  0.4664120000000  0.5331490000000 1.0
C      1  0.5194510000000  0.4276030000000  0.5393470000000 1.0
C      1  0.4382440000000  0.4701130000000  0.5306220000000 1.0
C      1  0.4427590000000  0.5254990000000  0.4545100000000 1.0
C      1  0.5064330000000  0.5635150000000  0.4483550000000 1.0
C      1  0.5608460000000  0.5148690000000  0.4577700000000 1.0
C      1  0.5328480000000  0.4458360000000  0.4503110000000 1.0
C      1  0.4593230000000  0.4526270000000  0.4509880000000 1.0
C      1  0.4607200000000  0.4748400000000  0.5517500000000 1.0
C      1  0.4693810000000  0.5708910000000  0.5555110000000 1.0
C      1  0.5181640000000  0.5489660000000  0.5536630000000 1.0
C      1  0.5610880000000  0.4645640000000  0.5543100000000 1.0
C      1  0.5111180000000  0.4486130000000  0.5546610000000 1.0
C      1  0.5578630000000  0.4862130000000  0.4583320000000 1.0
C      1  0.5058810000000  0.4362890000000  0.4472980000000 1.0
C      1  0.4431230000000  0.4762890000000  0.4530380000000 1.0
C      1  0.4598000000000  0.5482230000000  0.4519950000000 1.0
C      1  0.5334360000000  0.5541370000000  0.4514140000000 1.0
C      1  0.4552070000000  0.4361150000000  0.4737690000000 1.0
C      1  0.4295350000000  0.5255250000000  0.4804090000000 1.0
C      1  0.5014910000000  0.5801140000000  0.4705000000000 1.0
C      1  0.5723450000000  0.5238720000000  0.4827300000000 1.0
C      1  0.5440160000000  0.4354580000000  0.4752010000000 1.0
C      1  0.4938690000000  0.5234350000000  0.4265780000000 1.0
C      1  0.5215500000000  0.5145720000000  0.4274200000000 1.0
C      1  0.5209430000000  0.4860320000000  0.4267310000000 1.0
C      1  0.4932820000000  0.4774090000000  0.4259300000000 1.0
C      1  0.4767690000000  0.5006990000000  0.4278370000000 1.0
C      1  0.5135820000000  0.4157770000000  0.5153120000000 1.0
C      1  0.4246400000000  0.4467460000000  0.5187070000000 1.0
C      1  0.4363800000000  0.5692180000000  0.5177160000000 1.0
C      1  0.5145500000000  0.5802810000000  0.5157750000000 1.0
C      1  0.5916080000000  0.4871240000000  0.5208100000000 1.0
C      1  0.4726650000000  0.5132830000000  0.4948080000000 1.0
C      1  0.4987560000000  0.5210300000000  0.4873900000000 1.0
C      1  0.5369030000000  0.4975540000000  0.4798120000000 1.0
C      1  0.4984730000000  0.4772240000000  0.4871090000000 1.0
C      1  0.4730620000000  0.4856820000000  0.4955370000000 1.0
C      1  0.5087750000000  0.4626020000000  0.5081980000000 1.0
C      1  0.4597180000000  0.4646280000000  0.5098920000000 1.0
C      1  0.4603080000000  0.5318950000000  0.5143180000000 1.0
C      1  0.5078630000000  0.5295140000000  0.5117030000000 1.0
C      1  0.5452440000000  0.4965570000000  0.5080570000000 1.0
C      1  0.5736910000000  0.4744820000000  0.4787740000000 1.0
C      1  0.5011670000000  0.4195050000000  0.4695850000000 1.0
C      1  0.4286410000000  0.4761920000000  0.4772670000000 1.0
C      1  0.4573450000000  0.5628620000000  0.4756890000000 1.0
C      1  0.5437150000000  0.5638610000000  0.4769680000000 1.0
C      1  0.4452570000000  0.5152890000000  0.5332940000000 1.0
C      1  0.4856790000000  0.5452210000000  0.5237310000000 1.0
C      1  0.5353750000000  0.5209830000000  0.5231880000000 1.0
C      1  0.5342730000000  0.4704570000000  0.5204670000000 1.0
C      1  0.4819020000000  0.4484930000000  0.5208630000000 1.0
C      1  0.5327560000000  0.4706390000000  0.5521410000000 1.0
C      1  0.4833060000000  0.4559830000000  0.5486030000000 1.0
C      1  0.4603370000000  0.5036590000000  0.5546440000000 1.0
C      1  0.4876600000000  0.5482850000000  0.5540800000000 1.0
C      1  0.5291780000000  0.5225010000000  0.5520370000000 1.0
C      1  0.4245530000000  0.5001320000000  0.4924300000000 1.0
C      1  0.4783050000000  0.5778010000000  0.4855540000000 1.0
C      1  0.5608470000000  0.5478060000000  0.4935060000000 1.0
C      1  0.5639720000000  0.4503350000000  0.4888400000000 1.0
C      1  0.4768590000000  0.4205150000000  0.4835180000000 1.0
C      1  0.5759000000000  0.4974200000000  0.4994390000000 1.0
C      1  0.5238420000000  0.4193100000000  0.4878370000000 1.0
C      1  0.4370560000000  0.4513110000000  0.4922240000000 1.0
C      1  0.4416000000000  0.5490080000000  0.4968200000000 1.0
C      1  0.5234100000000  0.5802240000000  0.4886340000000 1.0
C      1  0.4852250000000  0.5745110000000  0.5138830000000 1.0
C      1  0.5492100000000  0.5471260000000  0.5194830000000 1.0
C      1  0.5582100000000  0.4522210000000  0.5164600000000 1.0
C      1  0.4850720000000  0.4214210000000  0.5113160000000 1.0
C      1  0.4288520000000  0.4964500000000  0.5206340000000 1.0
C      1  0.5104910000000  0.4989910000000  0.4746630000000 1.0
C      1  0.4802940000000  0.5204600000000  0.5655510000000 1.0
C      1  0.5251510000000  0.4971870000000  0.5639500000000 1.0
C      1  0.5021090000000  0.5065790000000  0.5728730000000 1.0
END
