TITL C-39761-6956-10 -0.124337683438788 125000 -481.820123230591 0 0 71 (C1) n - 1
REM
REM in /rds/project/t2_vol4/rds-t2-cs072/BORA/CARBON/from-Arr/AIRSS/Generating-Clusters/GAP-ML-2020/Higher-Symm/SD-CG/HFTN-CG
REM
REM
REM
REM
REM
REM ./C.cell (b20cbc046b6831c77cfcea5457e17084)
REM AIRSS Version 0.9.1 bugfix July 2018 build 013d7b7c2542+ Fri, 06 Jul 2018 19:26:36 +0100
REM compiler GCC version 9.3.0
REM options -cpp -mtune=generic -march=x86-64 -g -O0
REM seed 1554921180 778547749 1120288516 -48962877 874520505 -289631088 -998026788 -527869213 -1852534964 957007609 1023501847 1729276802 1168473619 -579323638 -1950557133 1196762536 -219599651 1770471989 -516295511 739777584 426441799 -268994209 -838228321 1240210278 957976919 162664801 -386484024 2137117982 -43990137 -755291822 -751293750 -941006065 1267519473
REM
CELL 1.54180   50.00000   50.00000   50.00000   90.00000   90.00000   90.00000
LATT -1
SFAC C  
C      1  0.5592240000000  0.4874050000000  0.4589630000000 1.0
C      1  0.4432170000000  0.4812360000000  0.5399960000000 1.0
C      1  0.5454090000000  0.4617120000000  0.5044880000000 1.0
C      1  0.4596470000000  0.4573950000000  0.4944670000000 1.0
C      1  0.5562730000000  0.5422040000000  0.4692900000000 1.0
C      1  0.4402760000000  0.5358830000000  0.5302270000000 1.0
C      1  0.4631260000000  0.5527080000000  0.5343160000000 1.0
C      1  0.5318310000000  0.5574680000000  0.4670880000000 1.0
C      1  0.5313120000000  0.4346200000000  0.5060370000000 1.0
C      1  0.4765410000000  0.4319220000000  0.4928330000000 1.0
C      1  0.5417660000000  0.5048920000000  0.5556080000000 1.0
C      1  0.4590040000000  0.5003120000000  0.4425910000000 1.0
C      1  0.4212620000000  0.4791780000000  0.4662170000000 1.0
C      1  0.5818830000000  0.4867190000000  0.5325000000000 1.0
C      1  0.5154400000000  0.5078770000000  0.4854220000000 1.0
C      1  0.4844050000000  0.5060520000000  0.5133870000000 1.0
C      1  0.4272980000000  0.5432290000000  0.5045990000000 1.0
C      1  0.5691640000000  0.5490170000000  0.4952510000000 1.0
C      1  0.5226230000000  0.4268980000000  0.4809590000000 1.0
C      1  0.4860450000000  0.4251000000000  0.5178940000000 1.0
C      1  0.5230940000000  0.4647350000000  0.5511140000000 1.0
C      1  0.4819070000000  0.4626950000000  0.4483030000000 1.0
C      1  0.5030560000000  0.4430880000000  0.4502770000000 1.0
C      1  0.5039690000000  0.4431710000000  0.5486990000000 1.0
C      1  0.4960930000000  0.5033880000000  0.5670630000000 1.0
C      1  0.5049790000000  0.5037480000000  0.4316560000000 1.0
C      1  0.4561540000000  0.4605000000000  0.5253790000000 1.0
C      1  0.5487590000000  0.4652700000000  0.4735270000000 1.0
C      1  0.4762270000000  0.4434320000000  0.5382110000000 1.0
C      1  0.5305890000000  0.4462170000000  0.4606690000000 1.0
C      1  0.4815420000000  0.5619830000000  0.4665370000000 1.0
C      1  0.5124060000000  0.5608080000000  0.5350790000000 1.0
C      1  0.5397220000000  0.5636540000000  0.5361050000000 1.0
C      1  0.4546040000000  0.5676860000000  0.4664000000000 1.0
C      1  0.5131470000000  0.4269930000000  0.5259540000000 1.0
C      1  0.4954630000000  0.4260680000000  0.4729950000000 1.0
C      1  0.5495800000000  0.5022560000000  0.4365530000000 1.0
C      1  0.4517890000000  0.4977630000000  0.5618800000000 1.0
C      1  0.4642950000000  0.5670730000000  0.5103820000000 1.0
C      1  0.5299940000000  0.5702200000000  0.4919920000000 1.0
C      1  0.5518860000000  0.5670680000000  0.5104360000000 1.0
C      1  0.4425470000000  0.5644950000000  0.4918040000000 1.0
C      1  0.4898760000000  0.5449970000000  0.5436350000000 1.0
C      1  0.5053420000000  0.5478510000000  0.4573560000000 1.0
C      1  0.5615240000000  0.5167480000000  0.4568800000000 1.0
C      1  0.4371810000000  0.5098740000000  0.5417900000000 1.0
C      1  0.5638830000000  0.4871840000000  0.5552070000000 1.0
C      1  0.4390630000000  0.4802020000000  0.4433400000000 1.0
C      1  0.5269370000000  0.5084170000000  0.5293800000000 1.0
C      1  0.4729170000000  0.5062160000000  0.4693340000000 1.0
C      1  0.4709680000000  0.5222420000000  0.4945830000000 1.0
C      1  0.5272130000000  0.5248000000000  0.5046920000000 1.0
C      1  0.5524530000000  0.4610170000000  0.5502750000000 1.0
C      1  0.4528840000000  0.4556710000000  0.4488560000000 1.0
C      1  0.4110720000000  0.5020650000000  0.4775240000000 1.0
C      1  0.5914190000000  0.5092570000000  0.5200580000000 1.0
C      1  0.4380130000000  0.4563780000000  0.4742470000000 1.0
C      1  0.5670060000000  0.4625270000000  0.5248650000000 1.0
C      1  0.5015460000000  0.5173440000000  0.4600440000000 1.0
C      1  0.4975050000000  0.5160310000000  0.5387880000000 1.0
C      1  0.4843800000000  0.5520860000000  0.4945810000000 1.0
C      1  0.5106280000000  0.5531750000000  0.5062070000000 1.0
C      1  0.4719830000000  0.5022230000000  0.5799060000000 1.0
C      1  0.5289050000000  0.5036250000000  0.4182920000000 1.0
C      1  0.5203250000000  0.4895810000000  0.5679740000000 1.0
C      1  0.4822170000000  0.4874440000000  0.4310180000000 1.0
C      1  0.5227450000000  0.4795400000000  0.5187050000000 1.0
C      1  0.4801660000000  0.4775990000000  0.4799080000000 1.0
C      1  0.4139330000000  0.5235260000000  0.4905300000000 1.0
C      1  0.5856150000000  0.5305090000000  0.5074770000000 1.0
C      1  0.5010000000000  0.4866710000000  0.4992470000000 1.0
END
