TITL C-39755-6867-9 0.153827023939459 125000 -693.224059845916 0 0 102 (C1) n - 1
REM
REM in /rds/project/t2_vol4/rds-t2-cs072/BORA/CARBON/from-Arr/AIRSS/Generating-Clusters/GAP-ML-2020/Higher-Symm/SD-CG/HFTN-CG
REM
REM
REM
REM
REM
REM ./C.cell (b20cbc046b6831c77cfcea5457e17084)
REM AIRSS Version 0.9.1 bugfix July 2018 build 013d7b7c2542+ Fri, 06 Jul 2018 19:26:36 +0100
REM compiler GCC version 9.3.0
REM options -cpp -mtune=generic -march=x86-64 -g -O0
REM seed -136056212 1253782232 -270192139 347939091 -1340875838 -2017056540 1192098916 1593615028 1616252287 -180467897 -1191771331 273414066 865003738 -1788319792 -861835527 -412870420 -1414567359 -1057627893 -678221728 -2055257764 394334878 2072129293 90897254 1934506205 -697852738 -252165740 -1004837637 498590206 666945049 -2071184923 -1942804535 -1680888629 -2087769278
REM
CELL 1.54180   50.00000   50.00000   50.00000   90.00000   90.00000   90.00000
LATT -1
SFAC C  
C      1  0.5436750000000  0.4321590000000  0.4614040000000 1.0
C      1  0.5404660000000  0.4265560000000  0.5271110000000 1.0
C      1  0.5447870000000  0.4802140000000  0.5711190000000 1.0
C      1  0.5424610000000  0.5418920000000  0.5623170000000 1.0
C      1  0.5407350000000  0.5773160000000  0.5051370000000 1.0
C      1  0.5395180000000  0.5535310000000  0.4413280000000 1.0
C      1  0.5457540000000  0.4876640000000  0.4212750000000 1.0
C      1  0.5142170000000  0.4118460000000  0.5245120000000 1.0
C      1  0.5199040000000  0.4681280000000  0.5794740000000 1.0
C      1  0.5218870000000  0.5391250000000  0.5828610000000 1.0
C      1  0.5181880000000  0.5900500000000  0.5185400000000 1.0
C      1  0.5149260000000  0.5701380000000  0.4406580000000 1.0
C      1  0.5238820000000  0.4955460000000  0.4028560000000 1.0
C      1  0.5226270000000  0.4245470000000  0.4446940000000 1.0
C      1  0.5546910000000  0.5542810000000  0.4653790000000 1.0
C      1  0.5586320000000  0.5085830000000  0.4356870000000 1.0
C      1  0.5597110000000  0.4549450000000  0.4545840000000 1.0
C      1  0.5552870000000  0.4371270000000  0.5055160000000 1.0
C      1  0.5601880000000  0.4676280000000  0.5510060000000 1.0
C      1  0.5571620000000  0.5200840000000  0.5540570000000 1.0
C      1  0.5554290000000  0.5579060000000  0.5192640000000 1.0
C      1  0.5227050000000  0.5108080000000  0.4647260000000 1.0
C      1  0.5332120000000  0.4829430000000  0.4687620000000 1.0
C      1  0.5215620000000  0.4664420000000  0.4902630000000 1.0
C      1  0.5360890000000  0.4740350000000  0.5158660000000 1.0
C      1  0.5226910000000  0.4967800000000  0.5288380000000 1.0
C      1  0.5206290000000  0.5248890000000  0.5182930000000 1.0
C      1  0.5227040000000  0.5310860000000  0.4884870000000 1.0
C      1  0.4607520000000  0.5031160000000  0.5772900000000 1.0
C      1  0.4690540000000  0.5459230000000  0.5548300000000 1.0
C      1  0.4666690000000  0.5649870000000  0.5030630000000 1.0
C      1  0.4635550000000  0.5462670000000  0.4574610000000 1.0
C      1  0.4768110000000  0.4766930000000  0.4275050000000 1.0
C      1  0.4739010000000  0.4391020000000  0.4676450000000 1.0
C      1  0.4673070000000  0.4475390000000  0.5239750000000 1.0
C      1  0.5704060000000  0.5135720000000  0.5298350000000 1.0
C      1  0.5685270000000  0.5344430000000  0.5081460000000 1.0
C      1  0.5682290000000  0.5314350000000  0.4781840000000 1.0
C      1  0.5696590000000  0.5061580000000  0.4624940000000 1.0
C      1  0.5636450000000  0.4777590000000  0.4747700000000 1.0
C      1  0.5642460000000  0.4678110000000  0.5044300000000 1.0
C      1  0.5716450000000  0.4834300000000  0.5287210000000 1.0
C      1  0.5324700000000  0.5638690000000  0.4819950000000 1.0
C      1  0.5344900000000  0.5260000000000  0.4361920000000 1.0
C      1  0.5367230000000  0.4689020000000  0.4410390000000 1.0
C      1  0.5317010000000  0.4367240000000  0.4875090000000 1.0
C      1  0.5373500000000  0.4516790000000  0.5397660000000 1.0
C      1  0.5328430000000  0.5028060000000  0.5580810000000 1.0
C      1  0.5325910000000  0.5504950000000  0.5367400000000 1.0
C      1  0.4881190000000  0.4622400000000  0.4040420000000 1.0
C      1  0.4818920000000  0.4139180000000  0.4561160000000 1.0
C      1  0.4688530000000  0.4243490000000  0.5449110000000 1.0
C      1  0.4733300000000  0.4811340000000  0.5901240000000 1.0
C      1  0.4787870000000  0.5650810000000  0.5755370000000 1.0
C      1  0.4713450000000  0.5935960000000  0.4984340000000 1.0
C      1  0.4754720000000  0.5482120000000  0.4304860000000 1.0
C      1  0.4418010000000  0.5357820000000  0.5497450000000 1.0
C      1  0.4452140000000  0.5429520000000  0.4994620000000 1.0
C      1  0.4479840000000  0.5277570000000  0.4752020000000 1.0
C      1  0.4512570000000  0.4971270000000  0.4777570000000 1.0
C      1  0.4336100000000  0.4789480000000  0.4934090000000 1.0
C      1  0.4461990000000  0.4708240000000  0.5185870000000 1.0
C      1  0.4393290000000  0.5083090000000  0.5593960000000 1.0
C      1  0.4819300000000  0.4428520000000  0.4973120000000 1.0
C      1  0.4898910000000  0.4609570000000  0.5402350000000 1.0
C      1  0.4818280000000  0.5180960000000  0.5618880000000 1.0
C      1  0.4826110000000  0.5553810000000  0.5283600000000 1.0
C      1  0.4826380000000  0.5564220000000  0.4775370000000 1.0
C      1  0.4792560000000  0.5037900000000  0.4334110000000 1.0
C      1  0.4818600000000  0.4623720000000  0.4526570000000 1.0
C      1  0.5149370000000  0.5197400000000  0.4145000000000 1.0
C      1  0.5114890000000  0.4520370000000  0.4391730000000 1.0
C      1  0.5054770000000  0.4209190000000  0.4974730000000 1.0
C      1  0.5125940000000  0.4526490000000  0.5562000000000 1.0
C      1  0.5090600000000  0.5132280000000  0.5759900000000 1.0
C      1  0.5087370000000  0.5704610000000  0.5377050000000 1.0
C      1  0.5071620000000  0.5749450000000  0.4683670000000 1.0
C      1  0.4786520000000  0.4849450000000  0.4736380000000 1.0
C      1  0.4932620000000  0.4714110000000  0.4968300000000 1.0
C      1  0.4952500000000  0.4847740000000  0.5254940000000 1.0
C      1  0.4778720000000  0.5064330000000  0.5329120000000 1.0
C      1  0.4902720000000  0.5286870000000  0.5171030000000 1.0
C      1  0.4925920000000  0.5304420000000  0.4864330000000 1.0
C      1  0.4926510000000  0.5086280000000  0.4635810000000 1.0
C      1  0.4648210000000  0.4532440000000  0.5892840000000 1.0
C      1  0.5051070000000  0.5612960000000  0.5866300000000 1.0
C      1  0.4971760000000  0.6031390000000  0.5053520000000 1.0
C      1  0.4930830000000  0.5683250000000  0.4249690000000 1.0
C      1  0.5065390000000  0.4784760000000  0.3902600000000 1.0
C      1  0.4981700000000  0.4145890000000  0.4317000000000 1.0
C      1  0.4917480000000  0.4086120000000  0.5393420000000 1.0
C      1  0.4868520000000  0.5252320000000  0.4179790000000 1.0
C      1  0.4963150000000  0.4376270000000  0.4150670000000 1.0
C      1  0.4910340000000  0.4036550000000  0.4791430000000 1.0
C      1  0.4652720000000  0.4361790000000  0.5706460000000 1.0
C      1  0.5015190000000  0.4873570000000  0.5895010000000 1.0
C      1  0.5012690000000  0.5793950000000  0.5666240000000 1.0
C      1  0.4931860000000  0.5997330000000  0.4788160000000 1.0
C      1  0.4480190000000  0.4991860000000  0.5315180000000 1.0
C      1  0.4066040000000  0.4780220000000  0.4899170000000 1.0
C      1  0.3818530000000  0.4762850000000  0.4853510000000 1.0
C      1  0.4380110000000  0.5287780000000  0.5222070000000 1.0
END
