TITL C-39761-6956-5 0.0528216361628626 125000 -663.011477603627 0 0 93 (C1) n - 1
REM
REM in /rds/project/t2_vol4/rds-t2-cs072/BORA/CARBON/from-Arr/AIRSS/Generating-Clusters/GAP-ML-2020/Higher-Symm/SD-CG/HFTN-CG
REM
REM
REM
REM
REM
REM ./C.cell (b20cbc046b6831c77cfcea5457e17084)
REM AIRSS Version 0.9.1 bugfix July 2018 build 013d7b7c2542+ Fri, 06 Jul 2018 19:26:36 +0100
REM compiler GCC version 9.3.0
REM options -cpp -mtune=generic -march=x86-64 -g -O0
REM seed 2135552097 -1751250088 1578824570 -811567221 -231979303 -496468680 -92606178 13695416 661981078 -1342737042 306012408 -1358861616 275957526 1761167865 1017519445 -846212050 638246484 -447651371 -1518823917 -1961705319 -501451261 -753995647 -364698652 -1596825172 480453481 -2817220 -60585177 459013238 -616269209 123860038 -1762890592 233056033 1033613199
REM
CELL 1.54180   50.00000   50.00000   50.00000   90.00000   90.00000   90.00000
LATT -1
SFAC C  
C      1  0.4823730000000  0.5777440000000  0.4637490000000 1.0
C      1  0.4605470000000  0.5729360000000  0.5174220000000 1.0
C      1  0.5172180000000  0.5714120000000  0.5383010000000 1.0
C      1  0.5389950000000  0.5758080000000  0.4859410000000 1.0
C      1  0.4610510000000  0.4303790000000  0.5186690000000 1.0
C      1  0.5159650000000  0.4299620000000  0.5387280000000 1.0
C      1  0.5366490000000  0.4266630000000  0.4857080000000 1.0
C      1  0.4801980000000  0.4246080000000  0.4655350000000 1.0
C      1  0.5174930000000  0.4087420000000  0.4952150000000 1.0
C      1  0.4901620000000  0.4079540000000  0.4850250000000 1.0
C      1  0.4792930000000  0.4104510000000  0.5116390000000 1.0
C      1  0.5063550000000  0.4104530000000  0.5219060000000 1.0
C      1  0.5691600000000  0.4643390000000  0.4951450000000 1.0
C      1  0.4928280000000  0.4560520000000  0.4313480000000 1.0
C      1  0.4282380000000  0.4663920000000  0.5054450000000 1.0
C      1  0.5048440000000  0.4700680000000  0.5662580000000 1.0
C      1  0.4369230000000  0.5014030000000  0.4448400000000 1.0
C      1  0.4708770000000  0.4911810000000  0.5373910000000 1.0
C      1  0.5684450000000  0.5003930000000  0.5578730000000 1.0
C      1  0.5358540000000  0.5064060000000  0.4543510000000 1.0
C      1  0.4958850000000  0.4446200000000  0.5524790000000 1.0
C      1  0.5532200000000  0.4413100000000  0.5047750000000 1.0
C      1  0.5012410000000  0.4356780000000  0.4495050000000 1.0
C      1  0.4441470000000  0.4427330000000  0.4981170000000 1.0
C      1  0.4987790000000  0.4865880000000  0.5418550000000 1.0
C      1  0.5236190000000  0.4918230000000  0.5032300000000 1.0
C      1  0.5096130000000  0.4990360000000  0.4388530000000 1.0
C      1  0.4833530000000  0.4823990000000  0.4856400000000 1.0
C      1  0.5715680000000  0.5372570000000  0.4963350000000 1.0
C      1  0.4938260000000  0.5454160000000  0.4306220000000 1.0
C      1  0.4274310000000  0.5389900000000  0.5026610000000 1.0
C      1  0.5046940000000  0.5332170000000  0.5693120000000 1.0
C      1  0.5328810000000  0.5275100000000  0.5693510000000 1.0
C      1  0.5691620000000  0.5294330000000  0.4687750000000 1.0
C      1  0.4676710000000  0.5342540000000  0.4324050000000 1.0
C      1  0.4283990000000  0.5288560000000  0.5297580000000 1.0
C      1  0.4753710000000  0.5221700000000  0.5039030000000 1.0
C      1  0.5007370000000  0.5290190000000  0.5195310000000 1.0
C      1  0.5106420000000  0.5339020000000  0.4908340000000 1.0
C      1  0.4864970000000  0.5262480000000  0.4770250000000 1.0
C      1  0.4640710000000  0.5009970000000  0.4367670000000 1.0
C      1  0.4224420000000  0.5028290000000  0.5345460000000 1.0
C      1  0.5445040000000  0.5006110000000  0.5726250000000 1.0
C      1  0.5639800000000  0.5004730000000  0.4606200000000 1.0
C      1  0.4305130000000  0.5249590000000  0.4580800000000 1.0
C      1  0.4621060000000  0.5149870000000  0.5580600000000 1.0
C      1  0.5712350000000  0.5231410000000  0.5421540000000 1.0
C      1  0.5386770000000  0.5284250000000  0.4350700000000 1.0
C      1  0.4846000000000  0.5145450000000  0.5763540000000 1.0
C      1  0.5775040000000  0.5157680000000  0.5152170000000 1.0
C      1  0.5127400000000  0.5258540000000  0.4250360000000 1.0
C      1  0.4220580000000  0.5175170000000  0.4839180000000 1.0
C      1  0.4481830000000  0.5457080000000  0.4498490000000 1.0
C      1  0.4496570000000  0.5376730000000  0.5472110000000 1.0
C      1  0.5512330000000  0.5415170000000  0.5509300000000 1.0
C      1  0.5514580000000  0.5462160000000  0.4517180000000 1.0
C      1  0.4687470000000  0.4439140000000  0.5426670000000 1.0
C      1  0.5424080000000  0.4405510000000  0.5323060000000 1.0
C      1  0.5294880000000  0.4371280000000  0.4601540000000 1.0
C      1  0.4542680000000  0.4380190000000  0.4705510000000 1.0
C      1  0.5770780000000  0.4852090000000  0.5146480000000 1.0
C      1  0.5144830000000  0.4738140000000  0.4249370000000 1.0
C      1  0.4223110000000  0.4866920000000  0.4851300000000 1.0
C      1  0.4846160000000  0.4852260000000  0.5821710000000 1.0
C      1  0.5147940000000  0.5040410000000  0.5268560000000 1.0
C      1  0.5281660000000  0.5126090000000  0.4838430000000 1.0
C      1  0.4863950000000  0.5009300000000  0.4608280000000 1.0
C      1  0.4693390000000  0.4956280000000  0.5077260000000 1.0
C      1  0.4671150000000  0.5583310000000  0.5410220000000 1.0
C      1  0.5439930000000  0.5614730000000  0.5326170000000 1.0
C      1  0.5327600000000  0.5663010000000  0.4592430000000 1.0
C      1  0.4556230000000  0.5657680000000  0.4685480000000 1.0
C      1  0.5651180000000  0.4725860000000  0.4677190000000 1.0
C      1  0.4672970000000  0.4683010000000  0.4333060000000 1.0
C      1  0.4289540000000  0.4767900000000  0.5327780000000 1.0
C      1  0.5341460000000  0.4737920000000  0.5698840000000 1.0
C      1  0.4541340000000  0.4681860000000  0.5497040000000 1.0
C      1  0.5512020000000  0.4597260000000  0.5507150000000 1.0
C      1  0.5480120000000  0.4563760000000  0.4495640000000 1.0
C      1  0.4474940000000  0.4576000000000  0.4513300000000 1.0
C      1  0.4597970000000  0.4750160000000  0.5773410000000 1.0
C      1  0.5716480000000  0.4775680000000  0.5417590000000 1.0
C      1  0.5409410000000  0.4647900000000  0.4235830000000 1.0
C      1  0.4298960000000  0.4784800000000  0.4591770000000 1.0
C      1  0.5549080000000  0.5605200000000  0.5054540000000 1.0
C      1  0.5037890000000  0.5663480000000  0.4481190000000 1.0
C      1  0.4442070000000  0.5621300000000  0.4956900000000 1.0
C      1  0.4969820000000  0.5509950000000  0.5456980000000 1.0
C      1  0.5075990000000  0.5910220000000  0.5218750000000 1.0
C      1  0.5192040000000  0.5927080000000  0.4953730000000 1.0
C      1  0.4922900000000  0.5927220000000  0.4844470000000 1.0
C      1  0.4807190000000  0.5903710000000  0.5105930000000 1.0
C      1  0.5058620000000  0.4715430000000  0.4954820000000 1.0
END
