TITL C-39744-1760-3 -0.348180951591859 125000 -852.268543732329 0 0 116 (Cs) n - 1
REM
REM in /rds/project/t2_vol4/rds-t2-cs072/BORA/CARBON/from-Arr/AIRSS/Generating-Clusters/GAP-ML-2020/Higher-Symm/SD-CG/HFTN-CG
REM
REM
REM
REM
REM
REM ./C.cell (b20cbc046b6831c77cfcea5457e17084)
REM AIRSS Version 0.9.1 bugfix July 2018 build 013d7b7c2542+ Fri, 06 Jul 2018 19:26:36 +0100
REM compiler GCC version 9.3.0
REM options -cpp -mtune=generic -march=x86-64 -g -O0
REM seed 36964741 -995885354 710866929 -1445446831 -747776179 747331886 -888380822 851628661 1109259870 -971704857 -398283562 -1018953392 -1929430562 1876305520 2073455791 1546512618 2040827322 1890920313 1095666098 -1227434553 -694672 2066284250 1557880261 405207226 1443404457 1551704948 1628159709 -450904929 -1752175325 658782072 -1339813005 -2090369055 -1190310442
REM
CELL 1.54180   50.00000   50.00000   50.00000   90.00000   90.00000   90.00000
LATT -1
SFAC C  
C      1  0.4755090000000  0.5118510000000  0.3966370000000 1.0
C      1  0.5266570000000  0.5117600000000  0.6033850000000 1.0
C      1  0.4747800000000  0.4880390000000  0.6028390000000 1.0
C      1  0.5262010000000  0.4875300000000  0.3999210000000 1.0
C      1  0.3966210000000  0.5118100000000  0.4733400000000 1.0
C      1  0.6033660000000  0.5118020000000  0.5245030000000 1.0
C      1  0.6000760000000  0.4875020000000  0.4738010000000 1.0
C      1  0.3971550000000  0.4880690000000  0.5252080000000 1.0
C      1  0.5421310000000  0.4822300000000  0.4222320000000 1.0
C      1  0.4536230000000  0.4832730000000  0.5844830000000 1.0
C      1  0.5481850000000  0.5167360000000  0.5854530000000 1.0
C      1  0.4539400000000  0.5166170000000  0.4146210000000 1.0
C      1  0.4155070000000  0.4832870000000  0.5463650000000 1.0
C      1  0.5777640000000  0.4822160000000  0.4578670000000 1.0
C      1  0.5853830000000  0.5165660000000  0.5460720000000 1.0
C      1  0.4145570000000  0.5167880000000  0.4518150000000 1.0
C      1  0.5762390000000  0.4481850000000  0.5254610000000 1.0
C      1  0.4255730000000  0.4492560000000  0.4737470000000 1.0
C      1  0.5737920000000  0.5532910000000  0.4754430000000 1.0
C      1  0.4254640000000  0.5507450000000  0.5247280000000 1.0
C      1  0.5262280000000  0.4492180000000  0.5744090000000 1.0
C      1  0.4745240000000  0.4482240000000  0.4237390000000 1.0
C      1  0.4752860000000  0.5507260000000  0.5745540000000 1.0
C      1  0.5245830000000  0.5533090000000  0.4262300000000 1.0
C      1  0.5472720000000  0.4567410000000  0.4327140000000 1.0
C      1  0.4531200000000  0.4610270000000  0.5669940000000 1.0
C      1  0.5488940000000  0.5394100000000  0.5684240000000 1.0
C      1  0.4521680000000  0.5393850000000  0.4313870000000 1.0
C      1  0.4329880000000  0.4610350000000  0.5468600000000 1.0
C      1  0.5672730000000  0.4567330000000  0.4527160000000 1.0
C      1  0.5686240000000  0.5393400000000  0.5478520000000 1.0
C      1  0.4315940000000  0.5394550000000  0.4511160000000 1.0
C      1  0.3978510000000  0.4715030000000  0.5030760000000 1.0
C      1  0.6031750000000  0.4702930000000  0.4953200000000 1.0
C      1  0.3973880000000  0.5283590000000  0.4955530000000 1.0
C      1  0.6022580000000  0.5286960000000  0.5025520000000 1.0
C      1  0.5046760000000  0.4703310000000  0.3968140000000 1.0
C      1  0.4969060000000  0.4714650000000  0.6021380000000 1.0
C      1  0.4974660000000  0.5287360000000  0.3977530000000 1.0
C      1  0.5044510000000  0.5283180000000  0.6026230000000 1.0
C      1  0.6013500000000  0.5159450000000  0.4772440000000 1.0
C      1  0.3950710000000  0.5161870000000  0.5210980000000 1.0
C      1  0.6055770000000  0.4834480000000  0.5205300000000 1.0
C      1  0.3950370000000  0.4836410000000  0.4775430000000 1.0
C      1  0.4789010000000  0.5161550000000  0.6049330000000 1.0
C      1  0.5227690000000  0.5159750000000  0.3986570000000 1.0
C      1  0.5224430000000  0.4835920000000  0.6049580000000 1.0
C      1  0.4794720000000  0.4834970000000  0.3944150000000 1.0
C      1  0.5027410000000  0.4770350000000  0.5206230000000 1.0
C      1  0.5023820000000  0.4769540000000  0.4752850000000 1.0
C      1  0.5015070000000  0.5251290000000  0.4763030000000 1.0
C      1  0.5016410000000  0.5247960000000  0.5211130000000 1.0
C      1  0.5247060000000  0.4769450000000  0.4976110000000 1.0
C      1  0.4793690000000  0.4770440000000  0.4972490000000 1.0
C      1  0.4788960000000  0.5248050000000  0.4983670000000 1.0
C      1  0.5237070000000  0.5251210000000  0.4985040000000 1.0
C      1  0.5362290000000  0.5276130000000  0.4205700000000 1.0
C      1  0.4608020000000  0.5291990000000  0.5873830000000 1.0
C      1  0.5407150000000  0.4706920000000  0.5875400000000 1.0
C      1  0.4609380000000  0.4706490000000  0.4114960000000 1.0
C      1  0.4126250000000  0.5292180000000  0.5392030000000 1.0
C      1  0.5794430000000  0.5275970000000  0.4637870000000 1.0
C      1  0.5884900000000  0.4706000000000  0.5390570000000 1.0
C      1  0.4124520000000  0.4707420000000  0.4592670000000 1.0
C      1  0.5299020000000  0.4421630000000  0.5479960000000 1.0
C      1  0.4714250000000  0.4416700000000  0.4503650000000 1.0
C      1  0.5284690000000  0.5636050000000  0.4518290000000 1.0
C      1  0.4717300000000  0.5576010000000  0.5479530000000 1.0
C      1  0.5496110000000  0.4416400000000  0.5285560000000 1.0
C      1  0.4519840000000  0.4421930000000  0.4700720000000 1.0
C      1  0.4520680000000  0.5576090000000  0.5282880000000 1.0
C      1  0.5481980000000  0.5635970000000  0.4715590000000 1.0
C      1  0.4705890000000  0.5547670000000  0.5052770000000 1.0
C      1  0.5300290000000  0.5562630000000  0.4936390000000 1.0
C      1  0.4716790000000  0.4469680000000  0.4922490000000 1.0
C      1  0.5308740000000  0.4459350000000  0.5055680000000 1.0
C      1  0.5063840000000  0.5562720000000  0.4699940000000 1.0
C      1  0.4947420000000  0.5547580000000  0.5294320000000 1.0
C      1  0.4944140000000  0.4459490000000  0.4691050000000 1.0
C      1  0.5077290000000  0.4469540000000  0.5283020000000 1.0
C      1  0.4433070000000  0.5089990000000  0.5764250000000 1.0
C      1  0.5364720000000  0.5048460000000  0.4420740000000 1.0
C      1  0.4435110000000  0.4910070000000  0.4225680000000 1.0
C      1  0.5583520000000  0.4909880000000  0.5769340000000 1.0
C      1  0.5579300000000  0.5048380000000  0.4635340000000 1.0
C      1  0.4235750000000  0.5090070000000  0.5566910000000 1.0
C      1  0.4230660000000  0.4910410000000  0.4416390000000 1.0
C      1  0.5774250000000  0.4909560000000  0.5564910000000 1.0
C      1  0.5832960000000  0.5507200000000  0.5025540000000 1.0
C      1  0.4169460000000  0.5493550000000  0.4969180000000 1.0
C      1  0.5839240000000  0.4485410000000  0.4976250000000 1.0
C      1  0.4177570000000  0.4508660000000  0.5016010000000 1.0
C      1  0.5030950000000  0.5493220000000  0.5830730000000 1.0
C      1  0.4974710000000  0.5507540000000  0.4167230000000 1.0
C      1  0.4983740000000  0.4508350000000  0.5822230000000 1.0
C      1  0.5023620000000  0.4485720000000  0.4160560000000 1.0
C      1  0.5662930000000  0.5560910000000  0.5246120000000 1.0
C      1  0.4338560000000  0.5555400000000  0.4750390000000 1.0
C      1  0.5663540000000  0.4407680000000  0.4763830000000 1.0
C      1  0.4355470000000  0.4452790000000  0.5229670000000 1.0
C      1  0.5249780000000  0.5555050000000  0.5661670000000 1.0
C      1  0.4754140000000  0.5561260000000  0.4337270000000 1.0
C      1  0.4770080000000  0.4452630000000  0.5644300000000 1.0
C      1  0.5235990000000  0.4407850000000  0.4336250000000 1.0
C      1  0.5188130000000  0.4323070000000  0.4609360000000 1.0
C      1  0.4822560000000  0.4358000000000  0.5376890000000 1.0
C      1  0.5199580000000  0.5656750000000  0.5396060000000 1.0
C      1  0.4803180000000  0.5661720000000  0.4602120000000 1.0
C      1  0.4622850000000  0.4358080000000  0.5177170000000 1.0
C      1  0.5390390000000  0.4322990000000  0.4811640000000 1.0
C      1  0.5398120000000  0.5661490000000  0.5197100000000 1.0
C      1  0.4604200000000  0.5656980000000  0.4800650000000 1.0
C      1  0.5020780000000  0.5006200000000  0.5395130000000 1.0
C      1  0.5063260000000  0.5012340000000  0.4580410000000 1.0
C      1  0.5419600000000  0.5012200000000  0.4936780000000 1.0
C      1  0.4604880000000  0.5006360000000  0.4979200000000 1.0
END
