TITL C-39738-1861-8 0.0127569000842856 125000 -201.204232322037 0 0 31 (C1) n - 1
REM
REM in /rds/project/t2_vol4/rds-t2-cs072/BORA/CARBON/from-Arr/AIRSS/Generating-Clusters/GAP-ML-2020/Higher-Symm/SD-CG/HFTN-CG
REM
REM
REM
REM
REM
REM ./C.cell (b20cbc046b6831c77cfcea5457e17084)
REM AIRSS Version 0.9.1 bugfix July 2018 build 013d7b7c2542+ Fri, 06 Jul 2018 19:26:36 +0100
REM compiler GCC version 9.3.0
REM options -cpp -mtune=generic -march=x86-64 -g -O0
REM seed -898764727 1843548551 1539337785 1589751339 -1076938297 -317091474 -1716029081 1848556823 -2116655232 828195510 -735630644 1598349435 -1988850339 -232029457 1541848164 -381406947 1199584478 -2009139009 -1303233868 1365126303 972490721 -566170045 529964532 -649836425 2031825052 1537842191 -1458002419 1925127499 253330582 1064910526 -1810835727 -1836952587 784928270
REM
CELL 1.54180   50.00000   50.00000   50.00000   90.00000   90.00000   90.00000
LATT -1
SFAC C  
C      1  0.4893620000000  0.4475250000000  0.4908680000000 1.0
C      1  0.5207050000000  0.4949120000000  0.5129710000000 1.0
C      1  0.4799260000000  0.5292920000000  0.4454370000000 1.0
C      1  0.5178370000000  0.4897980000000  0.5421260000000 1.0
C      1  0.5136770000000  0.4532650000000  0.5027960000000 1.0
C      1  0.4581080000000  0.4937640000000  0.5408560000000 1.0
C      1  0.4881150000000  0.4985980000000  0.5091450000000 1.0
C      1  0.4769380000000  0.4762150000000  0.5273230000000 1.0
C      1  0.5170630000000  0.4912880000000  0.4694440000000 1.0
C      1  0.5171930000000  0.5134080000000  0.5539550000000 1.0
C      1  0.4575270000000  0.4731160000000  0.4847100000000 1.0
C      1  0.4927010000000  0.4845350000000  0.4582040000000 1.0
C      1  0.5627570000000  0.5046280000000  0.4860720000000 1.0
C      1  0.4972470000000  0.5556530000000  0.4802710000000 1.0
C      1  0.4812460000000  0.5717190000000  0.4946440000000 1.0
C      1  0.4853230000000  0.5260720000000  0.5222940000000 1.0
C      1  0.5587460000000  0.4794100000000  0.4878270000000 1.0
C      1  0.5228680000000  0.5188320000000  0.4699020000000 1.0
C      1  0.4659720000000  0.4576100000000  0.5072070000000 1.0
C      1  0.4748610000000  0.5082910000000  0.4610250000000 1.0
C      1  0.5021860000000  0.4661560000000  0.5410560000000 1.0
C      1  0.5297720000000  0.4755590000000  0.4916870000000 1.0
C      1  0.4791520000000  0.4628110000000  0.4690520000000 1.0
C      1  0.5127310000000  0.5310050000000  0.5326180000000 1.0
C      1  0.5288260000000  0.5224330000000  0.5098610000000 1.0
C      1  0.5453000000000  0.5267570000000  0.4878800000000 1.0
C      1  0.5141350000000  0.4449560000000  0.5297700000000 1.0
C      1  0.4787060000000  0.5462330000000  0.5029130000000 1.0
C      1  0.4630630000000  0.5187020000000  0.5410650000000 1.0
C      1  0.5027750000000  0.5368390000000  0.4601880000000 1.0
C      1  0.4651820000000  0.5006190000000  0.4868330000000 1.0
END
