TITL C-39747-1790-3 17.7096516199678 125000 -902.733848369562 0 0 132 (Th) n - 1
REM
REM in /rds/project/t2_vol4/rds-t2-cs072/BORA/CARBON/from-Arr/AIRSS/Generating-Clusters/GAP-ML-2020/Higher-Symm/SD-CG/HFTN-CG
REM
REM
REM
REM
REM
REM ./C.cell (b20cbc046b6831c77cfcea5457e17084)
REM AIRSS Version 0.9.1 bugfix July 2018 build 013d7b7c2542+ Fri, 06 Jul 2018 19:26:36 +0100
REM compiler GCC version 9.3.0
REM options -cpp -mtune=generic -march=x86-64 -g -O0
REM seed -723768137 962576752 1580565025 1268794077 -22405542 1119572347 -281154623 1311572119 -1342994766 -876215738 -1021897743 817689338 574633785 -929472690 -1455029376 -720917530 -1944846812 964673820 919634397 -1717631154 -89703802 452114945 -1208882016 457547731 213085787 -1311145313 727328145 357469910 1075494358 -739942568 -1587555554 -1814174606 -1199687312
REM
CELL 1.54180   50.00000   50.00000   50.00000   90.00000   90.00000   90.00000
LATT -1
SFAC C  
C      1  0.4698870000000  0.5141510000000  0.4622850000000 1.0
C      1  0.5141530000000  0.4622860000000  0.4698870000000 1.0
C      1  0.4622860000000  0.4698860000000  0.5141510000000 1.0
C      1  0.5301150000000  0.4858490000000  0.4622870000000 1.0
C      1  0.4698850000000  0.4858480000000  0.5377130000000 1.0
C      1  0.5301120000000  0.5141530000000  0.5377150000000 1.0
C      1  0.4858480000000  0.5377140000000  0.4698850000000 1.0
C      1  0.5141500000000  0.5377150000000  0.5301140000000 1.0
C      1  0.4858480000000  0.4622860000000  0.5301140000000 1.0
C      1  0.5377130000000  0.5301150000000  0.5141530000000 1.0
C      1  0.4622860000000  0.5301130000000  0.4858470000000 1.0
C      1  0.5377150000000  0.4698870000000  0.4858500000000 1.0
C      1  0.4698850000000  0.5141510000000  0.5377130000000 1.0
C      1  0.5141520000000  0.4622860000000  0.5301150000000 1.0
C      1  0.4622870000000  0.4698850000000  0.4858470000000 1.0
C      1  0.5301130000000  0.4858490000000  0.5377150000000 1.0
C      1  0.4698880000000  0.4858470000000  0.4622850000000 1.0
C      1  0.5301150000000  0.5141520000000  0.4622870000000 1.0
C      1  0.4858470000000  0.5377140000000  0.5301130000000 1.0
C      1  0.5141520000000  0.5377140000000  0.4698860000000 1.0
C      1  0.4858500000000  0.4622850000000  0.4698860000000 1.0
C      1  0.5377140000000  0.5301140000000  0.4858490000000 1.0
C      1  0.4622850000000  0.5301130000000  0.5141500000000 1.0
C      1  0.5377140000000  0.4698870000000  0.5141530000000 1.0
C      1  0.4527000000000  0.4846950000000  0.4346960000000 1.0
C      1  0.4846990000000  0.4346960000000  0.4526980000000 1.0
C      1  0.4346980000000  0.4526970000000  0.4846950000000 1.0
C      1  0.5473030000000  0.5153040000000  0.4346980000000 1.0
C      1  0.4526960000000  0.5153030000000  0.5653020000000 1.0
C      1  0.5473000000000  0.4846980000000  0.5653050000000 1.0
C      1  0.5153040000000  0.5653030000000  0.4526980000000 1.0
C      1  0.4846940000000  0.5653030000000  0.5473010000000 1.0
C      1  0.5153040000000  0.4346970000000  0.5473030000000 1.0
C      1  0.5653030000000  0.5473030000000  0.4846980000000 1.0
C      1  0.4346950000000  0.5473010000000  0.5153020000000 1.0
C      1  0.5653040000000  0.4527000000000  0.5153060000000 1.0
C      1  0.4526970000000  0.4846960000000  0.5653020000000 1.0
C      1  0.4846960000000  0.4346970000000  0.5473020000000 1.0
C      1  0.4346970000000  0.4526970000000  0.5153020000000 1.0
C      1  0.5473000000000  0.5153050000000  0.5653040000000 1.0
C      1  0.4527000000000  0.5153020000000  0.4346950000000 1.0
C      1  0.5473040000000  0.4846970000000  0.4346980000000 1.0
C      1  0.5153010000000  0.5653040000000  0.5473020000000 1.0
C      1  0.4846960000000  0.5653030000000  0.4526970000000 1.0
C      1  0.5153060000000  0.4346970000000  0.4526990000000 1.0
C      1  0.5653020000000  0.5473030000000  0.5153050000000 1.0
C      1  0.4346960000000  0.5473000000000  0.4846940000000 1.0
C      1  0.5653050000000  0.4526990000000  0.4846980000000 1.0
C      1  0.5768510000000  0.4461610000000  0.4322540000000 1.0
C      1  0.4461600000000  0.4322510000000  0.5768470000000 1.0
C      1  0.4322510000000  0.5768460000000  0.4461580000000 1.0
C      1  0.4231530000000  0.5538370000000  0.4322490000000 1.0
C      1  0.5768450000000  0.5538420000000  0.5677500000000 1.0
C      1  0.4231510000000  0.4461600000000  0.5677470000000 1.0
C      1  0.5538360000000  0.5677500000000  0.5768490000000 1.0
C      1  0.4461610000000  0.5677470000000  0.4231500000000 1.0
C      1  0.5538430000000  0.4322520000000  0.4231540000000 1.0
C      1  0.5677520000000  0.4231530000000  0.4461630000000 1.0
C      1  0.4322510000000  0.4231510000000  0.5538380000000 1.0
C      1  0.5677460000000  0.5768500000000  0.5538410000000 1.0
C      1  0.5768470000000  0.4461630000000  0.5677510000000 1.0
C      1  0.4461640000000  0.4322500000000  0.4231510000000 1.0
C      1  0.4322480000000  0.5768470000000  0.5538370000000 1.0
C      1  0.4231490000000  0.5538390000000  0.5677460000000 1.0
C      1  0.5768490000000  0.5538400000000  0.4322530000000 1.0
C      1  0.4231550000000  0.4461580000000  0.4322500000000 1.0
C      1  0.5538400000000  0.5677490000000  0.4231530000000 1.0
C      1  0.4461570000000  0.5677480000000  0.5768460000000 1.0
C      1  0.5538390000000  0.4322530000000  0.5768500000000 1.0
C      1  0.5677490000000  0.4231540000000  0.5538420000000 1.0
C      1  0.4322540000000  0.4231500000000  0.4461590000000 1.0
C      1  0.5677490000000  0.5768490000000  0.4461620000000 1.0
C      1  0.4191390000000  0.4749410000000  0.5292760000000 1.0
C      1  0.4749440000000  0.5292770000000  0.4191390000000 1.0
C      1  0.5292810000000  0.4191400000000  0.4749440000000 1.0
C      1  0.5808590000000  0.5250590000000  0.5292800000000 1.0
C      1  0.4191400000000  0.5250560000000  0.4707190000000 1.0
C      1  0.5808620000000  0.4749440000000  0.4707240000000 1.0
C      1  0.5250600000000  0.4707210000000  0.4191410000000 1.0
C      1  0.4749410000000  0.4707220000000  0.5808600000000 1.0
C      1  0.5250550000000  0.5292800000000  0.5808610000000 1.0
C      1  0.4707210000000  0.5808600000000  0.4749410000000 1.0
C      1  0.5292760000000  0.5808610000000  0.5250580000000 1.0
C      1  0.4707220000000  0.4191390000000  0.5250570000000 1.0
C      1  0.4191410000000  0.4749410000000  0.4707200000000 1.0
C      1  0.4749400000000  0.5292790000000  0.5808590000000 1.0
C      1  0.5292790000000  0.4191400000000  0.5250590000000 1.0
C      1  0.5808610000000  0.5250590000000  0.4707240000000 1.0
C      1  0.4191380000000  0.5250560000000  0.5292760000000 1.0
C      1  0.5808600000000  0.4749440000000  0.5292810000000 1.0
C      1  0.5250560000000  0.4707230000000  0.5808610000000 1.0
C      1  0.4749450000000  0.4707200000000  0.4191390000000 1.0
C      1  0.5250590000000  0.5292780000000  0.4191400000000 1.0
C      1  0.4707190000000  0.5808600000000  0.5250560000000 1.0
C      1  0.5292780000000  0.5808610000000  0.4749430000000 1.0
C      1  0.4707240000000  0.4191390000000  0.4749420000000 1.0
C      1  0.5734980000000  0.4721140000000  0.4425070000000 1.0
C      1  0.4721120000000  0.4425050000000  0.5734960000000 1.0
C      1  0.4425040000000  0.5734950000000  0.4721110000000 1.0
C      1  0.4265050000000  0.5278850000000  0.4425030000000 1.0
C      1  0.5734940000000  0.5278890000000  0.5574970000000 1.0
C      1  0.4265030000000  0.4721120000000  0.5574930000000 1.0
C      1  0.5278840000000  0.5574960000000  0.5734960000000 1.0
C      1  0.4721140000000  0.5574940000000  0.4265030000000 1.0
C      1  0.5278900000000  0.4425050000000  0.4265050000000 1.0
C      1  0.5574970000000  0.4265050000000  0.4721150000000 1.0
C      1  0.4425060000000  0.4265030000000  0.5278860000000 1.0
C      1  0.5574930000000  0.5734970000000  0.5278880000000 1.0
C      1  0.5734950000000  0.4721150000000  0.5574970000000 1.0
C      1  0.4721160000000  0.4425040000000  0.4265040000000 1.0
C      1  0.4425030000000  0.5734950000000  0.5278850000000 1.0
C      1  0.4265020000000  0.5278860000000  0.5574930000000 1.0
C      1  0.5734970000000  0.5278880000000  0.4425070000000 1.0
C      1  0.4265060000000  0.4721110000000  0.4425030000000 1.0
C      1  0.5278880000000  0.5574950000000  0.4265040000000 1.0
C      1  0.4721100000000  0.5574950000000  0.5734950000000 1.0
C      1  0.5278860000000  0.4425060000000  0.5734970000000 1.0
C      1  0.5574960000000  0.4265050000000  0.5278890000000 1.0
C      1  0.4425070000000  0.4265030000000  0.4721120000000 1.0
C      1  0.5574940000000  0.5734970000000  0.4721140000000 1.0
C      1  0.5148380000000  0.4157400000000  0.5000010000000 1.0
C      1  0.4851620000000  0.5842600000000  0.4999990000000 1.0
C      1  0.5148350000000  0.5842600000000  0.5000000000000 1.0
C      1  0.5842600000000  0.5000020000000  0.5148390000000 1.0
C      1  0.4999970000000  0.5148370000000  0.5842600000000 1.0
C      1  0.4851650000000  0.4157400000000  0.5000000000000 1.0
C      1  0.4157400000000  0.4999980000000  0.5148340000000 1.0
C      1  0.5842600000000  0.5000020000000  0.4851660000000 1.0
C      1  0.4157400000000  0.4999980000000  0.4851610000000 1.0
C      1  0.4999980000000  0.4851640000000  0.5842600000000 1.0
C      1  0.5000030000000  0.4851630000000  0.4157400000000 1.0
C      1  0.5000020000000  0.5148360000000  0.4157400000000 1.0
END
