TITL C-39755-6867-1 0.0159437167979566 125000 -354.733972577326 0 0 54 (Ci) n - 1
REM
REM in /rds/project/t2_vol4/rds-t2-cs072/BORA/CARBON/from-Arr/AIRSS/Generating-Clusters/GAP-ML-2020/Higher-Symm/SD-CG/HFTN-CG
REM
REM
REM
REM
REM
REM ./C.cell (b20cbc046b6831c77cfcea5457e17084)
REM AIRSS Version 0.9.1 bugfix July 2018 build 013d7b7c2542+ Fri, 06 Jul 2018 19:26:36 +0100
REM compiler GCC version 9.3.0
REM options -cpp -mtune=generic -march=x86-64 -g -O0
REM seed -1133578798 286935656 -441786676 134723667 1876529815 -1210900594 -92040896 -1095780677 1446928316 1267807625 1099701868 31070346 1258559416 -1499032347 -1657979263 -47388331 -1938172517 400671337 1750799775 297122355 -1506531939 -1533733589 2038733045 472461413 -187993729 700152119 -1636175245 -455546877 -1025792753 -363740677 2022500061 -304198838 -756059465
REM
CELL 1.54180   50.00000   50.00000   50.00000   90.00000   90.00000   90.00000
LATT -1
SFAC C  
C      1  0.5281100000000  0.5117560000000  0.5683210000000 1.0
C      1  0.4718900000000  0.4882440000000  0.4316790000000 1.0
C      1  0.4843910000000  0.5109380000000  0.5609090000000 1.0
C      1  0.5156090000000  0.4890620000000  0.4390910000000 1.0
C      1  0.4736880000000  0.4530340000000  0.5266040000000 1.0
C      1  0.5263120000000  0.5469660000000  0.4733960000000 1.0
C      1  0.4913150000000  0.4892760000000  0.4986860000000 1.0
C      1  0.5086850000000  0.5107240000000  0.5013140000000 1.0
C      1  0.5352530000000  0.5637430000000  0.4954050000000 1.0
C      1  0.4647470000000  0.4362570000000  0.5045950000000 1.0
C      1  0.4627360000000  0.4906430000000  0.4912040000000 1.0
C      1  0.5372640000000  0.5093570000000  0.5087960000000 1.0
C      1  0.5166330000000  0.4414750000000  0.5645350000000 1.0
C      1  0.4833670000000  0.5585250000000  0.4354650000000 1.0
C      1  0.4724780000000  0.5529230000000  0.4599790000000 1.0
C      1  0.5275220000000  0.4470770000000  0.5400210000000 1.0
C      1  0.5029670000000  0.5318490000000  0.4824740000000 1.0
C      1  0.4970330000000  0.4681510000000  0.5175260000000 1.0
C      1  0.4889460000000  0.5591440000000  0.4847840000000 1.0
C      1  0.5110540000000  0.4408560000000  0.5152160000000 1.0
C      1  0.4775790000000  0.5505360000000  0.5301530000000 1.0
C      1  0.5224210000000  0.4494640000000  0.4698470000000 1.0
C      1  0.5528230000000  0.5043290000000  0.5589140000000 1.0
C      1  0.4471770000000  0.4956710000000  0.4410860000000 1.0
C      1  0.5482550000000  0.4489770000000  0.5161860000000 1.0
C      1  0.4517450000000  0.5510230000000  0.4838140000000 1.0
C      1  0.5365390000000  0.5109890000000  0.4473220000000 1.0
C      1  0.4634610000000  0.4890110000000  0.5526780000000 1.0
C      1  0.4491290000000  0.5070100000000  0.5360890000000 1.0
C      1  0.5508710000000  0.4929900000000  0.4639110000000 1.0
C      1  0.4663210000000  0.5287170000000  0.5442670000000 1.0
C      1  0.5336790000000  0.4712830000000  0.4557330000000 1.0
C      1  0.5063870000000  0.4883930000000  0.5652760000000 1.0
C      1  0.4936130000000  0.5116070000000  0.4347240000000 1.0
C      1  0.4419900000000  0.5248880000000  0.4871370000000 1.0
C      1  0.5580100000000  0.4751120000000  0.5128630000000 1.0
C      1  0.5058380000000  0.5511170000000  0.5370360000000 1.0
C      1  0.4941620000000  0.4488830000000  0.4629640000000 1.0
C      1  0.4914350000000  0.4701590000000  0.4425440000000 1.0
C      1  0.5085650000000  0.5298410000000  0.5574560000000 1.0
C      1  0.5040140000000  0.5398010000000  0.4304740000000 1.0
C      1  0.4959860000000  0.4601990000000  0.5695260000000 1.0
C      1  0.4457410000000  0.5058700000000  0.5083570000000 1.0
C      1  0.5542590000000  0.4941300000000  0.4916430000000 1.0
C      1  0.5174170000000  0.4770820000000  0.5390550000000 1.0
C      1  0.4825830000000  0.5229180000000  0.4609450000000 1.0
C      1  0.5444740000000  0.4932960000000  0.5331330000000 1.0
C      1  0.4555260000000  0.5067040000000  0.4668670000000 1.0
C      1  0.5242210000000  0.5630160000000  0.5187060000000 1.0
C      1  0.4757790000000  0.4369840000000  0.4812940000000 1.0
C      1  0.5310160000000  0.4399650000000  0.4953550000000 1.0
C      1  0.4689840000000  0.5600350000000  0.5046450000000 1.0
C      1  0.5286890000000  0.5386970000000  0.4464430000000 1.0
C      1  0.4713110000000  0.4613030000000  0.5535570000000 1.0
END
