TITL C-39761-6956-6 87.8978337025119 125000 -699.647519341787 0 0 103 (C1) n - 1
REM
REM in /rds/project/t2_vol4/rds-t2-cs072/BORA/CARBON/from-Arr/AIRSS/Generating-Clusters/GAP-ML-2020/Higher-Symm/SD-CG/HFTN-CG
REM
REM
REM
REM
REM
REM ./C.cell (b20cbc046b6831c77cfcea5457e17084)
REM AIRSS Version 0.9.1 bugfix July 2018 build 013d7b7c2542+ Fri, 06 Jul 2018 19:26:36 +0100
REM compiler GCC version 9.3.0
REM options -cpp -mtune=generic -march=x86-64 -g -O0
REM seed 800114033 -788249260 1646879980 -1280236897 853298183 -1641447665 277729905 -941107361 413097100 539523565 1023677280 1893359370 1429714207 -394173523 -2119653764 351999863 -950562283 -490204176 229777208 -2061740758 229413596 2081526676 918275659 -108196751 -375474739 -837431516 207105753 -275540167 900138842 -711575744 -576301761 1424939129 1919187476
REM
CELL 1.54180   50.00000   50.00000   50.00000   90.00000   90.00000   90.00000
LATT -1
SFAC C  
C      1  0.4485250000000  0.5533060000000  0.4668900000000 1.0
C      1  0.4464740000000  0.5103180000000  0.4446980000000 1.0
C      1  0.4442010000000  0.4707500000000  0.4703770000000 1.0
C      1  0.4471680000000  0.4519110000000  0.5091440000000 1.0
C      1  0.4480540000000  0.4640110000000  0.5557020000000 1.0
C      1  0.4448390000000  0.5117150000000  0.5493300000000 1.0
C      1  0.4445780000000  0.5452900000000  0.5146260000000 1.0
C      1  0.4595840000000  0.5424610000000  0.4216120000000 1.0
C      1  0.4533180000000  0.4687170000000  0.4282000000000 1.0
C      1  0.4275980000000  0.4215790000000  0.4690790000000 1.0
C      1  0.4415530000000  0.4204860000000  0.5438670000000 1.0
C      1  0.4422680000000  0.4883670000000  0.5942040000000 1.0
C      1  0.4315620000000  0.5559360000000  0.5607590000000 1.0
C      1  0.4354910000000  0.5879560000000  0.4943560000000 1.0
C      1  0.5475420000000  0.5215130000000  0.5504530000000 1.0
C      1  0.5478910000000  0.5538920000000  0.5131440000000 1.0
C      1  0.5510900000000  0.5490900000000  0.4645200000000 1.0
C      1  0.5493110000000  0.5045920000000  0.4404390000000 1.0
C      1  0.5454200000000  0.4607760000000  0.4634700000000 1.0
C      1  0.5474320000000  0.4448120000000  0.5107100000000 1.0
C      1  0.5498620000000  0.4723300000000  0.5526730000000 1.0
C      1  0.5612650000000  0.5380920000000  0.5321550000000 1.0
C      1  0.5637240000000  0.5512760000000  0.4898170000000 1.0
C      1  0.5629270000000  0.5258420000000  0.4531420000000 1.0
C      1  0.5608790000000  0.4812420000000  0.4519710000000 1.0
C      1  0.5599250000000  0.4522440000000  0.4864380000000 1.0
C      1  0.5617140000000  0.4587400000000  0.5307390000000 1.0
C      1  0.5622800000000  0.4977180000000  0.5514560000000 1.0
C      1  0.4842070000000  0.4706020000000  0.5890550000000 1.0
C      1  0.4775170000000  0.5432980000000  0.5643850000000 1.0
C      1  0.4791230000000  0.5815630000000  0.5071300000000 1.0
C      1  0.4849630000000  0.5716440000000  0.4372900000000 1.0
C      1  0.4802810000000  0.4928070000000  0.4117650000000 1.0
C      1  0.4754060000000  0.4357420000000  0.4576320000000 1.0
C      1  0.4819960000000  0.4202040000000  0.5326120000000 1.0
C      1  0.5157520000000  0.5666500000000  0.5468030000000 1.0
C      1  0.5226890000000  0.5854640000000  0.4822940000000 1.0
C      1  0.5275930000000  0.5247800000000  0.4058780000000 1.0
C      1  0.5124890000000  0.4588750000000  0.4281400000000 1.0
C      1  0.5136650000000  0.4172050000000  0.4865820000000 1.0
C      1  0.5207510000000  0.4332850000000  0.5624820000000 1.0
C      1  0.5166510000000  0.5077940000000  0.5851620000000 1.0
C      1  0.5230710000000  0.5577170000000  0.4637120000000 1.0
C      1  0.5221890000000  0.5077420000000  0.4287420000000 1.0
C      1  0.5158010000000  0.4611210000000  0.4592230000000 1.0
C      1  0.5187800000000  0.4375810000000  0.5115450000000 1.0
C      1  0.5231300000000  0.4655310000000  0.5624580000000 1.0
C      1  0.5185010000000  0.5199180000000  0.5559110000000 1.0
C      1  0.5181100000000  0.5560280000000  0.5158690000000 1.0
C      1  0.5144670000000  0.4315450000000  0.4312440000000 1.0
C      1  0.5186460000000  0.3913590000000  0.4919480000000 1.0
C      1  0.5289850000000  0.4151060000000  0.5803540000000 1.0
C      1  0.5173560000000  0.5340800000000  0.5933820000000 1.0
C      1  0.5184860000000  0.5921240000000  0.5370240000000 1.0
C      1  0.5223090000000  0.6002200000000  0.4583240000000 1.0
C      1  0.5362640000000  0.5419550000000  0.3902200000000 1.0
C      1  0.4362080000000  0.4470050000000  0.5365720000000 1.0
C      1  0.4375730000000  0.4892050000000  0.5650210000000 1.0
C      1  0.4334080000000  0.5360730000000  0.5390070000000 1.0
C      1  0.4358150000000  0.5595980000000  0.4914400000000 1.0
C      1  0.4405760000000  0.5377470000000  0.4447290000000 1.0
C      1  0.4361600000000  0.4847940000000  0.4463600000000 1.0
C      1  0.4336410000000  0.4461400000000  0.4826780000000 1.0
C      1  0.4934660000000  0.4827590000000  0.4650750000000 1.0
C      1  0.4957620000000  0.4600490000000  0.5140060000000 1.0
C      1  0.4976810000000  0.4722480000000  0.5434350000000 1.0
C      1  0.4960700000000  0.5036780000000  0.5406190000000 1.0
C      1  0.4954440000000  0.5376130000000  0.5025530000000 1.0
C      1  0.4986570000000  0.5389250000000  0.4703130000000 1.0
C      1  0.4976480000000  0.5124980000000  0.4515490000000 1.0
C      1  0.4737840000000  0.5155230000000  0.4304320000000 1.0
C      1  0.4698000000000  0.4639010000000  0.4535330000000 1.0
C      1  0.4739340000000  0.4410380000000  0.5146920000000 1.0
C      1  0.4760940000000  0.4613620000000  0.5624790000000 1.0
C      1  0.4723930000000  0.5176410000000  0.5537110000000 1.0
C      1  0.4720870000000  0.5538000000000  0.5119300000000 1.0
C      1  0.4766920000000  0.5583480000000  0.4625060000000 1.0
C      1  0.5828360000000  0.4693120000000  0.4910220000000 1.0
C      1  0.5836730000000  0.4737040000000  0.5189020000000 1.0
C      1  0.5842100000000  0.4982780000000  0.5322500000000 1.0
C      1  0.5838360000000  0.5237760000000  0.5204980000000 1.0
C      1  0.5848280000000  0.5315970000000  0.4935520000000 1.0
C      1  0.5841610000000  0.5156450000000  0.4703970000000 1.0
C      1  0.5830710000000  0.4877590000000  0.4696300000000 1.0
C      1  0.5130250000000  0.5785170000000  0.4428160000000 1.0
C      1  0.5071740000000  0.4837240000000  0.4167710000000 1.0
C      1  0.5040380000000  0.4313670000000  0.4605170000000 1.0
C      1  0.5095300000000  0.4246940000000  0.5371100000000 1.0
C      1  0.5114570000000  0.4804160000000  0.5865770000000 1.0
C      1  0.5065450000000  0.5471370000000  0.5672630000000 1.0
C      1  0.5084360000000  0.5850310000000  0.5082740000000 1.0
C      1  0.4532360000000  0.4206040000000  0.4637390000000 1.0
C      1  0.4614980000000  0.4044740000000  0.5440620000000 1.0
C      1  0.4629040000000  0.4779140000000  0.6054140000000 1.0
C      1  0.4556090000000  0.5600950000000  0.5691140000000 1.0
C      1  0.4579570000000  0.5987300000000  0.5005990000000 1.0
C      1  0.4687260000000  0.5673440000000  0.4155920000000 1.0
C      1  0.4599720000000  0.4759480000000  0.4027030000000 1.0
C      1  0.4856260000000  0.4837980000000  0.4951960000000 1.0
C      1  0.5451370000000  0.4993440000000  0.5004390000000 1.0
C      1  0.5215350000000  0.5039830000000  0.4973670000000 1.0
C      1  0.4966200000000  0.5087730000000  0.5104640000000 1.0
C      1  0.4554540000000  0.4795300000000  0.4962440000000 1.0
END
