TITL C-39761-6956-4 0.159519468196827 125000 -494.463881585674 0 0 71 (C1) n - 1
REM
REM in /rds/project/t2_vol4/rds-t2-cs072/BORA/CARBON/from-Arr/AIRSS/Generating-Clusters/GAP-ML-2020/Higher-Symm/SD-CG/HFTN-CG
REM
REM
REM
REM
REM
REM ./C.cell (b20cbc046b6831c77cfcea5457e17084)
REM AIRSS Version 0.9.1 bugfix July 2018 build 013d7b7c2542+ Fri, 06 Jul 2018 19:26:36 +0100
REM compiler GCC version 9.3.0
REM options -cpp -mtune=generic -march=x86-64 -g -O0
REM seed -1203869329 -1496832481 1307921058 1607193576 -1475918026 1656684246 -1703854656 1398896477 505356322 -800759058 -1390450780 -1294892003 -26618413 1403142364 796284575 263590198 1380830088 1094710918 598289950 -1959857708 -1809142645 5075250 589635593 1631167418 -189091788 1194483780 745089285 -873769421 -463433230 2066906753 -140874693 1238007841 1870564623
REM
CELL 1.54180   50.00000   50.00000   50.00000   90.00000   90.00000   90.00000
LATT -1
SFAC C  
C      1  0.5108290000000  0.4961220000000  0.4350400000000 1.0
C      1  0.4950860000000  0.4340100000000  0.5137780000000 1.0
C      1  0.4306670000000  0.5145020000000  0.4966540000000 1.0
C      1  0.5097170000000  0.5102970000000  0.5747710000000 1.0
C      1  0.4837310000000  0.4950420000000  0.5739980000000 1.0
C      1  0.4836210000000  0.5062650000000  0.4339530000000 1.0
C      1  0.4922940000000  0.5749710000000  0.4852720000000 1.0
C      1  0.5010830000000  0.4074010000000  0.4699300000000 1.0
C      1  0.5073790000000  0.5757080000000  0.5115110000000 1.0
C      1  0.4299040000000  0.4877680000000  0.5073030000000 1.0
C      1  0.5739720000000  0.5130070000000  0.5092160000000 1.0
C      1  0.5740280000000  0.4866600000000  0.4941480000000 1.0
C      1  0.5501140000000  0.5119310000000  0.5276460000000 1.0
C      1  0.5088640000000  0.5280980000000  0.5504190000000 1.0
C      1  0.5255540000000  0.5517420000000  0.5103560000000 1.0
C      1  0.5490960000000  0.4893910000000  0.4759840000000 1.0
C      1  0.4398970000000  0.5186620000000  0.4694740000000 1.0
C      1  0.4427600000000  0.4835800000000  0.5324730000000 1.0
C      1  0.5157270000000  0.4691450000000  0.4443570000000 1.0
C      1  0.4803600000000  0.5328700000000  0.4446600000000 1.0
C      1  0.4876640000000  0.4768660000000  0.5487690000000 1.0
C      1  0.5334320000000  0.4446400000000  0.4843510000000 1.0
C      1  0.4741090000000  0.5499130000000  0.4892170000000 1.0
C      1  0.4682980000000  0.4448420000000  0.5140840000000 1.0
C      1  0.5713800000000  0.5346690000000  0.4924260000000 1.0
C      1  0.5318370000000  0.4940490000000  0.5733700000000 1.0
C      1  0.4910550000000  0.5740790000000  0.5335410000000 1.0
C      1  0.5762180000000  0.4618910000000  0.5027840000000 1.0
C      1  0.4371180000000  0.5345750000000  0.5151730000000 1.0
C      1  0.4302410000000  0.4662390000000  0.4885060000000 1.0
C      1  0.5313800000000  0.5148870000000  0.4395820000000 1.0
C      1  0.4614400000000  0.4883320000000  0.4366930000000 1.0
C      1  0.4584830000000  0.5017930000000  0.5768370000000 1.0
C      1  0.4882610000000  0.4293510000000  0.4597910000000 1.0
C      1  0.4994430000000  0.5769850000000  0.4600080000000 1.0
C      1  0.5131240000000  0.4396770000000  0.5347030000000 1.0
C      1  0.4245450000000  0.4746160000000  0.4629920000000 1.0
C      1  0.4669650000000  0.4606040000000  0.4410040000000 1.0
C      1  0.4611670000000  0.4412870000000  0.4632740000000 1.0
C      1  0.4420210000000  0.5304290000000  0.5430190000000 1.0
C      1  0.5489510000000  0.4644290000000  0.5506340000000 1.0
C      1  0.5690120000000  0.5316940000000  0.4635380000000 1.0
C      1  0.4616340000000  0.5503690000000  0.5507860000000 1.0
C      1  0.5291750000000  0.4649930000000  0.5719910000000 1.0
C      1  0.5273540000000  0.5427730000000  0.4437770000000 1.0
C      1  0.4619950000000  0.5720640000000  0.5313070000000 1.0
C      1  0.5412610000000  0.4447480000000  0.5310780000000 1.0
C      1  0.5473200000000  0.5510460000000  0.4629460000000 1.0
C      1  0.5013510000000  0.5530570000000  0.4449390000000 1.0
C      1  0.5524720000000  0.4468850000000  0.5053910000000 1.0
C      1  0.4435920000000  0.5042190000000  0.5528650000000 1.0
C      1  0.5064070000000  0.4560990000000  0.5569500000000 1.0
C      1  0.4905980000000  0.5508300000000  0.5516350000000 1.0
C      1  0.4944720000000  0.4511020000000  0.4405820000000 1.0
C      1  0.5481080000000  0.5526880000000  0.4919030000000 1.0
C      1  0.4512280000000  0.4457780000000  0.4901050000000 1.0
C      1  0.4535050000000  0.5568960000000  0.5085360000000 1.0
C      1  0.4375100000000  0.4959050000000  0.4520450000000 1.0
C      1  0.5545720000000  0.5085970000000  0.4551830000000 1.0
C      1  0.5502380000000  0.4934800000000  0.5503950000000 1.0
C      1  0.5344120000000  0.5029600000000  0.5009930000000 1.0
C      1  0.5001460000000  0.5021650000000  0.5337370000000 1.0
C      1  0.5001430000000  0.5346700000000  0.5005920000000 1.0
C      1  0.4726840000000  0.4856830000000  0.4823610000000 1.0
C      1  0.4964790000000  0.4865890000000  0.4884560000000 1.0
C      1  0.5097610000000  0.4274330000000  0.4889570000000 1.0
C      1  0.5347390000000  0.4653460000000  0.4655840000000 1.0
C      1  0.4640600000000  0.4651220000000  0.5341150000000 1.0
C      1  0.4616710000000  0.5364990000000  0.4655180000000 1.0
C      1  0.5330830000000  0.5356300000000  0.5344970000000 1.0
C      1  0.5060190000000  0.5061240000000  0.5051430000000 1.0
END
