TITL C-39144-8344-7 -12.3767136790713 125000 -389.749121012609 0 0 57 (C2) n - 1
REM
REM in /rds/project/t2_vol4/rds-t2-cs072/BORA/CARBON/from-Arr/AIRSS/Generating-Clusters/GAP-ML-2020/Higher-Symm/SD-CG/HFTN-CG
REM
REM
REM
REM
REM
REM ./C.cell (b20cbc046b6831c77cfcea5457e17084)
REM AIRSS Version 0.9.1 bugfix July 2018 build 013d7b7c2542+ Fri, 06 Jul 2018 19:26:36 +0100
REM compiler GCC version 9.3.0
REM options -cpp -mtune=generic -march=x86-64 -g -O0
REM seed -949866144 -1376412862 -143570276 -1656462941 1428340131 1918063731 -341698272 209675311 -173538315 541848269 -454613456 -234749512 -1889276273 220119059 -1143469727 1894800037 -498004701 1168235928 1904741349 739533136 646437052 871118823 267543469 -1819424349 469025408 824167321 -227862851 -1258832445 -723830829 127863898 -303688055 287785362 -1864850862
REM
CELL 1.54180   50.00000   50.00000   50.00000   90.00000   90.00000   90.00000
LATT -1
SFAC C  
C      1  0.5301360000000  0.5129290000000  0.5575820000000 1.0
C      1  0.4545630000000  0.5137850000000  0.5463890000000 1.0
C      1  0.4412010000000  0.5123610000000  0.4713450000000 1.0
C      1  0.5090220000000  0.5133190000000  0.4364210000000 1.0
C      1  0.5641000000000  0.5154900000000  0.4896990000000 1.0
C      1  0.5304150000000  0.4843450000000  0.5573410000000 1.0
C      1  0.4541260000000  0.4853340000000  0.5468420000000 1.0
C      1  0.4419380000000  0.4836920000000  0.4720640000000 1.0
C      1  0.5097740000000  0.4849300000000  0.4369150000000 1.0
C      1  0.5650440000000  0.4869150000000  0.4895520000000 1.0
C      1  0.4799860000000  0.5124260000000  0.4381750000000 1.0
C      1  0.5526320000000  0.5152730000000  0.4635810000000 1.0
C      1  0.5526240000000  0.5131340000000  0.5397160000000 1.0
C      1  0.4794120000000  0.5135170000000  0.5613780000000 1.0
C      1  0.4350320000000  0.5133560000000  0.4991760000000 1.0
C      1  0.4808390000000  0.4839920000000  0.4389380000000 1.0
C      1  0.5531680000000  0.4866910000000  0.4634010000000 1.0
C      1  0.5525240000000  0.4845470000000  0.5393170000000 1.0
C      1  0.4791870000000  0.4851170000000  0.5616370000000 1.0
C      1  0.4347250000000  0.4846740000000  0.4996440000000 1.0
C      1  0.5399590000000  0.5509920000000  0.5139000000000 1.0
C      1  0.5067380000000  0.5503450000000  0.5373890000000 1.0
C      1  0.4634710000000  0.5501660000000  0.5105870000000 1.0
C      1  0.4694520000000  0.5501860000000  0.4699040000000 1.0
C      1  0.5202210000000  0.5509010000000  0.4665670000000 1.0
C      1  0.5429040000000  0.4486230000000  0.5069770000000 1.0
C      1  0.5037730000000  0.4479800000000  0.5401180000000 1.0
C      1  0.4600990000000  0.4475180000000  0.5140130000000 1.0
C      1  0.4733110000000  0.4476280000000  0.4750730000000 1.0
C      1  0.5240280000000  0.4486210000000  0.4709280000000 1.0
C      1  0.5039700000000  0.4752480000000  0.5487550000000 1.0
C      1  0.4544100000000  0.4756070000000  0.5190020000000 1.0
C      1  0.4689820000000  0.4749710000000  0.4646630000000 1.0
C      1  0.5257830000000  0.4764400000000  0.4604150000000 1.0
C      1  0.5487370000000  0.4765070000000  0.5114410000000 1.0
C      1  0.5041640000000  0.5225150000000  0.5477050000000 1.0
C      1  0.4555200000000  0.5226700000000  0.5180370000000 1.0
C      1  0.4673250000000  0.5220000000000  0.4630310000000 1.0
C      1  0.5249750000000  0.5236950000000  0.4591240000000 1.0
C      1  0.5478400000000  0.5232790000000  0.5127420000000 1.0
C      1  0.5285590000000  0.5633530000000  0.4911590000000 1.0
C      1  0.5318190000000  0.5622690000000  0.5382580000000 1.0
C      1  0.4889610000000  0.5620970000000  0.5175910000000 1.0
C      1  0.4514250000000  0.5615390000000  0.4881750000000 1.0
C      1  0.4945020000000  0.5632560000000  0.4701900000000 1.0
C      1  0.5470240000000  0.4372960000000  0.4816500000000 1.0
C      1  0.5226910000000  0.4358680000000  0.5220960000000 1.0
C      1  0.4828280000000  0.4350430000000  0.5252450000000 1.0
C      1  0.4526490000000  0.4358470000000  0.4896000000000 1.0
C      1  0.4994660000000  0.4363410000000  0.4805190000000 1.0
C      1  0.4767400000000  0.4984470000000  0.5099820000000 1.0
C      1  0.4836240000000  0.4996410000000  0.4813640000000 1.0
C      1  0.5132740000000  0.5000670000000  0.4791980000000 1.0
C      1  0.5247220000000  0.4995990000000  0.5064100000000 1.0
C      1  0.5021480000000  0.4987070000000  0.5254210000000 1.0
C      1  0.5016170000000  0.4229960000000  0.5061130000000 1.0
C      1  0.5022210000000  0.5756340000000  0.4957130000000 1.0
END
