TITL C-39745-1820-5 -0.0334816715509089 125000 -154.245518256836 0 0 24 (C1) n - 1
REM
REM in /rds/project/t2_vol4/rds-t2-cs072/BORA/CARBON/from-Arr/AIRSS/Generating-Clusters/GAP-ML-2020/Higher-Symm/SD-CG/HFTN-CG
REM
REM
REM
REM
REM
REM ./C.cell (b20cbc046b6831c77cfcea5457e17084)
REM AIRSS Version 0.9.1 bugfix July 2018 build 013d7b7c2542+ Fri, 06 Jul 2018 19:26:36 +0100
REM compiler GCC version 9.3.0
REM options -cpp -mtune=generic -march=x86-64 -g -O0
REM seed 20656645 -1247864130 -190149512 -763425995 -542548798 1319558397 615191620 -1655964592 330836468 -1168683149 525451152 -1805234394 -1524187662 -636873660 -2034867265 1526947584 1334497570 -987660689 1798581707 -375709070 109597761 -110837205 -1045512961 1477634621 -845136861 -1471777180 991944502 -428745199 877112721 -1563477330 777657590 1787376974 1885514256
REM
CELL 1.54180   50.00000   50.00000   50.00000   90.00000   90.00000   90.00000
LATT -1
SFAC C  
C      1  0.5195170000000  0.5091140000000  0.5391810000000 1.0
C      1  0.5238660000000  0.4653620000000  0.5207800000000 1.0
C      1  0.5194190000000  0.4731570000000  0.4723700000000 1.0
C      1  0.5218720000000  0.5125780000000  0.4655010000000 1.0
C      1  0.5283590000000  0.5409570000000  0.5054310000000 1.0
C      1  0.4967860000000  0.5232390000000  0.4644040000000 1.0
C      1  0.5015460000000  0.5454790000000  0.5147020000000 1.0
C      1  0.4943960000000  0.5029020000000  0.5487330000000 1.0
C      1  0.4980320000000  0.4606030000000  0.5248280000000 1.0
C      1  0.4935550000000  0.4653820000000  0.4731160000000 1.0
C      1  0.5350620000000  0.5176260000000  0.4908430000000 1.0
C      1  0.5223500000000  0.5366770000000  0.5317260000000 1.0
C      1  0.5385240000000  0.4897140000000  0.5318050000000 1.0
C      1  0.5357020000000  0.4708400000000  0.4950690000000 1.0
C      1  0.5263210000000  0.4898640000000  0.4513870000000 1.0
C      1  0.4782240000000  0.4778720000000  0.5164810000000 1.0
C      1  0.4751720000000  0.4778500000000  0.4882190000000 1.0
C      1  0.4766750000000  0.5182770000000  0.4818870000000 1.0
C      1  0.4823790000000  0.5245420000000  0.5088540000000 1.0
C      1  0.4751590000000  0.5039070000000  0.5294460000000 1.0
C      1  0.5082220000000  0.5037400000000  0.5063100000000 1.0
C      1  0.5476230000000  0.4951690000000  0.5040940000000 1.0
C      1  0.4305140000000  0.4984580000000  0.4737200000000 1.0
C      1  0.4562530000000  0.4977480000000  0.4774260000000 1.0
END
