TITL C-39143-8332-7 -640.576475639896 125000 -935.281570685967 0 0 132 (C1) n - 1
REM
REM in /rds/project/t2_vol4/rds-t2-cs072/BORA/CARBON/from-Arr/AIRSS/Generating-Clusters/GAP-ML-2020/Higher-Symm/SD-CG/HFTN-CG
REM
REM
REM
REM
REM
REM ./C.cell (b20cbc046b6831c77cfcea5457e17084)
REM AIRSS Version 0.9.1 bugfix July 2018 build 013d7b7c2542+ Fri, 06 Jul 2018 19:26:36 +0100
REM compiler GCC version 9.3.0
REM options -cpp -mtune=generic -march=x86-64 -g -O0
REM seed 1675759399 -479572398 -1148142539 -829180038 -402045784 913083555 1411944573 1696323646 1199129318 275002360 854494068 150761127 -1481297046 -1146626174 1143516124 -934374974 1696449547 -1417157276 1392574181 -2044884143 -1127774957 2119841420 -1883649864 -1254747217 -568747262 1762006095 -1036883831 -1156713856 1990401205 412939564 -1668040654 1248783847 1013849871
REM
CELL 1.54180   50.00000   50.00000   50.00000   90.00000   90.00000   90.00000
LATT -1
SFAC C  
C      1  0.5009990000000  0.5337320000000  0.4580800000000 1.0
C      1  0.5986030000000  0.4656710000000  0.4985010000000 1.0
C      1  0.5476860000000  0.5097280000000  0.5794340000000 1.0
C      1  0.5051550000000  0.4874030000000  0.4837100000000 1.0
C      1  0.5881070000000  0.4919810000000  0.4536310000000 1.0
C      1  0.4166710000000  0.4438500000000  0.4846210000000 1.0
C      1  0.4805120000000  0.5840400000000  0.5442330000000 1.0
C      1  0.5953660000000  0.4688040000000  0.4702460000000 1.0
C      1  0.5639150000000  0.5301410000000  0.5655640000000 1.0
C      1  0.5203900000000  0.4150100000000  0.4720990000000 1.0
C      1  0.4830280000000  0.4027750000000  0.5210050000000 1.0
C      1  0.4158240000000  0.5341140000000  0.4983300000000 1.0
C      1  0.4241540000000  0.4452120000000  0.5121530000000 1.0
C      1  0.5454870000000  0.4658280000000  0.4791480000000 1.0
C      1  0.5787140000000  0.5102610000000  0.5524480000000 1.0
C      1  0.4241100000000  0.4795050000000  0.5780390000000 1.0
C      1  0.5164200000000  0.4328170000000  0.5656850000000 1.0
C      1  0.5037380000000  0.5409790000000  0.4287470000000 1.0
C      1  0.4653890000000  0.4212740000000  0.5069610000000 1.0
C      1  0.5629960000000  0.4899320000000  0.5652730000000 1.0
C      1  0.4212100000000  0.5528160000000  0.4771700000000 1.0
C      1  0.5156800000000  0.4780780000000  0.5968800000000 1.0
C      1  0.5236990000000  0.5338340000000  0.4809240000000 1.0
C      1  0.4778970000000  0.5579370000000  0.5575500000000 1.0
C      1  0.4867880000000  0.5228420000000  0.4141690000000 1.0
C      1  0.5720870000000  0.4821070000000  0.4320490000000 1.0
C      1  0.4823530000000  0.4673700000000  0.5481660000000 1.0
C      1  0.4729790000000  0.5394870000000  0.5796270000000 1.0
C      1  0.4723300000000  0.4638480000000  0.4844940000000 1.0
C      1  0.4355870000000  0.4331360000000  0.4657260000000 1.0
C      1  0.5127700000000  0.4107310000000  0.5486990000000 1.0
C      1  0.5643300000000  0.5751970000000  0.5003780000000 1.0
C      1  0.5802330000000  0.4596380000000  0.5360990000000 1.0
C      1  0.4818790000000  0.5380370000000  0.5364500000000 1.0
C      1  0.4331330000000  0.4721500000000  0.5200890000000 1.0
C      1  0.4694330000000  0.4239340000000  0.5638180000000 1.0
C      1  0.4175730000000  0.5161850000000  0.5410430000000 1.0
C      1  0.4369340000000  0.5690550000000  0.5196300000000 1.0
C      1  0.4932120000000  0.5996750000000  0.4906060000000 1.0
C      1  0.4374940000000  0.4743670000000  0.4327500000000 1.0
C      1  0.5355650000000  0.4596770000000  0.5969360000000 1.0
C      1  0.4979700000000  0.5162250000000  0.5743080000000 1.0
C      1  0.5231530000000  0.5617400000000  0.4301550000000 1.0
C      1  0.5072800000000  0.5941860000000  0.5362610000000 1.0
C      1  0.5649850000000  0.4304030000000  0.4999390000000 1.0
C      1  0.5424210000000  0.4422050000000  0.4350020000000 1.0
C      1  0.4893970000000  0.4455170000000  0.5695870000000 1.0
C      1  0.4754840000000  0.4159390000000  0.4551390000000 1.0
C      1  0.5921190000000  0.4819810000000  0.5218500000000 1.0
C      1  0.4684000000000  0.5028760000000  0.5090390000000 1.0
C      1  0.4815010000000  0.5566600000000  0.4643060000000 1.0
C      1  0.5756400000000  0.5638550000000  0.4764920000000 1.0
C      1  0.4043130000000  0.4659400000000  0.4763030000000 1.0
C      1  0.4901120000000  0.4702040000000  0.5870670000000 1.0
C      1  0.5313870000000  0.4875720000000  0.4740920000000 1.0
C      1  0.5680240000000  0.4546370000000  0.4354700000000 1.0
C      1  0.5431010000000  0.5029240000000  0.5173770000000 1.0
C      1  0.4591970000000  0.5193490000000  0.5321710000000 1.0
C      1  0.5518260000000  0.5003450000000  0.4240000000000 1.0
C      1  0.4674230000000  0.5203940000000  0.4865350000000 1.0
C      1  0.5395580000000  0.4488370000000  0.5712560000000 1.0
C      1  0.4917010000000  0.4527370000000  0.4212920000000 1.0
C      1  0.4667480000000  0.6000680000000  0.5014750000000 1.0
C      1  0.5208980000000  0.4582560000000  0.4241190000000 1.0
C      1  0.5426360000000  0.5726070000000  0.5609960000000 1.0
C      1  0.4238120000000  0.4967230000000  0.4458710000000 1.0
C      1  0.5862110000000  0.5377650000000  0.4796980000000 1.0
C      1  0.5215090000000  0.5054640000000  0.5893950000000 1.0
C      1  0.4438480000000  0.4322720000000  0.5539310000000 1.0
C      1  0.4964250000000  0.4931700000000  0.5113200000000 1.0
C      1  0.4816020000000  0.4766200000000  0.4101300000000 1.0
C      1  0.4539490000000  0.4797620000000  0.4998010000000 1.0
C      1  0.4890580000000  0.4461350000000  0.5039540000000 1.0
C      1  0.4914720000000  0.5870760000000  0.4631580000000 1.0
C      1  0.4141220000000  0.4955440000000  0.5211670000000 1.0
C      1  0.4352950000000  0.4580890000000  0.5658740000000 1.0
C      1  0.4844720000000  0.4822770000000  0.4661160000000 1.0
C      1  0.5396980000000  0.5894100000000  0.4643440000000 1.0
C      1  0.4566300000000  0.5629790000000  0.4468880000000 1.0
C      1  0.5050760000000  0.5254930000000  0.5478920000000 1.0
C      1  0.4552980000000  0.5000830000000  0.5553270000000 1.0
C      1  0.4810860000000  0.4920040000000  0.5696490000000 1.0
C      1  0.5507010000000  0.5529590000000  0.4348960000000 1.0
C      1  0.5433700000000  0.4234070000000  0.4573790000000 1.0
C      1  0.5857720000000  0.4433560000000  0.5128570000000 1.0
C      1  0.4300980000000  0.5751520000000  0.4920780000000 1.0
C      1  0.4612000000000  0.5897000000000  0.4560930000000 1.0
C      1  0.4561350000000  0.4870040000000  0.4153290000000 1.0
C      1  0.4310810000000  0.5385490000000  0.5247330000000 1.0
C      1  0.5011270000000  0.4684360000000  0.5250030000000 1.0
C      1  0.5539680000000  0.4656510000000  0.5501730000000 1.0
C      1  0.4413560000000  0.4274580000000  0.5248810000000 1.0
C      1  0.5829530000000  0.5332300000000  0.5085360000000 1.0
C      1  0.5005190000000  0.4979330000000  0.4101670000000 1.0
C      1  0.5379050000000  0.5101150000000  0.4880200000000 1.0
C      1  0.4300880000000  0.5082180000000  0.5692330000000 1.0
C      1  0.4083060000000  0.4918800000000  0.4707700000000 1.0
C      1  0.5834590000000  0.4456860000000  0.4576810000000 1.0
C      1  0.5294150000000  0.5281550000000  0.5313430000000 1.0
C      1  0.4831550000000  0.5103520000000  0.4656440000000 1.0
C      1  0.5534410000000  0.5494220000000  0.5462770000000 1.0
C      1  0.5262850000000  0.4868760000000  0.4174160000000 1.0
C      1  0.5336530000000  0.4719420000000  0.5246330000000 1.0
C      1  0.5261010000000  0.5914210000000  0.5570120000000 1.0
C      1  0.5603860000000  0.5714020000000  0.4545570000000 1.0
C      1  0.5409640000000  0.5923160000000  0.4931840000000 1.0
C      1  0.5823330000000  0.5201380000000  0.4564420000000 1.0
C      1  0.4708040000000  0.4368730000000  0.4349260000000 1.0
C      1  0.4478880000000  0.5291490000000  0.5829230000000 1.0
C      1  0.4987780000000  0.4035970000000  0.4602640000000 1.0
C      1  0.4566420000000  0.4179010000000  0.4769750000000 1.0
C      1  0.4486070000000  0.5934750000000  0.4808810000000 1.0
C      1  0.4834860000000  0.4046000000000  0.5490470000000 1.0
C      1  0.5159680000000  0.4296480000000  0.4988150000000 1.0
C      1  0.4905110000000  0.5482660000000  0.5105220000000 1.0
C      1  0.5680170000000  0.4261860000000  0.4718080000000 1.0
C      1  0.4447080000000  0.4474920000000  0.4412550000000 1.0
C      1  0.5166240000000  0.5846190000000  0.4483160000000 1.0
C      1  0.4720230000000  0.5481650000000  0.4902880000000 1.0
C      1  0.5391380000000  0.4490780000000  0.5023380000000 1.0
C      1  0.5612170000000  0.5261060000000  0.4358290000000 1.0
C      1  0.4352960000000  0.5222170000000  0.4367360000000 1.0
C      1  0.4586570000000  0.5876620000000  0.5260410000000 1.0
C      1  0.5119530000000  0.4088830000000  0.5199390000000 1.0
C      1  0.4578930000000  0.5153790000000  0.4187790000000 1.0
C      1  0.5157100000000  0.5987090000000  0.5075190000000 1.0
C      1  0.5773340000000  0.5076440000000  0.5235170000000 1.0
C      1  0.5702690000000  0.5553330000000  0.5208380000000 1.0
C      1  0.4510830000000  0.4719110000000  0.5450820000000 1.0
C      1  0.5168540000000  0.5420330000000  0.5066560000000 1.0
C      1  0.4332320000000  0.5473520000000  0.4506910000000 1.0
C      1  0.4082710000000  0.5074870000000  0.4957720000000 1.0
END
