TITL C-39139-8474-7 -0.0683021406466305 125000 -356.757986678533 0 0 53 (C1) n - 1
REM
REM in /rds/project/t2_vol4/rds-t2-cs072/BORA/CARBON/from-Arr/AIRSS/Generating-Clusters/GAP-ML-2020/Higher-Symm/SD-CG/HFTN-CG
REM
REM
REM
REM
REM
REM ./C.cell (b20cbc046b6831c77cfcea5457e17084)
REM AIRSS Version 0.9.1 bugfix July 2018 build 013d7b7c2542+ Fri, 06 Jul 2018 19:26:36 +0100
REM compiler GCC version 9.3.0
REM options -cpp -mtune=generic -march=x86-64 -g -O0
REM seed -632596073 42623719 -1502310465 -123369014 -1905444105 -1768743539 -750725074 599709357 -1208409977 -864100081 2103725172 -2076088180 1345455248 -339024730 -451271165 111607615 743333656 -1316356117 -1270293089 -1379306717 1734338401 -566732641 534130672 -296702690 -2002365586 -1826622340 -315661317 -555273826 2102989878 1993022274 -1489091955 1134411704 1458515722
REM
CELL 1.54180   50.00000   50.00000   50.00000   90.00000   90.00000   90.00000
LATT -1
SFAC C  
C      1  0.5666120000000  0.5283770000000  0.5107520000000 1.0
C      1  0.4614240000000  0.5256580000000  0.5542440000000 1.0
C      1  0.4748810000000  0.5275030000000  0.4388850000000 1.0
C      1  0.5633900000000  0.4759760000000  0.5063540000000 1.0
C      1  0.4579540000000  0.4724810000000  0.5521260000000 1.0
C      1  0.4736810000000  0.4734640000000  0.4407620000000 1.0
C      1  0.4695350000000  0.4611080000000  0.4671970000000 1.0
C      1  0.5419520000000  0.4628170000000  0.4895400000000 1.0
C      1  0.4839720000000  0.4698810000000  0.5387030000000 1.0
C      1  0.4714910000000  0.5346480000000  0.4671050000000 1.0
C      1  0.5429020000000  0.5328550000000  0.4939230000000 1.0
C      1  0.4851430000000  0.5415860000000  0.5469490000000 1.0
C      1  0.4523790000000  0.4809170000000  0.5780240000000 1.0
C      1  0.4601210000000  0.4924940000000  0.4263270000000 1.0
C      1  0.5841660000000  0.4934830000000  0.5023690000000 1.0
C      1  0.4562900000000  0.5059090000000  0.5728260000000 1.0
C      1  0.4567280000000  0.5173150000000  0.4202010000000 1.0
C      1  0.5915620000000  0.5183560000000  0.5039850000000 1.0
C      1  0.4433530000000  0.5229930000000  0.5313340000000 1.0
C      1  0.5030460000000  0.5228530000000  0.4367120000000 1.0
C      1  0.5553220000000  0.5262880000000  0.5370100000000 1.0
C      1  0.4395200000000  0.4742100000000  0.5304650000000 1.0
C      1  0.5024510000000  0.4737020000000  0.4377130000000 1.0
C      1  0.5530550000000  0.4778160000000  0.5331560000000 1.0
C      1  0.4931930000000  0.4454320000000  0.4733260000000 1.0
C      1  0.5244650000000  0.4496670000000  0.5090520000000 1.0
C      1  0.4774430000000  0.4491410000000  0.5185810000000 1.0
C      1  0.4955040000000  0.5514690000000  0.4728060000000 1.0
C      1  0.5274030000000  0.5523930000000  0.5098980000000 1.0
C      1  0.4815990000000  0.5450990000000  0.5180080000000 1.0
C      1  0.4823860000000  0.4899410000000  0.5138910000000 1.0
C      1  0.4909710000000  0.4836010000000  0.4849730000000 1.0
C      1  0.5204290000000  0.4845370000000  0.4903480000000 1.0
C      1  0.4953700000000  0.5155120000000  0.5091910000000 1.0
C      1  0.4890080000000  0.5126510000000  0.4798840000000 1.0
C      1  0.5240180000000  0.5079380000000  0.5054920000000 1.0
C      1  0.5138800000000  0.4531800000000  0.4548500000000 1.0
C      1  0.5304540000000  0.4603000000000  0.5346330000000 1.0
C      1  0.4509810000000  0.4568250000000  0.5100290000000 1.0
C      1  0.5155760000000  0.5414260000000  0.4550370000000 1.0
C      1  0.5315580000000  0.5432230000000  0.5366280000000 1.0
C      1  0.4537400000000  0.5396840000000  0.5103930000000 1.0
C      1  0.4490750000000  0.5379030000000  0.4843830000000 1.0
C      1  0.5395050000000  0.5364970000000  0.4656240000000 1.0
C      1  0.5113420000000  0.5430310000000  0.5542280000000 1.0
C      1  0.4469170000000  0.4576330000000  0.4837170000000 1.0
C      1  0.5393810000000  0.4534570000000  0.4628650000000 1.0
C      1  0.5097370000000  0.4660230000000  0.5501400000000 1.0
C      1  0.5568080000000  0.5011940000000  0.5468320000000 1.0
C      1  0.4294460000000  0.4993160000000  0.5286670000000 1.0
C      1  0.5117710000000  0.4981130000000  0.4302020000000 1.0
C      1  0.4984220000000  0.4414060000000  0.5012230000000 1.0
C      1  0.5012580000000  0.5571010000000  0.4999240000000 1.0
END
