TITL C-39155-8392-3 -0.0718835748590898 125000 -169.668583340505 0 0 26 (C1) n - 1
REM
REM in /rds/project/t2_vol4/rds-t2-cs072/BORA/CARBON/from-Arr/AIRSS/Generating-Clusters/GAP-ML-2020/Higher-Symm/SD-CG/HFTN-CG
REM
REM
REM
REM
REM
REM ./C.cell (b20cbc046b6831c77cfcea5457e17084)
REM AIRSS Version 0.9.1 bugfix July 2018 build 013d7b7c2542+ Fri, 06 Jul 2018 19:26:36 +0100
REM compiler GCC version 9.3.0
REM options -cpp -mtune=generic -march=x86-64 -g -O0
REM seed -1182225571 2124897841 -1960611342 -298723924 -788995532 1480756632 -1481214869 570301209 1273686541 493606843 514255909 -596998899 -307023761 1066766179 848095623 29899632 970311810 1530997698 633950390 1055268185 1353057352 288910895 -2111883729 324314765 -450728489 490397801 -90012738 46045801 -1892165003 1160266317 231310989 -1655766077 -1387605545
REM
CELL 1.54180   50.00000   50.00000   50.00000   90.00000   90.00000   90.00000
LATT -1
SFAC C  
C      1  0.5383330000000  0.5213860000000  0.5382330000000 1.0
C      1  0.5381580000000  0.5153510000000  0.4866450000000 1.0
C      1  0.4383970000000  0.4936270000000  0.4855820000000 1.0
C      1  0.4760630000000  0.5695140000000  0.5310330000000 1.0
C      1  0.5481060000000  0.4975840000000  0.5070270000000 1.0
C      1  0.4803360000000  0.4963500000000  0.4493400000000 1.0
C      1  0.4703100000000  0.5295310000000  0.4994320000000 1.0
C      1  0.4910930000000  0.4389250000000  0.4824950000000 1.0
C      1  0.4682450000000  0.5518200000000  0.5150680000000 1.0
C      1  0.5233620000000  0.5419530000000  0.5238940000000 1.0
C      1  0.4350150000000  0.4825890000000  0.4621960000000 1.0
C      1  0.5298670000000  0.4737820000000  0.5112200000000 1.0
C      1  0.4794900000000  0.4814030000000  0.5051750000000 1.0
C      1  0.5148730000000  0.4332290000000  0.4915850000000 1.0
C      1  0.5329590000000  0.4478350000000  0.5039100000000 1.0
C      1  0.4775190000000  0.4623730000000  0.4837940000000 1.0
C      1  0.4634460000000  0.4777750000000  0.4600870000000 1.0
C      1  0.5028480000000  0.4827310000000  0.5221870000000 1.0
C      1  0.4943580000000  0.5301200000000  0.4840730000000 1.0
C      1  0.5616580000000  0.5107950000000  0.5274470000000 1.0
C      1  0.5061420000000  0.4951060000000  0.5464080000000 1.0
C      1  0.5280250000000  0.5076540000000  0.4626070000000 1.0
C      1  0.5232130000000  0.5093580000000  0.5589700000000 1.0
C      1  0.4999120000000  0.5109630000000  0.4617200000000 1.0
C      1  0.4590450000000  0.5027970000000  0.5022400000000 1.0
C      1  0.5192280000000  0.5354490000000  0.4976310000000 1.0
END
