TITL C-39146-8368-7 82.1520163214454 125000 -991.047156448604 0 0 146 (C2) n - 1
REM
REM in /rds/project/t2_vol4/rds-t2-cs072/BORA/CARBON/from-Arr/AIRSS/Generating-Clusters/GAP-ML-2020/Higher-Symm/SD-CG/HFTN-CG
REM
REM
REM
REM
REM
REM ./C.cell (b20cbc046b6831c77cfcea5457e17084)
REM AIRSS Version 0.9.1 bugfix July 2018 build 013d7b7c2542+ Fri, 06 Jul 2018 19:26:36 +0100
REM compiler GCC version 9.3.0
REM options -cpp -mtune=generic -march=x86-64 -g -O0
REM seed 1569412678 -77640246 119423965 1128116203 1741443081 -1102604796 -39048180 -944597325 3405063 1557931284 -635338950 -1345933727 -26191118 -1557440436 -254002034 1813232104 -787590348 -1016099140 396133729 1980412860 1803173538 727205948 -1298617927 1109348203 48767825 -1920959075 1994811792 -1528304955 1973352944 -1987584869 2092060387 426574509 1386801083
REM
CELL 1.54180   50.00000   50.00000   50.00000   90.00000   90.00000   90.00000
LATT -1
SFAC C  
C      1  0.4754840000000  0.4769950000000  0.4522190000000 1.0
C      1  0.4821040000000  0.5212670000000  0.4519420000000 1.0
C      1  0.5268250000000  0.5202050000000  0.4520650000000 1.0
C      1  0.5221070000000  0.4722900000000  0.4520850000000 1.0
C      1  0.4754800000000  0.5224880000000  0.5487180000000 1.0
C      1  0.4821070000000  0.4782170000000  0.5489940000000 1.0
C      1  0.5268280000000  0.4792860000000  0.5488730000000 1.0
C      1  0.5221030000000  0.5272010000000  0.5488520000000 1.0
C      1  0.4950160000000  0.4512770000000  0.5429820000000 1.0
C      1  0.4499070000000  0.5082240000000  0.5468100000000 1.0
C      1  0.5065620000000  0.5512790000000  0.5441730000000 1.0
C      1  0.5509880000000  0.4946520000000  0.5440340000000 1.0
C      1  0.4950090000000  0.5482090000000  0.4579550000000 1.0
C      1  0.4499090000000  0.4912540000000  0.4541270000000 1.0
C      1  0.5065710000000  0.4482090000000  0.4567640000000 1.0
C      1  0.5509880000000  0.5048430000000  0.4569030000000 1.0
C      1  0.5678370000000  0.4501250000000  0.4442400000000 1.0
C      1  0.4507580000000  0.4312280000000  0.4422070000000 1.0
C      1  0.4338100000000  0.5473000000000  0.4464340000000 1.0
C      1  0.5496390000000  0.5661760000000  0.4448380000000 1.0
C      1  0.5678290000000  0.5493730000000  0.5566970000000 1.0
C      1  0.4507470000000  0.5682510000000  0.5587300000000 1.0
C      1  0.4338180000000  0.4521760000000  0.5545030000000 1.0
C      1  0.5496500000000  0.4333190000000  0.5560990000000 1.0
C      1  0.4434970000000  0.4253640000000  0.4691340000000 1.0
C      1  0.4293550000000  0.5534110000000  0.4742760000000 1.0
C      1  0.5553350000000  0.5706700000000  0.4720450000000 1.0
C      1  0.5715230000000  0.4454610000000  0.4718180000000 1.0
C      1  0.4434850000000  0.5741130000000  0.5318020000000 1.0
C      1  0.4293630000000  0.4460640000000  0.5266610000000 1.0
C      1  0.5553470000000  0.4288260000000  0.5288920000000 1.0
C      1  0.5715140000000  0.5540370000000  0.5291200000000 1.0
C      1  0.4960080000000  0.6043240000000  0.5220670000000 1.0
C      1  0.6051470000000  0.5040520000000  0.5216180000000 1.0
C      1  0.5040960000000  0.3957940000000  0.5210130000000 1.0
C      1  0.3978840000000  0.4952500000000  0.5212920000000 1.0
C      1  0.4960250000000  0.3951620000000  0.4788700000000 1.0
C      1  0.6051480000000  0.4954510000000  0.4793200000000 1.0
C      1  0.5040800000000  0.6036940000000  0.4799240000000 1.0
C      1  0.3978830000000  0.5042200000000  0.4796440000000 1.0
C      1  0.4851650000000  0.5266380000000  0.5059290000000 1.0
C      1  0.5133500000000  0.5067060000000  0.5181490000000 1.0
C      1  0.5085800000000  0.4788660000000  0.5074640000000 1.0
C      1  0.4603430000000  0.4852250000000  0.5051380000000 1.0
C      1  0.4851700000000  0.4728460000000  0.4950070000000 1.0
C      1  0.5133520000000  0.4927820000000  0.4827880000000 1.0
C      1  0.5085760000000  0.5206220000000  0.4934730000000 1.0
C      1  0.4603400000000  0.5142550000000  0.4957990000000 1.0
C      1  0.5632910000000  0.4577780000000  0.5652550000000 1.0
C      1  0.4583120000000  0.4391100000000  0.5631660000000 1.0
C      1  0.4376140000000  0.5434990000000  0.5674980000000 1.0
C      1  0.5432700000000  0.5632700000000  0.5653230000000 1.0
C      1  0.5632850000000  0.5417190000000  0.4356830000000 1.0
C      1  0.4583020000000  0.5603700000000  0.4377700000000 1.0
C      1  0.4376220000000  0.4559780000000  0.4334390000000 1.0
C      1  0.5432810000000  0.4362240000000  0.4356140000000 1.0
C      1  0.5688640000000  0.5773210000000  0.5135510000000 1.0
C      1  0.5784340000000  0.4318570000000  0.5132100000000 1.0
C      1  0.4312250000000  0.4220250000000  0.5122170000000 1.0
C      1  0.4206490000000  0.5700910000000  0.5155160000000 1.0
C      1  0.5688760000000  0.4221770000000  0.4873870000000 1.0
C      1  0.5784230000000  0.5676430000000  0.4877270000000 1.0
C      1  0.4312120000000  0.5774510000000  0.4887190000000 1.0
C      1  0.4206610000000  0.4293830000000  0.4854210000000 1.0
C      1  0.4468580000000  0.5042370000000  0.4250660000000 1.0
C      1  0.5060450000000  0.5529730000000  0.4277350000000 1.0
C      1  0.5546920000000  0.4937200000000  0.4260440000000 1.0
C      1  0.4955410000000  0.4447120000000  0.4262470000000 1.0
C      1  0.4468580000000  0.4952410000000  0.5758710000000 1.0
C      1  0.5060530000000  0.4465140000000  0.5732020000000 1.0
C      1  0.5546900000000  0.5057760000000  0.5748930000000 1.0
C      1  0.4955320000000  0.5547740000000  0.5746900000000 1.0
C      1  0.5253750000000  0.4688110000000  0.5760430000000 1.0
C      1  0.4702770000000  0.4767530000000  0.5766680000000 1.0
C      1  0.4766340000000  0.5322800000000  0.5768450000000 1.0
C      1  0.5320040000000  0.5247630000000  0.5768470000000 1.0
C      1  0.5253710000000  0.5306800000000  0.4248940000000 1.0
C      1  0.4702740000000  0.5227290000000  0.4242690000000 1.0
C      1  0.4766400000000  0.4672030000000  0.4240920000000 1.0
C      1  0.5320090000000  0.4747290000000  0.4240900000000 1.0
C      1  0.5803090000000  0.4641310000000  0.5138550000000 1.0
C      1  0.4632820000000  0.4196600000000  0.5123860000000 1.0
C      1  0.4174240000000  0.5389360000000  0.5182560000000 1.0
C      1  0.5367000000000  0.5800190000000  0.5143280000000 1.0
C      1  0.5803040000000  0.5353680000000  0.4870830000000 1.0
C      1  0.4632690000000  0.5798210000000  0.4885510000000 1.0
C      1  0.4174300000000  0.4605380000000  0.4826800000000 1.0
C      1  0.5367140000000  0.4194740000000  0.4866090000000 1.0
C      1  0.5406460000000  0.4832550000000  0.4746020000000 1.0
C      1  0.4820600000000  0.4558290000000  0.4728500000000 1.0
C      1  0.4595920000000  0.5141530000000  0.4681400000000 1.0
C      1  0.5184540000000  0.5398080000000  0.4751560000000 1.0
C      1  0.5406440000000  0.5162390000000  0.5263350000000 1.0
C      1  0.4820530000000  0.5436550000000  0.5280870000000 1.0
C      1  0.4595940000000  0.4853270000000  0.5327960000000 1.0
C      1  0.5184600000000  0.4596810000000  0.5257810000000 1.0
C      1  0.6030900000000  0.4804310000000  0.5044570000000 1.0
C      1  0.4804840000000  0.3970260000000  0.5036700000000 1.0
C      1  0.3984850000000  0.5192790000000  0.5055060000000 1.0
C      1  0.5195100000000  0.6020380000000  0.5047820000000 1.0
C      1  0.6030870000000  0.5190720000000  0.4964810000000 1.0
C      1  0.4804680000000  0.6024580000000  0.4972660000000 1.0
C      1  0.3984880000000  0.4801910000000  0.4954300000000 1.0
C      1  0.5195260000000  0.3974520000000  0.4961560000000 1.0
C      1  0.5770070000000  0.5213300000000  0.5636230000000 1.0
C      1  0.5211740000000  0.4240800000000  0.5623900000000 1.0
C      1  0.4242040000000  0.4792440000000  0.5640540000000 1.0
C      1  0.4794220000000  0.5772510000000  0.5645740000000 1.0
C      1  0.5770110000000  0.4781690000000  0.4373140000000 1.0
C      1  0.5211620000000  0.5754100000000  0.4385470000000 1.0
C      1  0.4242010000000  0.5202300000000  0.4368820000000 1.0
C      1  0.4794350000000  0.4222320000000  0.4363630000000 1.0
C      1  0.5372530000000  0.4434580000000  0.5085160000000 1.0
C      1  0.4419490000000  0.4619010000000  0.5018540000000 1.0
C      1  0.4615160000000  0.5596780000000  0.5126650000000 1.0
C      1  0.5564090000000  0.5358220000000  0.5086880000000 1.0
C      1  0.5372430000000  0.5560350000000  0.4924220000000 1.0
C      1  0.4419430000000  0.5375760000000  0.4990820000000 1.0
C      1  0.4615260000000  0.4398020000000  0.4882720000000 1.0
C      1  0.5564150000000  0.4636740000000  0.4922490000000 1.0
C      1  0.4987320000000  0.5922230000000  0.5474130000000 1.0
C      1  0.5921680000000  0.5017570000000  0.5467030000000 1.0
C      1  0.5016990000000  0.4095390000000  0.5455080000000 1.0
C      1  0.4093270000000  0.4986340000000  0.5473770000000 1.0
C      1  0.4987480000000  0.4072640000000  0.4535240000000 1.0
C      1  0.5921690000000  0.4977450000000  0.4542350000000 1.0
C      1  0.5016850000000  0.5899480000000  0.4554290000000 1.0
C      1  0.4093270000000  0.5008370000000  0.4535590000000 1.0
C      1  0.4763320000000  0.5718970000000  0.4604060000000 1.0
C      1  0.5747160000000  0.5231590000000  0.4585190000000 1.0
C      1  0.5246000000000  0.4245870000000  0.4582060000000 1.0
C      1  0.4247760000000  0.4739640000000  0.4555450000000 1.0
C      1  0.4763430000000  0.4275860000000  0.5405310000000 1.0
C      1  0.5747190000000  0.4763390000000  0.5424190000000 1.0
C      1  0.5245870000000  0.5749030000000  0.5427320000000 1.0
C      1  0.4247710000000  0.5255100000000  0.5453910000000 1.0
C      1  0.4507040000000  0.4756050000000  0.4150400000000 1.0
C      1  0.4770890000000  0.5494020000000  0.4179940000000 1.0
C      1  0.5513240000000  0.5226790000000  0.4166990000000 1.0
C      1  0.5242370000000  0.4483190000000  0.4166480000000 1.0
C      1  0.4506990000000  0.5238730000000  0.5858960000000 1.0
C      1  0.4770960000000  0.4500810000000  0.5829430000000 1.0
C      1  0.5513270000000  0.4768160000000  0.5842380000000 1.0
C      1  0.5242280000000  0.5511710000000  0.5842890000000 1.0
C      1  0.5015970000000  0.5024610000000  0.5455020000000 1.0
C      1  0.5015980000000  0.4970260000000  0.4554350000000 1.0
END
