TITL C-39142-8415-1 0.0289984373656823 125000 -735.065297946294 0 0 108 (C1) n - 1
REM
REM in /rds/project/t2_vol4/rds-t2-cs072/BORA/CARBON/from-Arr/AIRSS/Generating-Clusters/GAP-ML-2020/Higher-Symm/SD-CG/HFTN-CG
REM
REM
REM
REM
REM
REM ./C.cell (b20cbc046b6831c77cfcea5457e17084)
REM AIRSS Version 0.9.1 bugfix July 2018 build 013d7b7c2542+ Fri, 06 Jul 2018 19:26:36 +0100
REM compiler GCC version 9.3.0
REM options -cpp -mtune=generic -march=x86-64 -g -O0
REM seed 1129432001 533787473 483444705 -942190924 -704705055 -344920481 220909401 -209592964 1544087988 -797756609 -703700485 -1180087560 -1891653441 1240611311 -1302589516 -855433141 -2026839715 1278140185 -297965355 -2118846577 -2030386831 1369184449 -77220023 1729554236 1861520453 -1747898580 -1525534175 -1193572918 -1398007892 -1812499333 661164501 1803167399 -783937069
REM
CELL 1.54180   50.00000   50.00000   50.00000   90.00000   90.00000   90.00000
LATT -1
SFAC C  
C      1  0.4926240000000  0.5263730000000  0.5158240000000 1.0
C      1  0.4849180000000  0.5221660000000  0.4842230000000 1.0
C      1  0.4729150000000  0.5095220000000  0.5270660000000 1.0
C      1  0.4751000000000  0.4956940000000  0.4790460000000 1.0
C      1  0.4772420000000  0.4826310000000  0.5267030000000 1.0
C      1  0.4932330000000  0.4738910000000  0.4849810000000 1.0
C      1  0.5018460000000  0.4728360000000  0.5165910000000 1.0
C      1  0.5185780000000  0.4788090000000  0.4734720000000 1.0
C      1  0.5238690000000  0.4902440000000  0.5226240000000 1.0
C      1  0.5280860000000  0.5044290000000  0.4747980000000 1.0
C      1  0.5193300000000  0.5170590000000  0.5221800000000 1.0
C      1  0.5110240000000  0.5257780000000  0.4738100000000 1.0
C      1  0.5098860000000  0.4730450000000  0.6043840000000 1.0
C      1  0.5219870000000  0.4818360000000  0.3941440000000 1.0
C      1  0.5277750000000  0.4952890000000  0.6041490000000 1.0
C      1  0.5267460000000  0.5098510000000  0.3940740000000 1.0
C      1  0.5180090000000  0.5220360000000  0.6045560000000 1.0
C      1  0.5048030000000  0.5279720000000  0.3945140000000 1.0
C      1  0.4899280000000  0.5271020000000  0.6051960000000 1.0
C      1  0.4779600000000  0.5181460000000  0.3960400000000 1.0
C      1  0.4720400000000  0.5049020000000  0.6060180000000 1.0
C      1  0.4733530000000  0.4899480000000  0.3958290000000 1.0
C      1  0.4818260000000  0.4781630000000  0.6057770000000 1.0
C      1  0.4953410000000  0.4717180000000  0.3951430000000 1.0
C      1  0.4280670000000  0.5097530000000  0.4854810000000 1.0
C      1  0.4310540000000  0.4716780000000  0.5164450000000 1.0
C      1  0.4552710000000  0.4420840000000  0.4851320000000 1.0
C      1  0.4901780000000  0.4262680000000  0.5156550000000 1.0
C      1  0.5289180000000  0.4314290000000  0.4836510000000 1.0
C      1  0.5576490000000  0.4552150000000  0.5147210000000 1.0
C      1  0.5732880000000  0.4902690000000  0.4838590000000 1.0
C      1  0.5670960000000  0.5275410000000  0.5150030000000 1.0
C      1  0.5455900000000  0.5587040000000  0.4839040000000 1.0
C      1  0.5097700000000  0.5727490000000  0.5150420000000 1.0
C      1  0.4718450000000  0.5684420000000  0.4844390000000 1.0
C      1  0.4402960000000  0.5449720000000  0.5164860000000 1.0
C      1  0.5513290000000  0.4816470000000  0.5279870000000 1.0
C      1  0.5560350000000  0.5105590000000  0.4699070000000 1.0
C      1  0.5411080000000  0.5359330000000  0.5282430000000 1.0
C      1  0.5195630000000  0.5536960000000  0.4698440000000 1.0
C      1  0.4889710000000  0.5546360000000  0.5275210000000 1.0
C      1  0.4643720000000  0.5418760000000  0.4730530000000 1.0
C      1  0.4454410000000  0.5188130000000  0.5306280000000 1.0
C      1  0.4469890000000  0.4898850000000  0.4724440000000 1.0
C      1  0.4560160000000  0.4627860000000  0.5305420000000 1.0
C      1  0.4823360000000  0.4476900000000  0.4727690000000 1.0
C      1  0.5098410000000  0.4453210000000  0.5273030000000 1.0
C      1  0.5376240000000  0.4568420000000  0.4696150000000 1.0
C      1  0.4106760000000  0.4858320000000  0.5317580000000 1.0
C      1  0.4307270000000  0.4445060000000  0.4688950000000 1.0
C      1  0.4681870000000  0.4163520000000  0.5315980000000 1.0
C      1  0.5135980000000  0.4117850000000  0.4689640000000 1.0
C      1  0.5560960000000  0.4308480000000  0.5312470000000 1.0
C      1  0.5843100000000  0.4681390000000  0.4684120000000 1.0
C      1  0.5874780000000  0.5137210000000  0.5313100000000 1.0
C      1  0.5703930000000  0.5563560000000  0.4685030000000 1.0
C      1  0.5321490000000  0.5831690000000  0.5311780000000 1.0
C      1  0.4858850000000  0.5880330000000  0.4683010000000 1.0
C      1  0.4439300000000  0.5696760000000  0.5308430000000 1.0
C      1  0.4170950000000  0.5314430000000  0.4686700000000 1.0
C      1  0.4381840000000  0.5383960000000  0.4881580000000 1.0
C      1  0.4260430000000  0.5027560000000  0.5139260000000 1.0
C      1  0.4359510000000  0.4660690000000  0.4879860000000 1.0
C      1  0.4604730000000  0.4378250000000  0.5135890000000 1.0
C      1  0.4967300000000  0.4257630000000  0.4871860000000 1.0
C      1  0.5343120000000  0.4355600000000  0.5120280000000 1.0
C      1  0.5625240000000  0.4607750000000  0.4862770000000 1.0
C      1  0.5720670000000  0.4973500000000  0.5122780000000 1.0
C      1  0.5649610000000  0.5342570000000  0.4865390000000 1.0
C      1  0.5386870000000  0.5617640000000  0.5123690000000 1.0
C      1  0.5031590000000  0.5732870000000  0.4865680000000 1.0
C      1  0.4656680000000  0.5662420000000  0.5128810000000 1.0
C      1  0.4723650000000  0.4886330000000  0.4265680000000 1.0
C      1  0.4796250000000  0.4752610000000  0.5752600000000 1.0
C      1  0.4964500000000  0.4694880000000  0.4260660000000 1.0
C      1  0.5104890000000  0.4710600000000  0.5736970000000 1.0
C      1  0.5255990000000  0.4805520000000  0.4245830000000 1.0
C      1  0.5297540000000  0.4954320000000  0.5735940000000 1.0
C      1  0.5301870000000  0.5116870000000  0.4245930000000 1.0
C      1  0.5183640000000  0.5243090000000  0.5738290000000 1.0
C      1  0.5055120000000  0.5311690000000  0.4250380000000 1.0
C      1  0.4878180000000  0.5288650000000  0.5743380000000 1.0
C      1  0.4768420000000  0.5192310000000  0.4267420000000 1.0
C      1  0.4680610000000  0.5045760000000  0.5755940000000 1.0
C      1  0.5731770000000  0.4654830000000  0.4425210000000 1.0
C      1  0.5788890000000  0.5051440000000  0.5561510000000 1.0
C      1  0.5670180000000  0.5451160000000  0.4428230000000 1.0
C      1  0.5352380000000  0.5717020000000  0.5562300000000 1.0
C      1  0.4947730000000  0.5804190000000  0.4428710000000 1.0
C      1  0.4555330000000  0.5660130000000  0.5563700000000 1.0
C      1  0.4296560000000  0.5349950000000  0.4444610000000 1.0
C      1  0.4192470000000  0.4937530000000  0.5577050000000 1.0
C      1  0.4339870000000  0.4560990000000  0.4440640000000 1.0
C      1  0.4644380000000  0.4272280000000  0.5572300000000 1.0
C      1  0.5054460000000  0.4210040000000  0.4436660000000 1.0
C      1  0.5436390000000  0.4342210000000  0.5557080000000 1.0
C      1  0.5093130000000  0.5572200000000  0.4414890000000 1.0
C      1  0.4789810000000  0.5521530000000  0.5565200000000 1.0
C      1  0.4572600000000  0.5345920000000  0.4444910000000 1.0
C      1  0.4421720000000  0.5084360000000  0.5591700000000 1.0
C      1  0.4485200000000  0.4794820000000  0.4437500000000 1.0
C      1  0.4633680000000  0.4545730000000  0.5588130000000 1.0
C      1  0.4923740000000  0.4450020000000  0.4438170000000 1.0
C      1  0.5198190000000  0.4479450000000  0.5559270000000 1.0
C      1  0.5459700000000  0.4643500000000  0.4411210000000 1.0
C      1  0.5550410000000  0.4914900000000  0.5566710000000 1.0
C      1  0.5541630000000  0.5210040000000  0.4413520000000 1.0
C      1  0.5345650000000  0.5441780000000  0.5568980000000 1.0
END
