TITL C-39759-1737-4 -0.0233188870197408 125000 -87.0350254024312 0 0 14 (D2h) n - 1
REM
REM in /rds/project/t2_vol4/rds-t2-cs072/BORA/CARBON/from-Arr/AIRSS/Generating-Clusters/GAP-ML-2020/Higher-Symm/SD-CG/HFTN-CG
REM
REM
REM
REM
REM
REM ./C.cell (b20cbc046b6831c77cfcea5457e17084)
REM AIRSS Version 0.9.1 bugfix July 2018 build 013d7b7c2542+ Fri, 06 Jul 2018 19:26:36 +0100
REM compiler GCC version 9.3.0
REM options -cpp -mtune=generic -march=x86-64 -g -O0
REM seed 803852211 893660977 1966028530 -969022680 190813680 472496562 -1579749943 852413957 -568182976 -1030753447 -846115212 1681638841 1882945540 -1368745866 -1374058164 583831149 1093688646 -210556865 86328529 1963567062 -2048296417 -1358516190 106704929 928909441 99537944 1517360323 -1850529298 -989956207 54715572 -710109165 -486261475 808547695 396213
REM
CELL 1.54180   50.00000   50.00000   50.00000   90.00000   90.00000   90.00000
LATT -1
SFAC C  
C      1  0.4740190000000  0.5335880000000  0.4932590000000 1.0
C      1  0.4746590000000  0.4662050000000  0.5078970000000 1.0
C      1  0.5222120000000  0.5337950000000  0.4921030000000 1.0
C      1  0.5228520000000  0.4664120000000  0.5067410000000 1.0
C      1  0.4746450000000  0.5292960000000  0.5185870000000 1.0
C      1  0.4740330000000  0.4704970000000  0.4825690000000 1.0
C      1  0.5228380000000  0.5295030000000  0.5174310000000 1.0
C      1  0.5222260000000  0.4707040000000  0.4814130000000 1.0
C      1  0.4974460000000  0.5067860000000  0.4599510000000 1.0
C      1  0.4994250000000  0.4932140000000  0.5400490000000 1.0
C      1  0.4990330000000  0.5177950000000  0.5281110000000 1.0
C      1  0.4978380000000  0.4822050000000  0.4718890000000 1.0
C      1  0.4978280000000  0.5260620000000  0.4793200000000 1.0
C      1  0.4990430000000  0.4739380000000  0.5206800000000 1.0
END
