TITL C-39748-1810-1 -12.7114882001877 125000 -61.462843265938 0 0 10 (C1) n - 1
REM
REM in /rds/project/t2_vol4/rds-t2-cs072/BORA/CARBON/from-Arr/AIRSS/Generating-Clusters/GAP-ML-2020/Higher-Symm/SD-CG/HFTN-CG
REM
REM
REM
REM
REM
REM ./C.cell (b20cbc046b6831c77cfcea5457e17084)
REM AIRSS Version 0.9.1 bugfix July 2018 build 013d7b7c2542+ Fri, 06 Jul 2018 19:26:36 +0100
REM compiler GCC version 9.3.0
REM options -cpp -mtune=generic -march=x86-64 -g -O0
REM seed 2020682605 1707601467 -1161511101 -1977510330 -1620731804 -1839189190 -231370033 -715503324 -267485954 -1217949814 -1992727104 363728060 -2070534979 515510593 -520788679 134025781 -1774560791 -854723633 -1572980317 -1059411576 -543971329 2057066596 -97681517 -1343500856 807863414 -970299425 -269478956 1380721678 1416202098 1600418327 1765562351 -1476886771 835595309
REM
CELL 1.54180   50.00000   50.00000   50.00000   90.00000   90.00000   90.00000
LATT -1
SFAC C  
C      1  0.5243930000000  0.5166850000000  0.5405600000000 1.0
C      1  0.5350270000000  0.4928440000000  0.5391560000000 1.0
C      1  0.5147330000000  0.4758840000000  0.5377710000000 1.0
C      1  0.4898400000000  0.4698820000000  0.5362500000000 1.0
C      1  0.4741850000000  0.4928170000000  0.5278730000000 1.0
C      1  0.4826480000000  0.5168260000000  0.5367460000000 1.0
C      1  0.5026910000000  0.5312470000000  0.5449620000000 1.0
C      1  0.4761980000000  0.4904620000000  0.5008800000000 1.0
C      1  0.5066650000000  0.4980830000000  0.4597730000000 1.0
C      1  0.4932400000000  0.4945530000000  0.4820610000000 1.0
END
