TITL C-39749-1827-2 -80.6502433920468 125000 -552.603323421349 0 0 81 (C1) n - 1
REM
REM in /rds/project/t2_vol4/rds-t2-cs072/BORA/CARBON/from-Arr/AIRSS/Generating-Clusters/GAP-ML-2020/Higher-Symm/SD-CG/HFTN-CG
REM
REM
REM
REM
REM
REM ./C.cell (b20cbc046b6831c77cfcea5457e17084)
REM AIRSS Version 0.9.1 bugfix July 2018 build 013d7b7c2542+ Fri, 06 Jul 2018 19:26:36 +0100
REM compiler GCC version 9.3.0
REM options -cpp -mtune=generic -march=x86-64 -g -O0
REM seed 364686006 -1625227621 426138594 -984334814 2074602108 67739047 1261202887 1117195485 -605462646 -1368010114 737619156 1840487562 -1014911827 1963411689 1235917498 -107486889 -442549828 -145882826 -70685736 1387506198 2083735017 1033446623 666842461 -1095659213 120841577 1021638153 -1798047599 -470290749 -1416437251 -47129203 881852152 -45672243 2143920334
REM
CELL 1.54180   50.00000   50.00000   50.00000   90.00000   90.00000   90.00000
LATT -1
SFAC C  
C      1  0.5455500000000  0.5188160000000  0.4377330000000 1.0
C      1  0.4560180000000  0.4809350000000  0.5610620000000 1.0
C      1  0.4773460000000  0.5230790000000  0.4606910000000 1.0
C      1  0.5251010000000  0.4746290000000  0.5410920000000 1.0
C      1  0.5608350000000  0.4618110000000  0.5089570000000 1.0
C      1  0.4402850000000  0.5372930000000  0.4906390000000 1.0
C      1  0.4907080000000  0.4561400000000  0.4879290000000 1.0
C      1  0.5098700000000  0.5435730000000  0.5108970000000 1.0
C      1  0.5167690000000  0.4828290000000  0.4433080000000 1.0
C      1  0.4837480000000  0.5173360000000  0.5564830000000 1.0
C      1  0.5400560000000  0.5723600000000  0.5081810000000 1.0
C      1  0.4611570000000  0.4275720000000  0.4903860000000 1.0
C      1  0.4416430000000  0.5237940000000  0.5267610000000 1.0
C      1  0.5570520000000  0.4764850000000  0.4721830000000 1.0
C      1  0.4737380000000  0.5099570000000  0.4189850000000 1.0
C      1  0.5275980000000  0.4902890000000  0.5809010000000 1.0
C      1  0.4428330000000  0.4441480000000  0.5054450000000 1.0
C      1  0.5589810000000  0.5559250000000  0.4932870000000 1.0
C      1  0.4420400000000  0.4589400000000  0.4596670000000 1.0
C      1  0.5590680000000  0.5407200000000  0.5388410000000 1.0
C      1  0.5395920000000  0.5617620000000  0.5359020000000 1.0
C      1  0.4616280000000  0.4379940000000  0.4627100000000 1.0
C      1  0.4241440000000  0.4922850000000  0.4958570000000 1.0
C      1  0.5759430000000  0.5073060000000  0.5027950000000 1.0
C      1  0.4691970000000  0.5635830000000  0.5201610000000 1.0
C      1  0.5333540000000  0.4337380000000  0.4787980000000 1.0
C      1  0.4701620000000  0.5166960000000  0.5293390000000 1.0
C      1  0.5286460000000  0.4844950000000  0.4709680000000 1.0
C      1  0.5214740000000  0.5054450000000  0.5297920000000 1.0
C      1  0.4798210000000  0.4940450000000  0.4683200000000 1.0
C      1  0.5002990000000  0.5210250000000  0.4212350000000 1.0
C      1  0.5011750000000  0.4784990000000  0.5785480000000 1.0
C      1  0.4351230000000  0.5067810000000  0.4502710000000 1.0
C      1  0.5659330000000  0.4930810000000  0.5487370000000 1.0
C      1  0.4462840000000  0.4534850000000  0.5311850000000 1.0
C      1  0.5556500000000  0.5466570000000  0.4673830000000 1.0
C      1  0.5721820000000  0.4860780000000  0.5212580000000 1.0
C      1  0.4278480000000  0.5136780000000  0.4775500000000 1.0
C      1  0.5139150000000  0.4332800000000  0.5500010000000 1.0
C      1  0.4870640000000  0.5656930000000  0.4491370000000 1.0
C      1  0.5247300000000  0.4304830000000  0.5254410000000 1.0
C      1  0.4764560000000  0.5685350000000  0.4735760000000 1.0
C      1  0.5326200000000  0.5165570000000  0.5727760000000 1.0
C      1  0.4682880000000  0.4830950000000  0.4257030000000 1.0
C      1  0.4382500000000  0.4675500000000  0.4875440000000 1.0
C      1  0.5634780000000  0.5326400000000  0.5111640000000 1.0
C      1  0.4681610000000  0.5398010000000  0.4826550000000 1.0
C      1  0.5341590000000  0.4579560000000  0.5182410000000 1.0
C      1  0.4895000000000  0.4745360000000  0.4447820000000 1.0
C      1  0.5112680000000  0.5248890000000  0.5534830000000 1.0
C      1  0.4702600000000  0.4781990000000  0.4911710000000 1.0
C      1  0.5294980000000  0.5221440000000  0.5070010000000 1.0
C      1  0.4724660000000  0.4650100000000  0.5412790000000 1.0
C      1  0.5290750000000  0.5347200000000  0.4579770000000 1.0
C      1  0.4859630000000  0.5666380000000  0.5419260000000 1.0
C      1  0.5155240000000  0.4346580000000  0.4587590000000 1.0
C      1  0.5452080000000  0.4779860000000  0.5620570000000 1.0
C      1  0.4568060000000  0.5219570000000  0.4386610000000 1.0
C      1  0.4271310000000  0.4989390000000  0.5235030000000 1.0
C      1  0.5726270000000  0.5006090000000  0.4753090000000 1.0
C      1  0.5243950000000  0.5044260000000  0.4260710000000 1.0
C      1  0.4775200000000  0.4950140000000  0.5731280000000 1.0
C      1  0.4408130000000  0.5499850000000  0.5165760000000 1.0
C      1  0.5579890000000  0.4504480000000  0.4827950000000 1.0
C      1  0.5675540000000  0.5213660000000  0.4560220000000 1.0
C      1  0.4342280000000  0.4784410000000  0.5423170000000 1.0
C      1  0.4760780000000  0.4884630000000  0.5188080000000 1.0
C      1  0.5269690000000  0.5131000000000  0.4796410000000 1.0
C      1  0.4882960000000  0.4290070000000  0.4989500000000 1.0
C      1  0.5128130000000  0.5703790000000  0.4993650000000 1.0
C      1  0.5153990000000  0.4702440000000  0.4952300000000 1.0
C      1  0.4815430000000  0.5368940000000  0.5096130000000 1.0
C      1  0.5119050000000  0.5524180000000  0.5413430000000 1.0
C      1  0.4897080000000  0.4477970000000  0.4582060000000 1.0
C      1  0.5002190000000  0.5394310000000  0.4454100000000 1.0
C      1  0.5017110000000  0.4589360000000  0.5554540000000 1.0
C      1  0.5578270000000  0.5192510000000  0.5571210000000 1.0
C      1  0.4429530000000  0.4804410000000  0.4412670000000 1.0
C      1  0.5157580000000  0.4208630000000  0.5007040000000 1.0
C      1  0.4854110000000  0.5793450000000  0.4976530000000 1.0
C      1  0.5043090000000  0.4907020000000  0.5137370000000 1.0
END
