TITL C-39763-1760-2 -111.913326535264 125000 -459.431642495659 0 0 70 (C1) n - 1
REM
REM in /rds/project/t2_vol4/rds-t2-cs072/BORA/CARBON/from-Arr/AIRSS/Generating-Clusters/GAP-ML-2020/Higher-Symm/SD-CG/HFTN-CG
REM
REM
REM
REM
REM
REM ./C.cell (b20cbc046b6831c77cfcea5457e17084)
REM AIRSS Version 0.9.1 bugfix July 2018 build 013d7b7c2542+ Fri, 06 Jul 2018 19:26:36 +0100
REM compiler GCC version 9.3.0
REM options -cpp -mtune=generic -march=x86-64 -g -O0
REM seed 685061236 -938526275 908164759 -673390735 -1939632924 -58826855 -1280423503 -2046470235 -1985100046 1284935149 -1246500927 119936119 1121389604 -12034748 -504068174 -157991005 633359210 1805615282 -1733359791 1246018083 -1810235063 202101899 -235114170 -216786100 -32932528 -576973962 1473258183 2100248386 932712360 -167850599 1531599775 -1036749168 1318780239
REM
CELL 1.54180   50.00000   50.00000   50.00000   90.00000   90.00000   90.00000
LATT -1
SFAC C  
C      1  0.4686550000000  0.5372430000000  0.4561520000000 1.0
C      1  0.4606650000000  0.5168320000000  0.4398500000000 1.0
C      1  0.4560590000000  0.4930660000000  0.4519250000000 1.0
C      1  0.4648470000000  0.4661380000000  0.4515740000000 1.0
C      1  0.4897580000000  0.4534760000000  0.4519960000000 1.0
C      1  0.5172240000000  0.4568380000000  0.4527840000000 1.0
C      1  0.5390260000000  0.4736400000000  0.4539390000000 1.0
C      1  0.5471820000000  0.4997690000000  0.4552090000000 1.0
C      1  0.5399340000000  0.5263970000000  0.4544220000000 1.0
C      1  0.5199590000000  0.5458050000000  0.4556960000000 1.0
C      1  0.4927610000000  0.5521140000000  0.4578830000000 1.0
C      1  0.5484940000000  0.4989720000000  0.4873430000000 1.0
C      1  0.5426080000000  0.5275050000000  0.4863270000000 1.0
C      1  0.5220620000000  0.5474380000000  0.4874400000000 1.0
C      1  0.4931970000000  0.5518460000000  0.4890090000000 1.0
C      1  0.4665490000000  0.5376910000000  0.4870930000000 1.0
C      1  0.4631550000000  0.5117490000000  0.5008980000000 1.0
C      1  0.4504020000000  0.4901170000000  0.4834420000000 1.0
C      1  0.4621010000000  0.4626020000000  0.4827070000000 1.0
C      1  0.4881630000000  0.4490740000000  0.4833630000000 1.0
C      1  0.5172510000000  0.4527930000000  0.4843850000000 1.0
C      1  0.5399700000000  0.4709760000000  0.4858910000000 1.0
C      1  0.4178000000000  0.4553290000000  0.4832040000000 1.0
C      1  0.4555760000000  0.4186500000000  0.4781510000000 1.0
C      1  0.5074830000000  0.4085370000000  0.4862370000000 1.0
C      1  0.5558670000000  0.4285750000000  0.4821670000000 1.0
C      1  0.5854170000000  0.4718070000000  0.4909120000000 1.0
C      1  0.5878190000000  0.5229810000000  0.4907390000000 1.0
C      1  0.5618810000000  0.5687620000000  0.4828940000000 1.0
C      1  0.5147040000000  0.5915930000000  0.4941960000000 1.0
C      1  0.4627190000000  0.5836830000000  0.4982790000000 1.0
C      1  0.4207390000000  0.5510800000000  0.4971930000000 1.0
C      1  0.4059970000000  0.5036040000000  0.4963620000000 1.0
C      1  0.5651350000000  0.4527420000000  0.4949650000000 1.0
C      1  0.5772790000000  0.4978450000000  0.4996790000000 1.0
C      1  0.5690740000000  0.5432640000000  0.4951340000000 1.0
C      1  0.5369200000000  0.5748930000000  0.4967540000000 1.0
C      1  0.4905740000000  0.5786330000000  0.5055300000000 1.0
C      1  0.4479530000000  0.5597750000000  0.5010320000000 1.0
C      1  0.4179040000000  0.5257050000000  0.5062480000000 1.0
C      1  0.4198430000000  0.4823830000000  0.4867340000000 1.0
C      1  0.4415450000000  0.4410360000000  0.4908730000000 1.0
C      1  0.4816610000000  0.4194340000000  0.4909770000000 1.0
C      1  0.5294080000000  0.4250870000000  0.4934480000000 1.0
C      1  0.4782330000000  0.5244340000000  0.5545550000000 1.0
C      1  0.4546390000000  0.5067440000000  0.5494440000000 1.0
C      1  0.4595240000000  0.4552600000000  0.5413060000000 1.0
C      1  0.4855230000000  0.4396590000000  0.5377770000000 1.0
C      1  0.5125560000000  0.4462800000000  0.5365550000000 1.0
C      1  0.5216640000000  0.4735290000000  0.5374770000000 1.0
C      1  0.5501010000000  0.4746490000000  0.5359640000000 1.0
C      1  0.5532520000000  0.5245440000000  0.5388710000000 1.0
C      1  0.5270180000000  0.5327880000000  0.5495790000000 1.0
C      1  0.5213280000000  0.5597070000000  0.5410500000000 1.0
C      1  0.4742710000000  0.5507830000000  0.5441010000000 1.0
C      1  0.5434170000000  0.5677650000000  0.5254830000000 1.0
C      1  0.4950580000000  0.5672210000000  0.5344170000000 1.0
C      1  0.4512370000000  0.5483900000000  0.5291480000000 1.0
C      1  0.4445260000000  0.5213220000000  0.5253060000000 1.0
C      1  0.4524060000000  0.4796080000000  0.5516560000000 1.0
C      1  0.4480610000000  0.4365230000000  0.5210010000000 1.0
C      1  0.4720030000000  0.4215910000000  0.5197550000000 1.0
C      1  0.5337530000000  0.4335840000000  0.5228690000000 1.0
C      1  0.5566180000000  0.4496110000000  0.5238940000000 1.0
C      1  0.5628540000000  0.4992220000000  0.5314170000000 1.0
C      1  0.5619630000000  0.5474280000000  0.5244340000000 1.0
C      1  0.5000760000000  0.4993870000000  0.4758350000000 1.0
C      1  0.5074180000000  0.4961280000000  0.5282340000000 1.0
C      1  0.5045690000000  0.5158190000000  0.5488990000000 1.0
C      1  0.4919210000000  0.4996040000000  0.5032280000000 1.0
END
