TITL C-39146-8368-2 0.0852953920172564 125000 -547.882086322689 0 0 77 (C1) n - 1
REM
REM in /rds/project/t2_vol4/rds-t2-cs072/BORA/CARBON/from-Arr/AIRSS/Generating-Clusters/GAP-ML-2020/Higher-Symm/SD-CG/HFTN-CG
REM
REM
REM
REM
REM
REM ./C.cell (b20cbc046b6831c77cfcea5457e17084)
REM AIRSS Version 0.9.1 bugfix July 2018 build 013d7b7c2542+ Fri, 06 Jul 2018 19:26:36 +0100
REM compiler GCC version 9.3.0
REM options -cpp -mtune=generic -march=x86-64 -g -O0
REM seed -126319564 -1863221227 -904026151 -139410202 -880654221 -1679510905 -1529327941 1470777863 997565894 -1733358208 2112410470 606926446 2056761673 955581702 705802692 -1823099336 -890002300 249875418 1030834241 -1099569896 -1894964114 -1318288344 -1491378713 -889990160 -1471699301 158317665 -1099842043 1280715134 -733644275 1402510035 -753796597 1041363006 -1228439166
REM
CELL 1.54180   50.00000   50.00000   50.00000   90.00000   90.00000   90.00000
LATT -1
SFAC C  
C      1  0.4878390000000  0.4321220000000  0.5278750000000 1.0
C      1  0.5122730000000  0.4221890000000  0.4893450000000 1.0
C      1  0.4491310000000  0.5052680000000  0.5535290000000 1.0
C      1  0.4511350000000  0.5332200000000  0.5479180000000 1.0
C      1  0.5444780000000  0.5544780000000  0.4746920000000 1.0
C      1  0.4844660000000  0.4224760000000  0.4828560000000 1.0
C      1  0.4558980000000  0.4529440000000  0.4576510000000 1.0
C      1  0.4842510000000  0.4815080000000  0.4280720000000 1.0
C      1  0.5052480000000  0.4448670000000  0.4494410000000 1.0
C      1  0.4802260000000  0.5681440000000  0.5378930000000 1.0
C      1  0.4596100000000  0.5205080000000  0.4346310000000 1.0
C      1  0.5584460000000  0.4465640000000  0.5007250000000 1.0
C      1  0.4947120000000  0.5139840000000  0.4790980000000 1.0
C      1  0.4828610000000  0.4887840000000  0.4874680000000 1.0
C      1  0.4694210000000  0.4943350000000  0.5695330000000 1.0
C      1  0.4833220000000  0.5093570000000  0.4214660000000 1.0
C      1  0.5203140000000  0.5734250000000  0.5086810000000 1.0
C      1  0.4729100000000  0.4506050000000  0.5450670000000 1.0
C      1  0.5087240000000  0.5202720000000  0.4147400000000 1.0
C      1  0.5240510000000  0.4862080000000  0.5077250000000 1.0
C      1  0.5282060000000  0.5365040000000  0.4274250000000 1.0
C      1  0.4621940000000  0.5659500000000  0.5161130000000 1.0
C      1  0.5511680000000  0.4570240000000  0.5463420000000 1.0
C      1  0.5048490000000  0.4729500000000  0.4917920000000 1.0
C      1  0.5012520000000  0.5640900000000  0.4630080000000 1.0
C      1  0.4696800000000  0.4275710000000  0.5058530000000 1.0
C      1  0.4532470000000  0.5416910000000  0.4542770000000 1.0
C      1  0.5210130000000  0.5135870000000  0.4678060000000 1.0
C      1  0.4265590000000  0.4832500000000  0.4847630000000 1.0
C      1  0.5241080000000  0.5737850000000  0.5582350000000 1.0
C      1  0.5489700000000  0.4499280000000  0.4732560000000 1.0
C      1  0.5329230000000  0.5085600000000  0.4222820000000 1.0
C      1  0.5255550000000  0.4351030000000  0.4675180000000 1.0
C      1  0.4436480000000  0.4974720000000  0.4408390000000 1.0
C      1  0.4392970000000  0.4578890000000  0.4816420000000 1.0
C      1  0.5417360000000  0.4385980000000  0.5242800000000 1.0
C      1  0.5758880000000  0.4683770000000  0.5380860000000 1.0
C      1  0.4738530000000  0.5482370000000  0.5575050000000 1.0
C      1  0.5432360000000  0.5555670000000  0.5017410000000 1.0
C      1  0.4830750000000  0.4696720000000  0.5632000000000 1.0
C      1  0.4343880000000  0.5286640000000  0.4734990000000 1.0
C      1  0.5517780000000  0.4759860000000  0.4610650000000 1.0
C      1  0.5084950000000  0.5751160000000  0.5351880000000 1.0
C      1  0.5106920000000  0.4951930000000  0.5310470000000 1.0
C      1  0.4267860000000  0.4986020000000  0.5089020000000 1.0
C      1  0.5533820000000  0.5034420000000  0.5589580000000 1.0
C      1  0.4713380000000  0.5621130000000  0.4636300000000 1.0
C      1  0.5226430000000  0.5458820000000  0.5600490000000 1.0
C      1  0.5628260000000  0.4955710000000  0.4782790000000 1.0
C      1  0.5765950000000  0.4971740000000  0.5436250000000 1.0
C      1  0.4428680000000  0.4881070000000  0.5304380000000 1.0
C      1  0.4285190000000  0.5022560000000  0.4638670000000 1.0
C      1  0.5763480000000  0.5113780000000  0.5190780000000 1.0
C      1  0.5508020000000  0.5296010000000  0.5166430000000 1.0
C      1  0.4945280000000  0.5082300000000  0.5736570000000 1.0
C      1  0.4315140000000  0.5269890000000  0.5025990000000 1.0
C      1  0.5814860000000  0.4908160000000  0.4984220000000 1.0
C      1  0.4587050000000  0.4735940000000  0.4387810000000 1.0
C      1  0.4434760000000  0.5440290000000  0.5223380000000 1.0
C      1  0.4967420000000  0.5304270000000  0.5027860000000 1.0
C      1  0.5387080000000  0.5078760000000  0.4928920000000 1.0
C      1  0.4792170000000  0.4367840000000  0.4592170000000 1.0
C      1  0.5159440000000  0.4272530000000  0.5176750000000 1.0
C      1  0.4965580000000  0.5353140000000  0.5692390000000 1.0
C      1  0.5383700000000  0.4777620000000  0.5632900000000 1.0
C      1  0.5015660000000  0.5774120000000  0.4880970000000 1.0
C      1  0.5246460000000  0.5444760000000  0.4562990000000 1.0
C      1  0.4909080000000  0.5138690000000  0.5241600000000 1.0
C      1  0.4732050000000  0.4941250000000  0.5137970000000 1.0
C      1  0.5095410000000  0.4845570000000  0.5612530000000 1.0
C      1  0.5784570000000  0.4649750000000  0.5099230000000 1.0
C      1  0.5423390000000  0.5281100000000  0.5473060000000 1.0
C      1  0.4488990000000  0.4593990000000  0.5307680000000 1.0
C      1  0.5298520000000  0.4889110000000  0.4458450000000 1.0
C      1  0.5083080000000  0.4696640000000  0.4364170000000 1.0
C      1  0.4476330000000  0.4457510000000  0.5058970000000 1.0
C      1  0.4721580000000  0.5735290000000  0.4906990000000 1.0
END
