TITL C-39742-1745-3 24.4369237887391 125000 -975.488475696782 0 0 132 (C1) n - 1
REM
REM in /rds/project/t2_vol4/rds-t2-cs072/BORA/CARBON/from-Arr/AIRSS/Generating-Clusters/GAP-ML-2020/Higher-Symm/SD-CG/HFTN-CG
REM
REM
REM
REM
REM
REM ./C.cell (b20cbc046b6831c77cfcea5457e17084)
REM AIRSS Version 0.9.1 bugfix July 2018 build 013d7b7c2542+ Fri, 06 Jul 2018 19:26:36 +0100
REM compiler GCC version 9.3.0
REM options -cpp -mtune=generic -march=x86-64 -g -O0
REM seed 726169396 -849353926 -227275926 1020375078 1373035330 1113802547 -1662645913 -604186329 -1010708254 98195780 -1164191777 -468928718 1318863385 -1954432495 209751422 648234852 -1449746249 -1874806316 303986836 -1616700177 1234967176 945882375 1742275661 507909785 1098320244 -798648852 801858395 -1670985020 454461581 -576135823 -1105625809 1961455909 1054025473
REM
CELL 1.54180   50.00000   50.00000   50.00000   90.00000   90.00000   90.00000
LATT -1
SFAC C  
C      1  0.4263050000000  0.4712180000000  0.5507340000000 1.0
C      1  0.5261460000000  0.4700720000000  0.5908780000000 1.0
C      1  0.5904240000000  0.4726260000000  0.5022830000000 1.0
C      1  0.5309780000000  0.4699960000000  0.4102610000000 1.0
C      1  0.4273380000000  0.4710010000000  0.4442460000000 1.0
C      1  0.4264640000000  0.5289910000000  0.5506290000000 1.0
C      1  0.5257260000000  0.5297640000000  0.5876730000000 1.0
C      1  0.5940660000000  0.5315300000000  0.5024890000000 1.0
C      1  0.5301820000000  0.5303150000000  0.4129850000000 1.0
C      1  0.4276860000000  0.5304210000000  0.4440310000000 1.0
C      1  0.4563610000000  0.4697810000000  0.5852970000000 1.0
C      1  0.5663610000000  0.4710110000000  0.5677610000000 1.0
C      1  0.5837450000000  0.4718300000000  0.4569270000000 1.0
C      1  0.4855830000000  0.4707590000000  0.4054010000000 1.0
C      1  0.4065210000000  0.4706750000000  0.4842270000000 1.0
C      1  0.4556160000000  0.5307940000000  0.5851450000000 1.0
C      1  0.5671930000000  0.5303100000000  0.5673690000000 1.0
C      1  0.5851210000000  0.5312620000000  0.4570030000000 1.0
C      1  0.4859810000000  0.5310220000000  0.4052470000000 1.0
C      1  0.4068540000000  0.5308550000000  0.4840320000000 1.0
C      1  0.4753890000000  0.4853640000000  0.5993440000000 1.0
C      1  0.5839720000000  0.4867420000000  0.5531500000000 1.0
C      1  0.5758420000000  0.4869290000000  0.4345140000000 1.0
C      1  0.4640400000000  0.4865930000000  0.4117280000000 1.0
C      1  0.4078090000000  0.4866760000000  0.5066350000000 1.0
C      1  0.4752030000000  0.5145730000000  0.5959950000000 1.0
C      1  0.5871960000000  0.5158300000000  0.5540370000000 1.0
C      1  0.5740950000000  0.5157650000000  0.4373050000000 1.0
C      1  0.4648810000000  0.5148830000000  0.4124810000000 1.0
C      1  0.4086370000000  0.5149940000000  0.5065280000000 1.0
C      1  0.5958630000000  0.5157540000000  0.4785580000000 1.0
C      1  0.5094400000000  0.5151430000000  0.4010340000000 1.0
C      1  0.4095510000000  0.5152530000000  0.4601730000000 1.0
C      1  0.4354820000000  0.5144850000000  0.5733110000000 1.0
C      1  0.5496200000000  0.5149150000000  0.5840250000000 1.0
C      1  0.5947480000000  0.4872180000000  0.4783720000000 1.0
C      1  0.5092270000000  0.4860310000000  0.4008190000000 1.0
C      1  0.4095410000000  0.4862510000000  0.4603700000000 1.0
C      1  0.4358860000000  0.4857640000000  0.5731940000000 1.0
C      1  0.5491190000000  0.4862260000000  0.5846010000000 1.0
C      1  0.4545810000000  0.4149750000000  0.4809790000000 1.0
C      1  0.4676910000000  0.4146210000000  0.5368740000000 1.0
C      1  0.5240290000000  0.4168270000000  0.5408050000000 1.0
C      1  0.5459930000000  0.4167510000000  0.4888350000000 1.0
C      1  0.5034640000000  0.4164650000000  0.4519090000000 1.0
C      1  0.4550930000000  0.5861700000000  0.4804220000000 1.0
C      1  0.4686930000000  0.5845260000000  0.5356650000000 1.0
C      1  0.5245810000000  0.5846690000000  0.5405040000000 1.0
C      1  0.5463110000000  0.5848470000000  0.4887150000000 1.0
C      1  0.5038570000000  0.5860070000000  0.4509760000000 1.0
C      1  0.5508360000000  0.5730990000000  0.4627880000000 1.0
C      1  0.4804450000000  0.5740910000000  0.4386600000000 1.0
C      1  0.4369000000000  0.5735630000000  0.4991170000000 1.0
C      1  0.4801360000000  0.5729600000000  0.5595120000000 1.0
C      1  0.5505100000000  0.5725790000000  0.5367330000000 1.0
C      1  0.5503630000000  0.4288480000000  0.4627910000000 1.0
C      1  0.4802310000000  0.4282990000000  0.4397060000000 1.0
C      1  0.4358380000000  0.4269470000000  0.4996510000000 1.0
C      1  0.4796980000000  0.4268700000000  0.5603760000000 1.0
C      1  0.5498110000000  0.4291550000000  0.5370110000000 1.0
C      1  0.5616600000000  0.5730490000000  0.5099800000000 1.0
C      1  0.5289550000000  0.5735970000000  0.4436680000000 1.0
C      1  0.4552540000000  0.5745900000000  0.4538620000000 1.0
C      1  0.4439280000000  0.5729620000000  0.5273580000000 1.0
C      1  0.5090140000000  0.5729170000000  0.5617720000000 1.0
C      1  0.5608020000000  0.4291880000000  0.5103080000000 1.0
C      1  0.5284590000000  0.4283060000000  0.4437110000000 1.0
C      1  0.4553930000000  0.4274310000000  0.4547830000000 1.0
C      1  0.4427530000000  0.4266530000000  0.5283200000000 1.0
C      1  0.5087290000000  0.4278120000000  0.5624700000000 1.0
C      1  0.5204800000000  0.4452850000000  0.4217600000000 1.0
C      1  0.4323180000000  0.4449280000000  0.4558870000000 1.0
C      1  0.4374540000000  0.4448240000000  0.5502860000000 1.0
C      1  0.5278690000000  0.4455200000000  0.5752710000000 1.0
C      1  0.5781650000000  0.4474420000000  0.4961080000000 1.0
C      1  0.5208270000000  0.5559820000000  0.4221600000000 1.0
C      1  0.4324870000000  0.5567070000000  0.4552220000000 1.0
C      1  0.4380540000000  0.5552470000000  0.5495090000000 1.0
C      1  0.5278970000000  0.5547340000000  0.5738990000000 1.0
C      1  0.5798550000000  0.5559280000000  0.4957350000000 1.0
C      1  0.5005880000000  0.4781770000000  0.4532140000000 1.0
C      1  0.4710580000000  0.4728420000000  0.4880310000000 1.0
C      1  0.4838860000000  0.4699270000000  0.5256660000000 1.0
C      1  0.5272640000000  0.4812690000000  0.5200320000000 1.0
C      1  0.5189590000000  0.4695690000000  0.4950160000000 1.0
C      1  0.5032400000000  0.5263270000000  0.4666830000000 1.0
C      1  0.4703730000000  0.5294460000000  0.4907220000000 1.0
C      1  0.4899310000000  0.5220200000000  0.5316200000000 1.0
C      1  0.5105120000000  0.5327810000000  0.5147230000000 1.0
C      1  0.5456420000000  0.5182520000000  0.4847540000000 1.0
C      1  0.4516850000000  0.4851320000000  0.4389230000000 1.0
C      1  0.4306640000000  0.4847230000000  0.5256690000000 1.0
C      1  0.5042150000000  0.4851410000000  0.5970690000000 1.0
C      1  0.5806740000000  0.4892330000000  0.5234400000000 1.0
C      1  0.5506370000000  0.4859760000000  0.4203360000000 1.0
C      1  0.4525240000000  0.5165170000000  0.4395470000000 1.0
C      1  0.4316440000000  0.5159420000000  0.5258240000000 1.0
C      1  0.5027060000000  0.5130220000000  0.5843340000000 1.0
C      1  0.5932060000000  0.5167170000000  0.5254940000000 1.0
C      1  0.5441410000000  0.5136830000000  0.4319540000000 1.0
C      1  0.5016800000000  0.5994790000000  0.4750140000000 1.0
C      1  0.4773870000000  0.5992660000000  0.4899750000000 1.0
C      1  0.4841600000000  0.5981980000000  0.5175330000000 1.0
C      1  0.5122980000000  0.5983090000000  0.5199300000000 1.0
C      1  0.5231430000000  0.5987380000000  0.4937650000000 1.0
C      1  0.5012180000000  0.4026140000000  0.4756920000000 1.0
C      1  0.4768630000000  0.4017380000000  0.4905010000000 1.0
C      1  0.4835080000000  0.4016820000000  0.5183320000000 1.0
C      1  0.5117970000000  0.4029590000000  0.5203870000000 1.0
C      1  0.5227600000000  0.4028350000000  0.4942030000000 1.0
C      1  0.5279660000000  0.5107820000000  0.4643730000000 1.0
C      1  0.4749000000000  0.5156870000000  0.4648480000000 1.0
C      1  0.4646850000000  0.5152170000000  0.5150130000000 1.0
C      1  0.4981470000000  0.5061310000000  0.5525780000000 1.0
C      1  0.5358190000000  0.5189540000000  0.5101980000000 1.0
C      1  0.5214660000000  0.4824310000000  0.4699470000000 1.0
C      1  0.4752620000000  0.4858850000000  0.4632670000000 1.0
C      1  0.4612500000000  0.4852710000000  0.5131920000000 1.0
C      1  0.5046990000000  0.4840520000000  0.5374030000000 1.0
C      1  0.5483910000000  0.4981790000000  0.5240200000000 1.0
C      1  0.5723980000000  0.4471320000000  0.4677140000000 1.0
C      1  0.4919390000000  0.4460170000000  0.4195310000000 1.0
C      1  0.4207310000000  0.4450230000000  0.4821370000000 1.0
C      1  0.4586030000000  0.4446690000000  0.5699170000000 1.0
C      1  0.5524070000000  0.4464870000000  0.5602880000000 1.0
C      1  0.5734910000000  0.5554750000000  0.4678270000000 1.0
C      1  0.4922850000000  0.5560320000000  0.4190200000000 1.0
C      1  0.4212200000000  0.5562500000000  0.4816690000000 1.0
C      1  0.4587980000000  0.5556270000000  0.5693190000000 1.0
C      1  0.5528820000000  0.5545430000000  0.5594190000000 1.0
C      1  0.4975800000000  0.5407230000000  0.4909560000000 1.0
C      1  0.4931090000000  0.4590890000000  0.5000920000000 1.0
END
