TITL C-39760-1762-10 -0.094138893129566 125000 -663.150803211357 0 0 94 (C1) n - 1
REM
REM in /rds/project/t2_vol4/rds-t2-cs072/BORA/CARBON/from-Arr/AIRSS/Generating-Clusters/GAP-ML-2020/Higher-Symm/SD-CG/HFTN-CG
REM
REM
REM
REM
REM
REM ./C.cell (b20cbc046b6831c77cfcea5457e17084)
REM AIRSS Version 0.9.1 bugfix July 2018 build 013d7b7c2542+ Fri, 06 Jul 2018 19:26:36 +0100
REM compiler GCC version 9.3.0
REM options -cpp -mtune=generic -march=x86-64 -g -O0
REM seed -708803676 -1973871845 -1486225979 -1219500347 1424496939 -692092714 -634457875 1425134144 2111537081 -370905285 440905784 -287745780 1423223744 1402947450 -501136384 343421771 -2038939988 182004485 1457845202 -1783845736 617110932 412076118 -435123379 -1136141742 474498419 1973888885 -1224492425 251345849 1936699420 993115068 908779697 -1636323200 -184227654
REM
CELL 1.54180   50.00000   50.00000   50.00000   90.00000   90.00000   90.00000
LATT -1
SFAC C  
C      1  0.5600710000000  0.5026750000000  0.4453930000000 1.0
C      1  0.5801250000000  0.5011230000000  0.5125550000000 1.0
C      1  0.5381560000000  0.5019300000000  0.5683210000000 1.0
C      1  0.4680120000000  0.4997850000000  0.5763940000000 1.0
C      1  0.4205050000000  0.4964310000000  0.5247550000000 1.0
C      1  0.4325390000000  0.4962640000000  0.4560960000000 1.0
C      1  0.4935710000000  0.5021680000000  0.4202280000000 1.0
C      1  0.4185260000000  0.4507030000000  0.5131820000000 1.0
C      1  0.4470450000000  0.4518090000000  0.4474240000000 1.0
C      1  0.5101490000000  0.4572930000000  0.4198450000000 1.0
C      1  0.5673970000000  0.4569480000000  0.4567530000000 1.0
C      1  0.5727570000000  0.4556720000000  0.5248680000000 1.0
C      1  0.5255380000000  0.4562770000000  0.5736990000000 1.0
C      1  0.4569710000000  0.4542940000000  0.5710130000000 1.0
C      1  0.4504910000000  0.4379020000000  0.5487710000000 1.0
C      1  0.4338550000000  0.4353400000000  0.4954370000000 1.0
C      1  0.4720570000000  0.4392120000000  0.4416500000000 1.0
C      1  0.5270880000000  0.4416610000000  0.4375100000000 1.0
C      1  0.5609710000000  0.4417150000000  0.4806740000000 1.0
C      1  0.5502220000000  0.4412980000000  0.5349780000000 1.0
C      1  0.5037330000000  0.4406770000000  0.5638820000000 1.0
C      1  0.5187880000000  0.4837480000000  0.5811860000000 1.0
C      1  0.4462190000000  0.4812670000000  0.5695170000000 1.0
C      1  0.4139150000000  0.4777870000000  0.5033210000000 1.0
C      1  0.4468680000000  0.4790540000000  0.4372000000000 1.0
C      1  0.5180030000000  0.4852270000000  0.4170140000000 1.0
C      1  0.5763480000000  0.4844770000000  0.4621420000000 1.0
C      1  0.5756850000000  0.4830350000000  0.5352600000000 1.0
C      1  0.5133310000000  0.5906310000000  0.5398860000000 1.0
C      1  0.4838740000000  0.5864770000000  0.5371420000000 1.0
C      1  0.4711600000000  0.5836930000000  0.5117390000000 1.0
C      1  0.4766890000000  0.5848010000000  0.4828740000000 1.0
C      1  0.4982690000000  0.5888920000000  0.4647280000000 1.0
C      1  0.5272520000000  0.5897520000000  0.4691300000000 1.0
C      1  0.5405770000000  0.5900320000000  0.4957760000000 1.0
C      1  0.5179290000000  0.4292060000000  0.4625500000000 1.0
C      1  0.5342630000000  0.4310560000000  0.4882940000000 1.0
C      1  0.5271210000000  0.4313440000000  0.5187830000000 1.0
C      1  0.5007950000000  0.4294880000000  0.5369050000000 1.0
C      1  0.4707070000000  0.4263410000000  0.5313550000000 1.0
C      1  0.4592980000000  0.4241260000000  0.5048090000000 1.0
C      1  0.4892510000000  0.4291380000000  0.4624800000000 1.0
C      1  0.5347700000000  0.5540280000000  0.5677080000000 1.0
C      1  0.4676240000000  0.5505390000000  0.5677850000000 1.0
C      1  0.4344570000000  0.5466290000000  0.5186060000000 1.0
C      1  0.4451750000000  0.5474400000000  0.4617650000000 1.0
C      1  0.4909420000000  0.5544420000000  0.4290480000000 1.0
C      1  0.5500060000000  0.5538800000000  0.4428440000000 1.0
C      1  0.5755260000000  0.5526230000000  0.5059510000000 1.0
C      1  0.5501800000000  0.4577080000000  0.4355520000000 1.0
C      1  0.5782590000000  0.4560410000000  0.4981040000000 1.0
C      1  0.5489530000000  0.4559560000000  0.5599110000000 1.0
C      1  0.4833810000000  0.4550430000000  0.5782250000000 1.0
C      1  0.4271890000000  0.4520920000000  0.5396030000000 1.0
C      1  0.4310050000000  0.4503150000000  0.4704500000000 1.0
C      1  0.4827270000000  0.4561930000000  0.4216820000000 1.0
C      1  0.4476280000000  0.5666240000000  0.5067440000000 1.0
C      1  0.4533660000000  0.5674860000000  0.4775800000000 1.0
C      1  0.4922230000000  0.5774770000000  0.4392670000000 1.0
C      1  0.5412970000000  0.5768730000000  0.4486500000000 1.0
C      1  0.5642660000000  0.5747590000000  0.5007260000000 1.0
C      1  0.5278370000000  0.5776490000000  0.5613750000000 1.0
C      1  0.4706480000000  0.5736300000000  0.5580440000000 1.0
C      1  0.5250100000000  0.5303260000000  0.4764600000000 1.0
C      1  0.5327370000000  0.5233910000000  0.5050670000000 1.0
C      1  0.5155910000000  0.5316570000000  0.5286860000000 1.0
C      1  0.4886980000000  0.5198250000000  0.5326750000000 1.0
C      1  0.4677320000000  0.5127700000000  0.5100630000000 1.0
C      1  0.4759470000000  0.5141810000000  0.4804630000000 1.0
C      1  0.4983700000000  0.5290590000000  0.4677360000000 1.0
C      1  0.4205850000000  0.4771140000000  0.4751400000000 1.0
C      1  0.4710230000000  0.4827480000000  0.4212450000000 1.0
C      1  0.5449790000000  0.4851160000000  0.4274730000000 1.0
C      1  0.5842350000000  0.4832290000000  0.4895490000000 1.0
C      1  0.5589960000000  0.4835490000000  0.5581610000000 1.0
C      1  0.4904700000000  0.4827220000000  0.5843640000000 1.0
C      1  0.4265330000000  0.4797090000000  0.5483230000000 1.0
C      1  0.5101100000000  0.4805310000000  0.4656790000000 1.0
C      1  0.5308610000000  0.4811640000000  0.4809130000000 1.0
C      1  0.5302920000000  0.4930500000000  0.5048550000000 1.0
C      1  0.5208580000000  0.4803310000000  0.5264230000000 1.0
C      1  0.4956120000000  0.4874690000000  0.5315690000000 1.0
C      1  0.4739590000000  0.4811600000000  0.5155020000000 1.0
C      1  0.4855400000000  0.4854210000000  0.4747310000000 1.0
C      1  0.4458240000000  0.5209150000000  0.4635860000000 1.0
C      1  0.4938280000000  0.5276380000000  0.4347060000000 1.0
C      1  0.5487340000000  0.5282160000000  0.4535290000000 1.0
C      1  0.5666540000000  0.5265520000000  0.5100000000000 1.0
C      1  0.5322900000000  0.5281670000000  0.5573910000000 1.0
C      1  0.4736970000000  0.5243860000000  0.5620250000000 1.0
C      1  0.4363990000000  0.5202090000000  0.5179760000000 1.0
C      1  0.4749500000000  0.4663760000000  0.4919230000000 1.0
C      1  0.5259950000000  0.5977170000000  0.5173310000000 1.0
C      1  0.4782400000000  0.4358220000000  0.4874890000000 1.0
END
