TITL C-39156-8352-7 0.850602597299678 125000 -737.075599933553 0 0 106 (C1) n - 1
REM
REM in /rds/project/t2_vol4/rds-t2-cs072/BORA/CARBON/from-Arr/AIRSS/Generating-Clusters/GAP-ML-2020/Higher-Symm/SD-CG/HFTN-CG
REM
REM
REM
REM
REM
REM ./C.cell (b20cbc046b6831c77cfcea5457e17084)
REM AIRSS Version 0.9.1 bugfix July 2018 build 013d7b7c2542+ Fri, 06 Jul 2018 19:26:36 +0100
REM compiler GCC version 9.3.0
REM options -cpp -mtune=generic -march=x86-64 -g -O0
REM seed 894611624 1074122336 -1547151315 360462103 90483767 -1211878660 -271157073 -906354493 -811508496 651141847 -603899465 -644929831 -963261548 -285437021 1429158908 2017639722 171721987 -872899274 2011053072 -548628806 363093916 -812716211 -1310885006 -1649403569 1240991590 1218094998 757437149 -351225108 -659353751 -1776155961 -232826439 -831989101 1657762209
REM
CELL 1.54180   50.00000   50.00000   50.00000   90.00000   90.00000   90.00000
LATT -1
SFAC C  
C      1  0.5155990000000  0.4632690000000  0.5268570000000 1.0
C      1  0.5242560000000  0.4919980000000  0.5293400000000 1.0
C      1  0.5014470000000  0.5112310000000  0.5362960000000 1.0
C      1  0.5098800000000  0.5369330000000  0.5338380000000 1.0
C      1  0.5008990000000  0.5359580000000  0.5082160000000 1.0
C      1  0.5218840000000  0.5270550000000  0.4899330000000 1.0
C      1  0.5122990000000  0.5197650000000  0.4625710000000 1.0
C      1  0.5271030000000  0.4959500000000  0.4469400000000 1.0
C      1  0.5163580000000  0.4686440000000  0.4524560000000 1.0
C      1  0.5277910000000  0.4503250000000  0.4735390000000 1.0
C      1  0.5130100000000  0.4478130000000  0.5005470000000 1.0
C      1  0.4249240000000  0.4556480000000  0.5053960000000 1.0
C      1  0.4260160000000  0.4823810000000  0.5173180000000 1.0
C      1  0.4224560000000  0.4890000000000  0.5450740000000 1.0
C      1  0.4243100000000  0.5155280000000  0.5525210000000 1.0
C      1  0.4312390000000  0.5383420000000  0.5330610000000 1.0
C      1  0.4220710000000  0.5539810000000  0.5088750000000 1.0
C      1  0.4215690000000  0.5498290000000  0.4795890000000 1.0
C      1  0.4231790000000  0.5320770000000  0.4570260000000 1.0
C      1  0.4214350000000  0.5042070000000  0.4474880000000 1.0
C      1  0.4206310000000  0.4767760000000  0.4556590000000 1.0
C      1  0.4209020000000  0.4555450000000  0.4775480000000 1.0
C      1  0.4410570000000  0.4353340000000  0.5195110000000 1.0
C      1  0.4467860000000  0.4428980000000  0.5460580000000 1.0
C      1  0.4426740000000  0.4701690000000  0.5519200000000 1.0
C      1  0.4423570000000  0.5277340000000  0.5721710000000 1.0
C      1  0.4435410000000  0.5523900000000  0.5570010000000 1.0
C      1  0.4404650000000  0.5768690000000  0.5053150000000 1.0
C      1  0.4403520000000  0.5735150000000  0.4772660000000 1.0
C      1  0.4414090000000  0.5387980000000  0.4332680000000 1.0
C      1  0.4396290000000  0.5117160000000  0.4239500000000 1.0
C      1  0.4367050000000  0.4576060000000  0.4399760000000 1.0
C      1  0.4360170000000  0.4369650000000  0.4602500000000 1.0
C      1  0.5117070000000  0.5519990000000  0.5795490000000 1.0
C      1  0.5089420000000  0.5842400000000  0.5408250000000 1.0
C      1  0.5105970000000  0.5883280000000  0.4911690000000 1.0
C      1  0.5109710000000  0.5659780000000  0.4464680000000 1.0
C      1  0.5105100000000  0.5262780000000  0.4166750000000 1.0
C      1  0.5032340000000  0.4760510000000  0.4109700000000 1.0
C      1  0.5031220000000  0.4300730000000  0.4359760000000 1.0
C      1  0.5021260000000  0.4093320000000  0.4812190000000 1.0
C      1  0.5119740000000  0.4172210000000  0.5323760000000 1.0
C      1  0.5198330000000  0.4541260000000  0.5703290000000 1.0
C      1  0.5143180000000  0.5020870000000  0.5894760000000 1.0
C      1  0.4750780000000  0.4782110000000  0.4108310000000 1.0
C      1  0.4748710000000  0.4312950000000  0.4368220000000 1.0
C      1  0.4732820000000  0.4104620000000  0.4825830000000 1.0
C      1  0.4841660000000  0.4159840000000  0.5345310000000 1.0
C      1  0.4917540000000  0.4501190000000  0.5742970000000 1.0
C      1  0.4861610000000  0.4992470000000  0.5897260000000 1.0
C      1  0.4838360000000  0.5487840000000  0.5777240000000 1.0
C      1  0.4805360000000  0.5813950000000  0.5400210000000 1.0
C      1  0.4826730000000  0.5868900000000  0.4899770000000 1.0
C      1  0.4824340000000  0.5684610000000  0.4423160000000 1.0
C      1  0.4820800000000  0.5285380000000  0.4126910000000 1.0
C      1  0.4759650000000  0.4369700000000  0.5519040000000 1.0
C      1  0.4788960000000  0.4748870000000  0.5776930000000 1.0
C      1  0.4711130000000  0.5221850000000  0.5768540000000 1.0
C      1  0.4684830000000  0.5649920000000  0.5599320000000 1.0
C      1  0.4684890000000  0.5773990000000  0.5136860000000 1.0
C      1  0.4688830000000  0.5727040000000  0.4683260000000 1.0
C      1  0.4679110000000  0.5497160000000  0.4262260000000 1.0
C      1  0.4646640000000  0.5049010000000  0.4111480000000 1.0
C      1  0.4644230000000  0.4589760000000  0.4312380000000 1.0
C      1  0.4598590000000  0.4209460000000  0.4593990000000 1.0
C      1  0.4667260000000  0.4223510000000  0.5092860000000 1.0
C      1  0.5261750000000  0.5275500000000  0.5821040000000 1.0
C      1  0.5234070000000  0.5671810000000  0.5583060000000 1.0
C      1  0.5237310000000  0.5841930000000  0.5161040000000 1.0
C      1  0.5232000000000  0.5728610000000  0.4709660000000 1.0
C      1  0.5239010000000  0.5411210000000  0.4394790000000 1.0
C      1  0.5181440000000  0.4994410000000  0.4189090000000 1.0
C      1  0.5136030000000  0.4545140000000  0.4262790000000 1.0
C      1  0.5155510000000  0.4241000000000  0.4611280000000 1.0
C      1  0.5165710000000  0.4185100000000  0.5050640000000 1.0
C      1  0.5291690000000  0.4408330000000  0.5447700000000 1.0
C      1  0.5290940000000  0.4808050000000  0.5753540000000 1.0
C      1  0.5541560000000  0.5050000000000  0.4560410000000 1.0
C      1  0.5674710000000  0.4862460000000  0.4730150000000 1.0
C      1  0.5556250000000  0.4600030000000  0.4830120000000 1.0
C      1  0.5623890000000  0.4505630000000  0.5087430000000 1.0
C      1  0.5566140000000  0.4410430000000  0.5316820000000 1.0
C      1  0.5409360000000  0.4961200000000  0.5542660000000 1.0
C      1  0.5436830000000  0.5243470000000  0.5604050000000 1.0
C      1  0.5375100000000  0.5472860000000  0.5406170000000 1.0
C      1  0.5423710000000  0.5630720000000  0.5140480000000 1.0
C      1  0.5398240000000  0.5522940000000  0.4839450000000 1.0
C      1  0.5506880000000  0.5345030000000  0.4563860000000 1.0
C      1  0.4839360000000  0.5225900000000  0.4633870000000 1.0
C      1  0.4730440000000  0.4983420000000  0.4627350000000 1.0
C      1  0.4845630000000  0.4711700000000  0.4570670000000 1.0
C      1  0.4714240000000  0.4640740000000  0.4832340000000 1.0
C      1  0.4822310000000  0.4506760000000  0.5046340000000 1.0
C      1  0.4853280000000  0.4614970000000  0.5324450000000 1.0
C      1  0.4696310000000  0.4811840000000  0.5503550000000 1.0
C      1  0.4737960000000  0.5099470000000  0.5444520000000 1.0
C      1  0.4558340000000  0.5227070000000  0.5219050000000 1.0
C      1  0.4730830000000  0.5421250000000  0.5061280000000 1.0
C      1  0.4698300000000  0.5425830000000  0.4779930000000 1.0
C      1  0.5841320000000  0.4993030000000  0.4937560000000 1.0
C      1  0.6339280000000  0.4891440000000  0.5068940000000 1.0
C      1  0.5378090000000  0.5070180000000  0.5070690000000 1.0
C      1  0.5645900000000  0.5119050000000  0.5077960000000 1.0
C      1  0.4626770000000  0.4906970000000  0.4877150000000 1.0
C      1  0.4448180000000  0.5010640000000  0.5055460000000 1.0
C      1  0.6099640000000  0.4949260000000  0.5016710000000 1.0
END
