TITL C-39734-1785-10 0.00291294979471992 125000 -26.2679892564133 0 0 5 (C2v) n - 1
REM
REM in /rds/project/t2_vol4/rds-t2-cs072/BORA/CARBON/from-Arr/AIRSS/Generating-Clusters/GAP-ML-2020/Higher-Symm/SD-CG/HFTN-CG
REM
REM
REM
REM
REM
REM ./C.cell (b20cbc046b6831c77cfcea5457e17084)
REM AIRSS Version 0.9.1 bugfix July 2018 build 013d7b7c2542+ Fri, 06 Jul 2018 19:26:36 +0100
REM compiler GCC version 9.3.0
REM options -cpp -mtune=generic -march=x86-64 -g -O0
REM seed -932534238 327214909 -1262683872 729818512 -229071007 399832273 -35630812 -491378130 2110526203 -1474967681 -1771691734 -2139921226 293465656 803971517 1229848075 -1029166030 191011968 -80781499 -967105801 -117367742 1332502152 264110091 2144515356 2075655411 -1075914647 -978999722 -728361506 777770773 385135004 -605978690 522295663 1446820368 612045927
REM
CELL 1.54180   50.00000   50.00000   50.00000   90.00000   90.00000   90.00000
LATT -1
SFAC C  
C      1  0.4976150000000  0.4974200000000  0.5166650000000 1.0
C      1  0.4742300000000  0.4974200000000  0.5003940000000 1.0
C      1  0.5248630000000  0.4974200000000  0.5156960000000 1.0
C      1  0.5140190000000  0.4974200000000  0.4906800000000 1.0
C      1  0.4892730000000  0.4974200000000  0.4765650000000 1.0
END
