TITL C-39736-1782-1 -0.00381946342874578 125000 -43.4683436574069 0 0 7 (C2v) n - 1
REM
REM in /rds/project/t2_vol4/rds-t2-cs072/BORA/CARBON/from-Arr/AIRSS/Generating-Clusters/GAP-ML-2020/Higher-Symm/SD-CG/HFTN-CG
REM
REM
REM
REM
REM
REM ./C.cell (b20cbc046b6831c77cfcea5457e17084)
REM AIRSS Version 0.9.1 bugfix July 2018 build 013d7b7c2542+ Fri, 06 Jul 2018 19:26:36 +0100
REM compiler GCC version 9.3.0
REM options -cpp -mtune=generic -march=x86-64 -g -O0
REM seed 1381149390 -966957981 -638990905 1356823066 1330205044 1186195580 356265229 -1376845965 -1912561899 -1595410788 417018727 -1761428260 1901807502 201531177 1243408193 251990459 -1204065891 562926030 1608507304 -1157036969 -259015659 1487436687 614845543 1795523046 484691146 -213734635 1666527444 950885885 -426225182 -1330539289 -1458054067 -1676974421 -1944636244
REM
CELL 1.54180   50.00000   50.00000   50.00000   90.00000   90.00000   90.00000
LATT -1
SFAC C  
C      1  0.4537590000000  0.4868010000000  0.4927140000000 1.0
C      1  0.5475810000000  0.4839590000000  0.4918930000000 1.0
C      1  0.4544140000000  0.5027210000000  0.5124520000000 1.0
C      1  0.5482360000000  0.4998790000000  0.5116300000000 1.0
C      1  0.4747700000000  0.5046120000000  0.4939510000000 1.0
C      1  0.5277110000000  0.5030080000000  0.4934870000000 1.0
C      1  0.5012810000000  0.5055450000000  0.4923180000000 1.0
END
