TITL C-39156-8352-10 -0.109599545341846 125000 -315.715157709731 0 0 50 (C4h) n - 1
REM
REM in /rds/project/t2_vol4/rds-t2-cs072/BORA/CARBON/from-Arr/AIRSS/Generating-Clusters/GAP-ML-2020/Higher-Symm/SD-CG/HFTN-CG
REM
REM
REM
REM
REM
REM ./C.cell (b20cbc046b6831c77cfcea5457e17084)
REM AIRSS Version 0.9.1 bugfix July 2018 build 013d7b7c2542+ Fri, 06 Jul 2018 19:26:36 +0100
REM compiler GCC version 9.3.0
REM options -cpp -mtune=generic -march=x86-64 -g -O0
REM seed -168933545 1430803393 1095322971 -1535307846 -751224419 -71458858 -716335999 1657408332 -1992030835 1856329951 -696372442 -51969720 839126649 1257431150 854664351 1899554313 -1934748940 -1429958682 -396305129 671300748 -1466570531 1302201455 -2136005626 171136930 -1860868164 269627631 966305227 1026970960 639481303 -1965525410 -1943133896 -313824701 1917387776
REM
CELL 1.54180   50.00000   50.00000   50.00000   90.00000   90.00000   90.00000
LATT -1
SFAC C  
C      1  0.5189790000000  0.4412100000000  0.5233400000000 1.0
C      1  0.4770220000000  0.4412190000000  0.5183300000000 1.0
C      1  0.4820330000000  0.4412080000000  0.4763740000000 1.0
C      1  0.5239890000000  0.4411990000000  0.4813840000000 1.0
C      1  0.5190070000000  0.5617370000000  0.5233120000000 1.0
C      1  0.4770510000000  0.5617460000000  0.5183010000000 1.0
C      1  0.4820610000000  0.5617350000000  0.4763450000000 1.0
C      1  0.5240170000000  0.5617260000000  0.4813550000000 1.0
C      1  0.5047920000000  0.5322800000000  0.4443300000000 1.0
C      1  0.5560320000000  0.5322820000000  0.5041000000000 1.0
C      1  0.4962630000000  0.5323080000000  0.5553410000000 1.0
C      1  0.4450220000000  0.5323060000000  0.4955710000000 1.0
C      1  0.5047770000000  0.4706370000000  0.4443450000000 1.0
C      1  0.5560180000000  0.4706390000000  0.5041150000000 1.0
C      1  0.4962480000000  0.4706650000000  0.5553550000000 1.0
C      1  0.4450070000000  0.4706630000000  0.4955860000000 1.0
C      1  0.5183940000000  0.4725770000000  0.4880770000000 1.0
C      1  0.5122860000000  0.4725860000000  0.5177310000000 1.0
C      1  0.4826320000000  0.4725910000000  0.5116220000000 1.0
C      1  0.4887400000000  0.4725830000000  0.4819680000000 1.0
C      1  0.5184080000000  0.5303540000000  0.4880630000000 1.0
C      1  0.5122990000000  0.5303630000000  0.5177170000000 1.0
C      1  0.4826450000000  0.5303680000000  0.5116090000000 1.0
C      1  0.4887540000000  0.5303600000000  0.4819550000000 1.0
C      1  0.5220390000000  0.4867300000000  0.5417640000000 1.0
C      1  0.4585990000000  0.4867400000000  0.5213690000000 1.0
C      1  0.4789940000000  0.4867200000000  0.4579290000000 1.0
C      1  0.5424340000000  0.4867100000000  0.4783240000000 1.0
C      1  0.5220460000000  0.5162250000000  0.5417570000000 1.0
C      1  0.4586060000000  0.5162350000000  0.5213620000000 1.0
C      1  0.4790010000000  0.5162150000000  0.4579220000000 1.0
C      1  0.5424410000000  0.5162050000000  0.4783170000000 1.0
C      1  0.5279860000000  0.5154360000000  0.4509340000000 1.0
C      1  0.5494290000000  0.5154490000000  0.5273020000000 1.0
C      1  0.4730600000000  0.5154720000000  0.5487450000000 1.0
C      1  0.4516170000000  0.5154590000000  0.4723770000000 1.0
C      1  0.5279790000000  0.4874730000000  0.4509400000000 1.0
C      1  0.5494220000000  0.4874870000000  0.5273090000000 1.0
C      1  0.4730540000000  0.4875100000000  0.5487520000000 1.0
C      1  0.4516110000000  0.4874970000000  0.4723830000000 1.0
C      1  0.4956170000000  0.4443480000000  0.5432660000000 1.0
C      1  0.4570970000000  0.4443460000000  0.4949670000000 1.0
C      1  0.5053960000000  0.4443250000000  0.4564470000000 1.0
C      1  0.5439160000000  0.4443280000000  0.5047460000000 1.0
C      1  0.4956440000000  0.5586200000000  0.5432390000000 1.0
C      1  0.4571240000000  0.5586180000000  0.4949390000000 1.0
C      1  0.5054230000000  0.5585970000000  0.4564190000000 1.0
C      1  0.5439430000000  0.5586000000000  0.5047190000000 1.0
C      1  0.5005370000000  0.5725240000000  0.4998260000000 1.0
C      1  0.5005030000000  0.4304210000000  0.4998600000000 1.0
END
