TITL C-39154-8422-4 0.137896197039943 125000 -580.662996575338 0 0 87 (C1) n - 1
REM
REM in /rds/project/t2_vol4/rds-t2-cs072/BORA/CARBON/from-Arr/AIRSS/Generating-Clusters/GAP-ML-2020/Higher-Symm/SD-CG/HFTN-CG
REM
REM
REM
REM
REM
REM ./C.cell (b20cbc046b6831c77cfcea5457e17084)
REM AIRSS Version 0.9.1 bugfix July 2018 build 013d7b7c2542+ Fri, 06 Jul 2018 19:26:36 +0100
REM compiler GCC version 9.3.0
REM options -cpp -mtune=generic -march=x86-64 -g -O0
REM seed 1442303313 -1751738270 1362731298 -1397830942 2439249 -1998442829 -229864544 45337625 -1305151509 1464842191 506770870 -669292241 -687384302 -1242227557 -1650006681 1542964785 -289861406 -1154937213 -1625380174 -1762675859 -1273409262 -334581227 475722132 1819420775 -2107287601 -72879670 2143411993 -1668213240 2065557103 1218377057 1727559735 -177207368 -342497242
REM
CELL 1.54180   50.00000   50.00000   50.00000   90.00000   90.00000   90.00000
LATT -1
SFAC C  
C      1  0.5591590000000  0.5238490000000  0.5212440000000 1.0
C      1  0.4991850000000  0.5646350000000  0.5255860000000 1.0
C      1  0.4354600000000  0.5201300000000  0.5253540000000 1.0
C      1  0.4601570000000  0.4422210000000  0.5186530000000 1.0
C      1  0.5361690000000  0.4429630000000  0.5265020000000 1.0
C      1  0.5672400000000  0.4833340000000  0.5271160000000 1.0
C      1  0.4863700000000  0.4304080000000  0.5211420000000 1.0
C      1  0.4311170000000  0.4860280000000  0.5264930000000 1.0
C      1  0.4699410000000  0.5607330000000  0.5249000000000 1.0
C      1  0.5408440000000  0.5485750000000  0.5208240000000 1.0
C      1  0.5418420000000  0.5184260000000  0.4763610000000 1.0
C      1  0.5013300000000  0.5437490000000  0.4848830000000 1.0
C      1  0.4751690000000  0.5058310000000  0.4835630000000 1.0
C      1  0.4764280000000  0.4622900000000  0.4805890000000 1.0
C      1  0.5189720000000  0.4777450000000  0.4740090000000 1.0
C      1  0.5431590000000  0.4911190000000  0.4855090000000 1.0
C      1  0.5039590000000  0.4568730000000  0.4892660000000 1.0
C      1  0.4606750000000  0.4827320000000  0.4919280000000 1.0
C      1  0.4725470000000  0.5336680000000  0.4903890000000 1.0
C      1  0.5153870000000  0.5253420000000  0.4663870000000 1.0
C      1  0.5475950000000  0.4490940000000  0.4560840000000 1.0
C      1  0.5628970000000  0.5270470000000  0.4530740000000 1.0
C      1  0.4934710000000  0.5708990000000  0.4508540000000 1.0
C      1  0.4346350000000  0.5169130000000  0.4533850000000 1.0
C      1  0.4677150000000  0.4422180000000  0.4477700000000 1.0
C      1  0.5465240000000  0.5527850000000  0.4512210000000 1.0
C      1  0.5659780000000  0.4718500000000  0.4534480000000 1.0
C      1  0.4951810000000  0.4331090000000  0.4496590000000 1.0
C      1  0.4347380000000  0.4879610000000  0.4526370000000 1.0
C      1  0.4665350000000  0.5608910000000  0.4526590000000 1.0
C      1  0.4321490000000  0.5330460000000  0.4763770000000 1.0
C      1  0.4524880000000  0.4459350000000  0.4714370000000 1.0
C      1  0.5400220000000  0.4351000000000  0.4787210000000 1.0
C      1  0.5805230000000  0.5156770000000  0.4736610000000 1.0
C      1  0.5080650000000  0.5720640000000  0.4759050000000 1.0
C      1  0.4341920000000  0.4737120000000  0.4768300000000 1.0
C      1  0.4543230000000  0.5545640000000  0.4780830000000 1.0
C      1  0.5388230000000  0.5672430000000  0.4737900000000 1.0
C      1  0.5722780000000  0.4853980000000  0.4779690000000 1.0
C      1  0.5081310000000  0.4294980000000  0.4765580000000 1.0
C      1  0.4225620000000  0.5170220000000  0.4979700000000 1.0
C      1  0.4611040000000  0.4298540000000  0.4926780000000 1.0
C      1  0.5532460000000  0.4455710000000  0.5027130000000 1.0
C      1  0.5688860000000  0.5323210000000  0.4950220000000 1.0
C      1  0.4927460000000  0.5810750000000  0.4998710000000 1.0
C      1  0.4198360000000  0.4889620000000  0.4982420000000 1.0
C      1  0.4657250000000  0.5743650000000  0.4997510000000 1.0
C      1  0.5538370000000  0.5576390000000  0.4959340000000 1.0
C      1  0.5725470000000  0.4678200000000  0.5029840000000 1.0
C      1  0.4869420000000  0.4182520000000  0.4946880000000 1.0
C      1  0.5462150000000  0.4869290000000  0.4359140000000 1.0
C      1  0.5240380000000  0.5360650000000  0.4384140000000 1.0
C      1  0.4724430000000  0.5392380000000  0.4335910000000 1.0
C      1  0.4573240000000  0.4871650000000  0.4332490000000 1.0
C      1  0.5022450000000  0.4556030000000  0.4324190000000 1.0
C      1  0.5455010000000  0.5139320000000  0.4326630000000 1.0
C      1  0.5257910000000  0.4668270000000  0.4439310000000 1.0
C      1  0.4744590000000  0.4652230000000  0.4296860000000 1.0
C      1  0.4564030000000  0.5165880000000  0.4331410000000 1.0
C      1  0.5001190000000  0.5492720000000  0.4312770000000 1.0
C      1  0.5245700000000  0.5381730000000  0.5646680000000 1.0
C      1  0.4791300000000  0.5272870000000  0.5657850000000 1.0
C      1  0.4567970000000  0.4845040000000  0.5664740000000 1.0
C      1  0.5021950000000  0.4645890000000  0.5698100000000 1.0
C      1  0.5447350000000  0.4861850000000  0.5773730000000 1.0
C      1  0.5311750000000  0.4625570000000  0.5725230000000 1.0
C      1  0.4773740000000  0.4693920000000  0.5799990000000 1.0
C      1  0.4528780000000  0.5157220000000  0.5705560000000 1.0
C      1  0.5005770000000  0.5398000000000  0.5779400000000 1.0
C      1  0.5422330000000  0.5078110000000  0.5598990000000 1.0
C      1  0.5242100000000  0.5581160000000  0.5442790000000 1.0
C      1  0.4327940000000  0.5246380000000  0.5540230000000 1.0
C      1  0.4306840000000  0.4788430000000  0.5535780000000 1.0
C      1  0.5422340000000  0.4457960000000  0.5529520000000 1.0
C      1  0.5677800000000  0.5074970000000  0.5437930000000 1.0
C      1  0.5024600000000  0.4733630000000  0.5411720000000 1.0
C      1  0.4797650000000  0.5156410000000  0.5373090000000 1.0
C      1  0.4744590000000  0.4858900000000  0.5400420000000 1.0
C      1  0.5228400000000  0.4962690000000  0.5357600000000 1.0
C      1  0.5050100000000  0.5153790000000  0.5224870000000 1.0
C      1  0.4626080000000  0.5326460000000  0.5199490000000 1.0
C      1  0.4567310000000  0.4722910000000  0.5197430000000 1.0
C      1  0.5437060000000  0.4952620000000  0.5150400000000 1.0
C      1  0.5076370000000  0.4505560000000  0.5208100000000 1.0
C      1  0.5126840000000  0.5410700000000  0.5115840000000 1.0
C      1  0.4978290000000  0.4990390000000  0.4996790000000 1.0
C      1  0.5013410000000  0.5007880000000  0.4707810000000 1.0
END
