TITL C-39756-1747-8 0.0549591710075081 125000 -41.855301847788 0 0 7 (D7h) n - 1
REM
REM in /rds/project/t2_vol4/rds-t2-cs072/BORA/CARBON/from-Arr/AIRSS/Generating-Clusters/GAP-ML-2020/Higher-Symm/SD-CG/HFTN-CG
REM
REM
REM
REM
REM
REM ./C.cell (b20cbc046b6831c77cfcea5457e17084)
REM AIRSS Version 0.9.1 bugfix July 2018 build 013d7b7c2542+ Fri, 06 Jul 2018 19:26:36 +0100
REM compiler GCC version 9.3.0
REM options -cpp -mtune=generic -march=x86-64 -g -O0
REM seed -777667 -305208883 646524663 1143201903 962369317 825935990 -1291534890 1063887137 -1042767028 -674357312 1135941953 1069122814 1330152770 -647766791 -1042475414 -456552128 -1093125107 -657058187 810968184 -578739433 -934003073 -1476110304 -1387068971 1769327735 1364972251 -501892067 909677434 311097006 -1959070244 -529690172 -1602961776 -1390888784 430011047
REM
CELL 1.54180   50.00000   50.00000   50.00000   90.00000   90.00000   90.00000
LATT -1
SFAC C  
C      1  0.5034450000000  0.5214190000000  0.5186870000000 1.0
C      1  0.5064670000000  0.4979980000000  0.5304830000000 1.0
C      1  0.5049610000000  0.4738890000000  0.5198340000000 1.0
C      1  0.5000600000000  0.4672490000000  0.4947590000000 1.0
C      1  0.4954560000000  0.4830760000000  0.4741400000000 1.0
C      1  0.4981700000000  0.5265180000000  0.4933280000000 1.0
C      1  0.4946150000000  0.5094530000000  0.4735030000000 1.0
END
