TITL C-39753-1743-7 0.0589830390194959 125000 -270.973121280725 0 0 42 (S4) n - 1
REM
REM in /rds/project/t2_vol4/rds-t2-cs072/BORA/CARBON/from-Arr/AIRSS/Generating-Clusters/GAP-ML-2020/Higher-Symm/SD-CG/HFTN-CG
REM
REM
REM
REM
REM
REM ./C.cell (b20cbc046b6831c77cfcea5457e17084)
REM AIRSS Version 0.9.1 bugfix July 2018 build 013d7b7c2542+ Fri, 06 Jul 2018 19:26:36 +0100
REM compiler GCC version 9.3.0
REM options -cpp -mtune=generic -march=x86-64 -g -O0
REM seed -1425313368 -1838464831 -624069523 374777955 909351754 173371799 -1809357454 -1235158048 -1543594661 -471958926 1544304800 1281465298 -1301182613 692220089 -823358486 945449823 -2134132910 -408851034 764344111 567712855 -1584136200 1646244032 496549616 -1447418762 1754508115 -546900790 -642812864 -201259093 789383397 742975624 -733832825 -1320092633 1162546385
REM
CELL 1.54180   50.00000   50.00000   50.00000   90.00000   90.00000   90.00000
LATT -1
SFAC C  
C      1  0.5334760000000  0.4948000000000  0.4445860000000 1.0
C      1  0.5090410000000  0.5327650000000  0.4447440000000 1.0
C      1  0.4677120000000  0.5049180000000  0.4445980000000 1.0
C      1  0.4921470000000  0.4669530000000  0.4447410000000 1.0
C      1  0.5335190000000  0.4914010000000  0.5590620000000 1.0
C      1  0.5056720000000  0.5327300000000  0.5592210000000 1.0
C      1  0.4677060000000  0.5082950000000  0.5590740000000 1.0
C      1  0.4955540000000  0.4669660000000  0.5592170000000 1.0
C      1  0.4768370000000  0.4757750000000  0.5173650000000 1.0
C      1  0.5236060000000  0.4771640000000  0.5160310000000 1.0
C      1  0.5243740000000  0.5239290000000  0.5173620000000 1.0
C      1  0.4776050000000  0.5225400000000  0.5160430000000 1.0
C      1  0.4779130000000  0.4768540000000  0.4877750000000 1.0
C      1  0.5246780000000  0.4760860000000  0.4864410000000 1.0
C      1  0.5232890000000  0.5228560000000  0.4877720000000 1.0
C      1  0.4765240000000  0.5236240000000  0.4864530000000 1.0
C      1  0.4910140000000  0.5487660000000  0.5163250000000 1.0
C      1  0.4511750000000  0.4899530000000  0.5166450000000 1.0
C      1  0.5101970000000  0.4509390000000  0.5163120000000 1.0
C      1  0.5500360000000  0.5097520000000  0.5166300000000 1.0
C      1  0.4907010000000  0.5492860000000  0.4871800000000 1.0
C      1  0.4516870000000  0.4902630000000  0.4874990000000 1.0
C      1  0.5105000000000  0.4504240000000  0.4871670000000 1.0
C      1  0.5495140000000  0.5094470000000  0.4874850000000 1.0
C      1  0.4690290000000  0.4793720000000  0.4349290000000 1.0
C      1  0.5158400000000  0.4759120000000  0.4352350000000 1.0
C      1  0.5321560000000  0.5203470000000  0.4349230000000 1.0
C      1  0.4853450000000  0.5238080000000  0.4352440000000 1.0
C      1  0.4766660000000  0.4845990000000  0.5685740000000 1.0
C      1  0.5211020000000  0.4682830000000  0.5688780000000 1.0
C      1  0.5245620000000  0.5150950000000  0.5685690000000 1.0
C      1  0.4801270000000  0.5314110000000  0.5688910000000 1.0
C      1  0.4560560000000  0.5124340000000  0.5325720000000 1.0
C      1  0.4884800000000  0.4548670000000  0.5333590000000 1.0
C      1  0.5451610000000  0.4872670000000  0.5325550000000 1.0
C      1  0.5127360000000  0.5448340000000  0.5333630000000 1.0
C      1  0.4556140000000  0.5119850000000  0.4704580000000 1.0
C      1  0.4880140000000  0.4553040000000  0.4712450000000 1.0
C      1  0.5455820000000  0.4877280000000  0.4704410000000 1.0
C      1  0.5131820000000  0.5444090000000  0.4712490000000 1.0
C      1  0.5006070000000  0.4998510000000  0.5264870000000 1.0
C      1  0.5005990000000  0.4998560000000  0.4773240000000 1.0
END
