TITL C-39762-1627-5 -9.27381670081255 125000 -656.014995115748 0 0 95 (Cs) n - 1
REM
REM in /rds/project/t2_vol4/rds-t2-cs072/BORA/CARBON/from-Arr/AIRSS/Generating-Clusters/GAP-ML-2020/Higher-Symm/SD-CG/HFTN-CG
REM
REM
REM
REM
REM
REM ./C.cell (b20cbc046b6831c77cfcea5457e17084)
REM AIRSS Version 0.9.1 bugfix July 2018 build 013d7b7c2542+ Fri, 06 Jul 2018 19:26:36 +0100
REM compiler GCC version 9.3.0
REM options -cpp -mtune=generic -march=x86-64 -g -O0
REM seed -973760410 -513706574 2127135759 -491218262 178522865 -682689374 -1534757901 1595352824 1269307671 1285432730 -1072222171 927940389 -117108429 42222784 -217088464 -323557162 2064952317 -796230889 553112189 -533386697 -1674403412 -2064420467 1388052868 -44648969 830109313 -1836297494 -1344931974 805593097 592570158 729073437 -1679090366 -1597714184 -1571126467
REM
CELL 1.54180   50.00000   50.00000   50.00000   90.00000   90.00000   90.00000
LATT -1
SFAC C  
C      1  0.4817270000000  0.4561460000000  0.5321640000000 1.0
C      1  0.4817260000000  0.4561440000000  0.4687350000000 1.0
C      1  0.5338120000000  0.4886430000000  0.5796970000000 1.0
C      1  0.5338080000000  0.4886360000000  0.4211970000000 1.0
C      1  0.4821860000000  0.5114160000000  0.5621220000000 1.0
C      1  0.4821840000000  0.5114100000000  0.4387730000000 1.0
C      1  0.4856100000000  0.5571190000000  0.5540730000000 1.0
C      1  0.4856080000000  0.5571150000000  0.4468170000000 1.0
C      1  0.5181520000000  0.4648900000000  0.4311010000000 1.0
C      1  0.5181550000000  0.4648950000000  0.5697960000000 1.0
C      1  0.4495830000000  0.4813290000000  0.5690220000000 1.0
C      1  0.4495810000000  0.4813240000000  0.4318760000000 1.0
C      1  0.4498020000000  0.5659030000000  0.5266940000000 1.0
C      1  0.4498010000000  0.5659010000000  0.4741980000000 1.0
C      1  0.5261000000000  0.4395860000000  0.5266630000000 1.0
C      1  0.5261000000000  0.4395830000000  0.4742360000000 1.0
C      1  0.4916280000000  0.4626090000000  0.5609750000000 1.0
C      1  0.4916260000000  0.4626030000000  0.4399230000000 1.0
C      1  0.5663490000000  0.4651160000000  0.5258010000000 1.0
C      1  0.5663480000000  0.4651140000000  0.4750940000000 1.0
C      1  0.4511390000000  0.4271690000000  0.4859620000000 1.0
C      1  0.4511390000000  0.4271700000000  0.5149400000000 1.0
C      1  0.5352780000000  0.4497480000000  0.5536860000000 1.0
C      1  0.5352760000000  0.4497430000000  0.4472110000000 1.0
C      1  0.4779420000000  0.4278190000000  0.5247120000000 1.0
C      1  0.4779410000000  0.4278170000000  0.4761900000000 1.0
C      1  0.4298690000000  0.4700130000000  0.5157110000000 1.0
C      1  0.4298690000000  0.4700120000000  0.4851900000000 1.0
C      1  0.5664140000000  0.5161460000000  0.4477490000000 1.0
C      1  0.5664170000000  0.5161500000000  0.5531420000000 1.0
C      1  0.4977540000000  0.5360660000000  0.4319690000000 1.0
C      1  0.4977570000000  0.5360720000000  0.5689230000000 1.0
C      1  0.4788960000000  0.4836130000000  0.5727850000000 1.0
C      1  0.4788940000000  0.4836070000000  0.4281110000000 1.0
C      1  0.4725000000000  0.5769440000000  0.4866350000000 1.0
C      1  0.4725010000000  0.5769460000000  0.5142550000000 1.0
C      1  0.5043000000000  0.4199240000000  0.4862590000000 1.0
C      1  0.5043000000000  0.4199260000000  0.5146420000000 1.0
C      1  0.5334500000000  0.5026420000000  0.5250010000000 1.0
C      1  0.5334490000000  0.5026400000000  0.4758930000000 1.0
C      1  0.5090330000000  0.4914560000000  0.4842600000000 1.0
C      1  0.5090340000000  0.4914570000000  0.5166350000000 1.0
C      1  0.5476980000000  0.5377560000000  0.4447330000000 1.0
C      1  0.5477000000000  0.5377610000000  0.5561570000000 1.0
C      1  0.5608020000000  0.4922750000000  0.4859260000000 1.0
C      1  0.5608030000000  0.4922770000000  0.5149670000000 1.0
C      1  0.4525520000000  0.5100640000000  0.5693190000000 1.0
C      1  0.4525500000000  0.5100580000000  0.4315780000000 1.0
C      1  0.4962870000000  0.5651470000000  0.4742930000000 1.0
C      1  0.4962880000000  0.5651500000000  0.5265960000000 1.0
C      1  0.4373880000000  0.4595250000000  0.5576200000000 1.0
C      1  0.4373870000000  0.4595210000000  0.4432810000000 1.0
C      1  0.5777210000000  0.5172390000000  0.5244160000000 1.0
C      1  0.5777200000000  0.5172370000000  0.4764750000000 1.0
C      1  0.4318190000000  0.4472520000000  0.4675050000000 1.0
C      1  0.4318200000000  0.4472540000000  0.5333980000000 1.0
C      1  0.4419830000000  0.5300010000000  0.5539350000000 1.0
C      1  0.4419810000000  0.5299970000000  0.4469600000000 1.0
C      1  0.5593020000000  0.4651340000000  0.4484260000000 1.0
C      1  0.5593050000000  0.4651380000000  0.5524690000000 1.0
C      1  0.5523010000000  0.4431830000000  0.5139880000000 1.0
C      1  0.5523010000000  0.4431820000000  0.4869090000000 1.0
C      1  0.5290860000000  0.5296590000000  0.5152390000000 1.0
C      1  0.5290850000000  0.5296580000000  0.4856530000000 1.0
C      1  0.4614730000000  0.5045530000000  0.4854200000000 1.0
C      1  0.4614730000000  0.5045540000000  0.5154760000000 1.0
C      1  0.4342700000000  0.5210740000000  0.4741830000000 1.0
C      1  0.4342720000000  0.5210760000000  0.5267130000000 1.0
C      1  0.4603420000000  0.4743480000000  0.4849410000000 1.0
C      1  0.4603430000000  0.4743490000000  0.5159580000000 1.0
C      1  0.4988850000000  0.5351420000000  0.4856360000000 1.0
C      1  0.4988860000000  0.5351430000000  0.5152560000000 1.0
C      1  0.5283380000000  0.5110760000000  0.4071360000000 1.0
C      1  0.5283420000000  0.5110840000000  0.5937570000000 1.0
C      1  0.4869490000000  0.5107530000000  0.4734170000000 1.0
C      1  0.4869500000000  0.5107550000000  0.5274770000000 1.0
C      1  0.5060920000000  0.4614130000000  0.4851890000000 1.0
C      1  0.5060930000000  0.4614140000000  0.5157090000000 1.0
C      1  0.5441370000000  0.5514480000000  0.4723230000000 1.0
C      1  0.5441380000000  0.5514510000000  0.5285660000000 1.0
C      1  0.4324110000000  0.5474240000000  0.5141380000000 1.0
C      1  0.4324100000000  0.5474230000000  0.4867560000000 1.0
C      1  0.5242250000000  0.5711960000000  0.4858040000000 1.0
C      1  0.5242260000000  0.5711970000000  0.5150840000000 1.0
C      1  0.5682070000000  0.5435860000000  0.4863410000000 1.0
C      1  0.5682070000000  0.5435870000000  0.5145480000000 1.0
C      1  0.5255310000000  0.5321900000000  0.4258430000000 1.0
C      1  0.5255340000000  0.5321960000000  0.5750480000000 1.0
C      1  0.4189190000000  0.4983370000000  0.5148180000000 1.0
C      1  0.4189180000000  0.4983350000000  0.4860810000000 1.0
C      1  0.5588120000000  0.4903640000000  0.4356120000000 1.0
C      1  0.5588150000000  0.4903700000000  0.5652820000000 1.0
C      1  0.4575560000000  0.5540420000000  0.4498280000000 1.0
C      1  0.4575580000000  0.5540460000000  0.5510650000000 1.0
C      1  0.5926370000000  0.5102880000000  0.5004450000000 1.0
END
