TITL C-39151-8418-5 0.0259789304564936 125000 -421.616867351458 0 0 59 (C1) n - 1
REM
REM in /rds/project/t2_vol4/rds-t2-cs072/BORA/CARBON/from-Arr/AIRSS/Generating-Clusters/GAP-ML-2020/Higher-Symm/SD-CG/HFTN-CG
REM
REM
REM
REM
REM
REM ./C.cell (b20cbc046b6831c77cfcea5457e17084)
REM AIRSS Version 0.9.1 bugfix July 2018 build 013d7b7c2542+ Fri, 06 Jul 2018 19:26:36 +0100
REM compiler GCC version 9.3.0
REM options -cpp -mtune=generic -march=x86-64 -g -O0
REM seed 1397424518 -1878668940 -1588602538 1617673509 561564283 -39950878 1653127154 349594412 223720888 -773337613 1651834278 -1029255903 301496095 1098275258 1181477868 -777374252 -463944401 412016757 1116358072 -1656315605 -279591285 87817832 229984666 1474766230 -2075950116 1371183786 -521070912 267403693 -1641968488 -1653371626 1113400420 1783162495 -545803844
REM
CELL 1.54180   50.00000   50.00000   50.00000   90.00000   90.00000   90.00000
LATT -1
SFAC C  
C      1  0.5303320000000  0.4770990000000  0.5113910000000 1.0
C      1  0.4759630000000  0.5144620000000  0.4987000000000 1.0
C      1  0.5206490000000  0.4906120000000  0.4911490000000 1.0
C      1  0.4557800000000  0.5596550000000  0.4961500000000 1.0
C      1  0.4998870000000  0.5625860000000  0.5132040000000 1.0
C      1  0.5016010000000  0.4392090000000  0.5114650000000 1.0
C      1  0.5007500000000  0.5641420000000  0.4838820000000 1.0
C      1  0.4991580000000  0.4359340000000  0.4826370000000 1.0
C      1  0.4649190000000  0.5483570000000  0.4526540000000 1.0
C      1  0.5374590000000  0.4529450000000  0.4610520000000 1.0
C      1  0.4613910000000  0.5451700000000  0.5408980000000 1.0
C      1  0.5392700000000  0.4507670000000  0.5458240000000 1.0
C      1  0.5605350000000  0.5268040000000  0.4740340000000 1.0
C      1  0.4392850000000  0.4770510000000  0.4779340000000 1.0
C      1  0.5597010000000  0.5235090000000  0.5195150000000 1.0
C      1  0.4400910000000  0.4735780000000  0.5236160000000 1.0
C      1  0.5450120000000  0.5484440000000  0.4837750000000 1.0
C      1  0.4540240000000  0.4536000000000  0.4853560000000 1.0
C      1  0.5446810000000  0.5463360000000  0.5116650000000 1.0
C      1  0.4549930000000  0.4519010000000  0.5132030000000 1.0
C      1  0.4367060000000  0.5391630000000  0.4892620000000 1.0
C      1  0.5734570000000  0.4815780000000  0.4918870000000 1.0
C      1  0.4298430000000  0.5196500000000  0.5093770000000 1.0
C      1  0.5767780000000  0.4688160000000  0.5165860000000 1.0
C      1  0.5282500000000  0.4732410000000  0.5610040000000 1.0
C      1  0.4747940000000  0.5250440000000  0.5576720000000 1.0
C      1  0.5260190000000  0.4739490000000  0.4431420000000 1.0
C      1  0.4743260000000  0.5257830000000  0.4373730000000 1.0
C      1  0.5603750000000  0.4719070000000  0.4675430000000 1.0
C      1  0.4413660000000  0.5328880000000  0.4622110000000 1.0
C      1  0.5646900000000  0.4670090000000  0.5400670000000 1.0
C      1  0.4392410000000  0.5266570000000  0.5350180000000 1.0
C      1  0.5262340000000  0.4503210000000  0.5202640000000 1.0
C      1  0.4715670000000  0.5602130000000  0.5200960000000 1.0
C      1  0.5234890000000  0.4320070000000  0.4690700000000 1.0
C      1  0.4739650000000  0.5626180000000  0.4745440000000 1.0
C      1  0.4771750000000  0.4703610000000  0.4493110000000 1.0
C      1  0.5215790000000  0.5302710000000  0.4478030000000 1.0
C      1  0.4804780000000  0.4690090000000  0.5482430000000 1.0
C      1  0.5227740000000  0.5286000000000  0.5476380000000 1.0
C      1  0.5005070000000  0.4845060000000  0.4394130000000 1.0
C      1  0.4998350000000  0.5141500000000  0.4373380000000 1.0
C      1  0.5022800000000  0.4841110000000  0.5597060000000 1.0
C      1  0.5005970000000  0.5138790000000  0.5591960000000 1.0
C      1  0.5214680000000  0.5520090000000  0.4681850000000 1.0
C      1  0.4770640000000  0.4494380000000  0.4694810000000 1.0
C      1  0.5214490000000  0.5502400000000  0.5276740000000 1.0
C      1  0.4797500000000  0.4489150000000  0.5269150000000 1.0
C      1  0.5477420000000  0.5142880000000  0.5438460000000 1.0
C      1  0.4547220000000  0.4819300000000  0.5467420000000 1.0
C      1  0.5471360000000  0.5172670000000  0.4507880000000 1.0
C      1  0.4521410000000  0.4850110000000  0.4532680000000 1.0
C      1  0.4497930000000  0.5112730000000  0.4450770000000 1.0
C      1  0.5493550000000  0.4899110000000  0.4482030000000 1.0
C      1  0.4514560000000  0.5082060000000  0.5535860000000 1.0
C      1  0.5516920000000  0.4886850000000  0.5549900000000 1.0
C      1  0.5695230000000  0.5106810000000  0.4954590000000 1.0
C      1  0.4311210000000  0.4910350000000  0.5024480000000 1.0
C      1  0.4976810000000  0.5023680000000  0.4976610000000 1.0
END
