TITL C-39737-6953-4 1.29056560827155 125000 -842.564767198405 0 0 116 (C1) n - 1
REM
REM in /rds/project/t2_vol4/rds-t2-cs072/BORA/CARBON/from-Arr/AIRSS/Generating-Clusters/GAP-ML-2020/Higher-Symm/SD-CG/HFTN-CG
REM
REM
REM
REM
REM
REM ./C.cell (b20cbc046b6831c77cfcea5457e17084)
REM AIRSS Version 0.9.1 bugfix July 2018 build 013d7b7c2542+ Fri, 06 Jul 2018 19:26:36 +0100
REM compiler GCC version 9.3.0
REM options -cpp -mtune=generic -march=x86-64 -g -O0
REM seed 1421591569 232932007 -937211826 691886704 2043652460 96384337 -1074783751 -1196576600 1599328995 1733593054 -1817539027 -1254884302 -459436003 -590316439 119382991 -1346424682 -2130596484 -1858169981 2009086992 -981508760 1915867411 2010874599 21131705 -309727525 -1620225587 -1438553320 -1069497372 -325848714 -1655537546 -134180941 -1511499602 189522035 486137610
REM
CELL 1.54180   50.00000   50.00000   50.00000   90.00000   90.00000   90.00000
LATT -1
SFAC C  
C      1  0.5419470000000  0.5067590000000  0.5030930000000 1.0
C      1  0.4549060000000  0.4892190000000  0.4948790000000 1.0
C      1  0.5774750000000  0.4445370000000  0.4928970000000 1.0
C      1  0.4499740000000  0.5362770000000  0.5019810000000 1.0
C      1  0.4261740000000  0.5387010000000  0.4830860000000 1.0
C      1  0.5799510000000  0.4550780000000  0.5203360000000 1.0
C      1  0.5061550000000  0.5581300000000  0.5823140000000 1.0
C      1  0.4942080000000  0.4480850000000  0.4199160000000 1.0
C      1  0.5934130000000  0.5014480000000  0.5344660000000 1.0
C      1  0.4041600000000  0.4984930000000  0.4689580000000 1.0
C      1  0.5366750000000  0.4416040000000  0.5477520000000 1.0
C      1  0.4687560000000  0.5498610000000  0.4577910000000 1.0
C      1  0.4323060000000  0.4467980000000  0.5426280000000 1.0
C      1  0.5674900000000  0.5516180000000  0.4589380000000 1.0
C      1  0.4882100000000  0.4844590000000  0.4610650000000 1.0
C      1  0.5169090000000  0.5164190000000  0.5430290000000 1.0
C      1  0.4517580000000  0.5591440000000  0.5218340000000 1.0
C      1  0.5574520000000  0.4318570000000  0.4759580000000 1.0
C      1  0.4796540000000  0.5470720000000  0.5816540000000 1.0
C      1  0.5212750000000  0.4578740000000  0.4183710000000 1.0
C      1  0.4277820000000  0.4671610000000  0.5610810000000 1.0
C      1  0.5750560000000  0.5318440000000  0.4415210000000 1.0
C      1  0.5065650000000  0.5786910000000  0.4812760000000 1.0
C      1  0.4946770000000  0.4247560000000  0.5180250000000 1.0
C      1  0.5358730000000  0.4404510000000  0.4358490000000 1.0
C      1  0.4646580000000  0.5640370000000  0.5643030000000 1.0
C      1  0.5204550000000  0.4261020000000  0.5299190000000 1.0
C      1  0.4810660000000  0.5744220000000  0.4698970000000 1.0
C      1  0.4176000000000  0.5007350000000  0.4440190000000 1.0
C      1  0.5788770000000  0.4994750000000  0.5585780000000 1.0
C      1  0.4800090000000  0.5166970000000  0.5812110000000 1.0
C      1  0.5291280000000  0.4853100000000  0.4131630000000 1.0
C      1  0.4933070000000  0.4903300000000  0.5104050000000 1.0
C      1  0.4999550000000  0.5162430000000  0.4889570000000 1.0
C      1  0.4695490000000  0.4392270000000  0.5158210000000 1.0
C      1  0.5297860000000  0.5603390000000  0.4839000000000 1.0
C      1  0.5531750000000  0.5246350000000  0.4248760000000 1.0
C      1  0.4523110000000  0.4749720000000  0.5740680000000 1.0
C      1  0.5283670000000  0.5641270000000  0.5385490000000 1.0
C      1  0.4707150000000  0.4370540000000  0.4625950000000 1.0
C      1  0.4220660000000  0.4452940000000  0.5161930000000 1.0
C      1  0.5767720000000  0.5534350000000  0.4856210000000 1.0
C      1  0.4780230000000  0.5064580000000  0.5291730000000 1.0
C      1  0.5126010000000  0.4964490000000  0.4691540000000 1.0
C      1  0.5635730000000  0.4531110000000  0.5439910000000 1.0
C      1  0.4370300000000  0.5442110000000  0.4579710000000 1.0
C      1  0.4477410000000  0.4751060000000  0.4168350000000 1.0
C      1  0.5482810000000  0.5246640000000  0.5857830000000 1.0
C      1  0.5161000000000  0.5402060000000  0.5277030000000 1.0
C      1  0.4838070000000  0.4593710000000  0.4741850000000 1.0
C      1  0.4833280000000  0.5792700000000  0.5482890000000 1.0
C      1  0.5177330000000  0.4260730000000  0.4525500000000 1.0
C      1  0.5562780000000  0.5651650000000  0.5006760000000 1.0
C      1  0.4426290000000  0.4340800000000  0.4997820000000 1.0
C      1  0.6007530000000  0.4846430000000  0.4896350000000 1.0
C      1  0.3987240000000  0.5152740000000  0.5152930000000 1.0
C      1  0.4526910000000  0.5091900000000  0.5161590000000 1.0
C      1  0.5372830000000  0.4907500000000  0.4808160000000 1.0
C      1  0.5124380000000  0.4757130000000  0.5263630000000 1.0
C      1  0.4731680000000  0.5283270000000  0.4804490000000 1.0
C      1  0.5809200000000  0.4623240000000  0.4490480000000 1.0
C      1  0.4035410000000  0.5355570000000  0.5328250000000 1.0
C      1  0.4729030000000  0.4594120000000  0.5620250000000 1.0
C      1  0.5301620000000  0.5402130000000  0.4323270000000 1.0
C      1  0.5396600000000  0.5554630000000  0.4557430000000 1.0
C      1  0.4600490000000  0.4422840000000  0.5433690000000 1.0
C      1  0.5984320000000  0.5101420000000  0.4780830000000 1.0
C      1  0.4008290000000  0.4888670000000  0.5266440000000 1.0
C      1  0.5919670000000  0.4621060000000  0.4754000000000 1.0
C      1  0.4216880000000  0.5368570000000  0.5535180000000 1.0
C      1  0.4262850000000  0.5116320000000  0.5670820000000 1.0
C      1  0.5776290000000  0.4873140000000  0.4365900000000 1.0
C      1  0.4051510000000  0.4668030000000  0.5077240000000 1.0
C      1  0.5931040000000  0.5323350000000  0.4957590000000 1.0
C      1  0.5170470000000  0.4194860000000  0.5029170000000 1.0
C      1  0.4839750000000  0.5844490000000  0.4963230000000 1.0
C      1  0.5678100000000  0.5254850000000  0.5647400000000 1.0
C      1  0.4282870000000  0.4742690000000  0.4376490000000 1.0
C      1  0.4906660000000  0.4301080000000  0.4431360000000 1.0
C      1  0.5102460000000  0.5746080000000  0.5580680000000 1.0
C      1  0.4316020000000  0.5256230000000  0.4381020000000 1.0
C      1  0.5660580000000  0.4745360000000  0.5637480000000 1.0
C      1  0.4745440000000  0.4643420000000  0.4091050000000 1.0
C      1  0.5231450000000  0.5385250000000  0.5931390000000 1.0
C      1  0.5044660000000  0.5309180000000  0.4223960000000 1.0
C      1  0.4988530000000  0.4726820000000  0.5558290000000 1.0
C      1  0.5302140000000  0.4226930000000  0.4782700000000 1.0
C      1  0.4727360000000  0.5785150000000  0.5215280000000 1.0
C      1  0.5220230000000  0.5330420000000  0.5001340000000 1.0
C      1  0.4750440000000  0.4680020000000  0.5001940000000 1.0
C      1  0.5953000000000  0.4796310000000  0.5172500000000 1.0
C      1  0.4049840000000  0.5200310000000  0.4872740000000 1.0
C      1  0.5416120000000  0.4758100000000  0.5790140000000 1.0
C      1  0.4547660000000  0.5250580000000  0.4212900000000 1.0
C      1  0.4129850000000  0.4893890000000  0.5534280000000 1.0
C      1  0.5891400000000  0.5096970000000  0.4508210000000 1.0
C      1  0.4576040000000  0.5012970000000  0.4079040000000 1.0
C      1  0.5339300000000  0.4992150000000  0.5919090000000 1.0
C      1  0.5554910000000  0.5624940000000  0.5287190000000 1.0
C      1  0.4427540000000  0.4372470000000  0.4718890000000 1.0
C      1  0.4778390000000  0.5391150000000  0.4308870000000 1.0
C      1  0.5227270000000  0.4586400000000  0.5668500000000 1.0
C      1  0.4235370000000  0.4565660000000  0.4609130000000 1.0
C      1  0.5734230000000  0.5428110000000  0.5411330000000 1.0
C      1  0.4838720000000  0.4913100000000  0.4025720000000 1.0
C      1  0.5087330000000  0.5135970000000  0.5969250000000 1.0
C      1  0.5073510000000  0.5041350000000  0.4097970000000 1.0
C      1  0.4925170000000  0.5046230000000  0.5551120000000 1.0
C      1  0.5311480000000  0.4965440000000  0.5278360000000 1.0
C      1  0.4650940000000  0.5013810000000  0.4703470000000 1.0
C      1  0.5908340000000  0.5278360000000  0.5237360000000 1.0
C      1  0.4063290000000  0.4712510000000  0.4791430000000 1.0
C      1  0.5606940000000  0.4421860000000  0.4493000000000 1.0
C      1  0.4426250000000  0.5555210000000  0.5485340000000 1.0
C      1  0.5545720000000  0.4964920000000  0.4204840000000 1.0
C      1  0.4523230000000  0.5027000000000  0.5799390000000 1.0
END
