TITL C-39757-6768-12 158.188817667397 125000 -1032.82556896115 0 0 147 (C1) n - 1
REM
REM in /rds/project/t2_vol4/rds-t2-cs072/BORA/CARBON/from-Arr/AIRSS/Generating-Clusters/GAP-ML-2020/Higher-Symm/SD-CG/HFTN-CG
REM
REM
REM
REM
REM
REM ./C.cell (b20cbc046b6831c77cfcea5457e17084)
REM AIRSS Version 0.9.1 bugfix July 2018 build 013d7b7c2542+ Fri, 06 Jul 2018 19:26:36 +0100
REM compiler GCC version 9.3.0
REM options -cpp -mtune=generic -march=x86-64 -g -O0
REM seed -1877507350 2088639479 1635162637 225759876 1660876689 1825483816 222534373 777099318 616752026 -29453000 -828449803 -432234919 -1140993824 -53979204 758718163 1302295242 576853143 -1402192635 1764538432 -866648102 655880276 -2040139746 1734199638 -599012446 803532697 -2130636065 -1624793395 -721248519 601874385 -1363889365 -479063978 1945943890 -748248103
REM
CELL 1.54180   50.00000   50.00000   50.00000   90.00000   90.00000   90.00000
LATT -1
SFAC C  
C      1  0.4034690000000  0.4815720000000  0.4912830000000 1.0
C      1  0.5679200000000  0.5530340000000  0.5252370000000 1.0
C      1  0.4527170000000  0.4061000000000  0.4648620000000 1.0
C      1  0.5436410000000  0.4300030000000  0.4392140000000 1.0
C      1  0.4904870000000  0.4690510000000  0.5953300000000 1.0
C      1  0.5731490000000  0.5686360000000  0.5020170000000 1.0
C      1  0.5755540000000  0.4991170000000  0.5520750000000 1.0
C      1  0.4405910000000  0.4300380000000  0.4661040000000 1.0
C      1  0.4658460000000  0.5186470000000  0.4874880000000 1.0
C      1  0.5448200000000  0.5349050000000  0.5622300000000 1.0
C      1  0.5249290000000  0.5901380000000  0.4919260000000 1.0
C      1  0.4859420000000  0.5031970000000  0.4077430000000 1.0
C      1  0.5852870000000  0.4548930000000  0.4512850000000 1.0
C      1  0.3996720000000  0.5034080000000  0.5345440000000 1.0
C      1  0.4604400000000  0.5441070000000  0.4211890000000 1.0
C      1  0.5719040000000  0.4541060000000  0.5568770000000 1.0
C      1  0.5849760000000  0.4742470000000  0.5402560000000 1.0
C      1  0.4282600000000  0.4328120000000  0.5367540000000 1.0
C      1  0.4439530000000  0.4599220000000  0.5720950000000 1.0
C      1  0.5078790000000  0.5201770000000  0.3998100000000 1.0
C      1  0.5058830000000  0.4309330000000  0.5395290000000 1.0
C      1  0.4640340000000  0.5939230000000  0.4963110000000 1.0
C      1  0.4581280000000  0.5492880000000  0.5226940000000 1.0
C      1  0.5254500000000  0.4387180000000  0.5638050000000 1.0
C      1  0.5100110000000  0.5988390000000  0.5177540000000 1.0
C      1  0.4249900000000  0.4338290000000  0.4908040000000 1.0
C      1  0.5552910000000  0.5886020000000  0.4878130000000 1.0
C      1  0.5415610000000  0.5440170000000  0.4041550000000 1.0
C      1  0.4596790000000  0.4724610000000  0.4317810000000 1.0
C      1  0.5637600000000  0.4490990000000  0.4329130000000 1.0
C      1  0.5935790000000  0.4712160000000  0.5131460000000 1.0
C      1  0.5893670000000  0.4448870000000  0.5029310000000 1.0
C      1  0.5731730000000  0.5280920000000  0.4700600000000 1.0
C      1  0.5513190000000  0.4165510000000  0.5290410000000 1.0
C      1  0.5196730000000  0.5578250000000  0.4873280000000 1.0
C      1  0.5342210000000  0.4703480000000  0.5162740000000 1.0
C      1  0.4997780000000  0.4914320000000  0.5362920000000 1.0
C      1  0.4947310000000  0.4754520000000  0.5092840000000 1.0
C      1  0.4081660000000  0.4528830000000  0.5302550000000 1.0
C      1  0.4994210000000  0.4875830000000  0.4828550000000 1.0
C      1  0.5477550000000  0.5165250000000  0.5853050000000 1.0
C      1  0.5249740000000  0.5517650000000  0.4597050000000 1.0
C      1  0.5674430000000  0.4964500000000  0.5799100000000 1.0
C      1  0.4556270000000  0.5069720000000  0.5824080000000 1.0
C      1  0.4677940000000  0.4159240000000  0.5147170000000 1.0
C      1  0.4866620000000  0.4426080000000  0.4665540000000 1.0
C      1  0.4975780000000  0.4227680000000  0.4461800000000 1.0
C      1  0.4593520000000  0.4534790000000  0.4559110000000 1.0
C      1  0.5343950000000  0.4841410000000  0.4425230000000 1.0
C      1  0.4793590000000  0.5377290000000  0.4703110000000 1.0
C      1  0.4146430000000  0.5300890000000  0.4629300000000 1.0
C      1  0.5310130000000  0.4688760000000  0.5697960000000 1.0
C      1  0.4633640000000  0.5808960000000  0.4508650000000 1.0
C      1  0.5911980000000  0.5024290000000  0.4677790000000 1.0
C      1  0.5232470000000  0.4101990000000  0.5240990000000 1.0
C      1  0.5207980000000  0.5097630000000  0.5924930000000 1.0
C      1  0.4246750000000  0.5046550000000  0.4503660000000 1.0
C      1  0.4496130000000  0.4362600000000  0.5551320000000 1.0
C      1  0.4915530000000  0.5175780000000  0.5313620000000 1.0
C      1  0.4667400000000  0.5870590000000  0.5465730000000 1.0
C      1  0.5675220000000  0.4186730000000  0.4797310000000 1.0
C      1  0.5119320000000  0.5747860000000  0.5640910000000 1.0
C      1  0.5152990000000  0.4284870000000  0.5919170000000 1.0
C      1  0.5705020000000  0.4225400000000  0.5085230000000 1.0
C      1  0.5118740000000  0.3977590000000  0.5011800000000 1.0
C      1  0.4273840000000  0.4882660000000  0.4744460000000 1.0
C      1  0.4737880000000  0.5699170000000  0.4255060000000 1.0
C      1  0.5867790000000  0.4394070000000  0.4743950000000 1.0
C      1  0.4370010000000  0.5764650000000  0.4641910000000 1.0
C      1  0.5460630000000  0.4118590000000  0.4630660000000 1.0
C      1  0.5062920000000  0.5410660000000  0.5287180000000 1.0
C      1  0.5149440000000  0.4824080000000  0.5906820000000 1.0
C      1  0.5572240000000  0.5600550000000  0.5509000000000 1.0
C      1  0.4580970000000  0.5465310000000  0.4499780000000 1.0
C      1  0.5410990000000  0.5834350000000  0.5572360000000 1.0
C      1  0.4809950000000  0.5916200000000  0.5203020000000 1.0
C      1  0.4564450000000  0.4763260000000  0.5276650000000 1.0
C      1  0.5213550000000  0.5076730000000  0.4844450000000 1.0
C      1  0.4770820000000  0.4782720000000  0.5495150000000 1.0
C      1  0.5529810000000  0.4329210000000  0.5519490000000 1.0
C      1  0.4361330000000  0.5096380000000  0.4937690000000 1.0
C      1  0.5019360000000  0.5703240000000  0.4210910000000 1.0
C      1  0.5540180000000  0.4944260000000  0.4029680000000 1.0
C      1  0.3976910000000  0.5062440000000  0.5064600000000 1.0
C      1  0.4613690000000  0.5164180000000  0.4150400000000 1.0
C      1  0.4458340000000  0.5012660000000  0.5213800000000 1.0
C      1  0.5372960000000  0.5150240000000  0.3986750000000 1.0
C      1  0.5845740000000  0.4834670000000  0.4476120000000 1.0
C      1  0.5910930000000  0.4938380000000  0.4955700000000 1.0
C      1  0.4396670000000  0.5786240000000  0.4927490000000 1.0
C      1  0.5501200000000  0.5331080000000  0.4512770000000 1.0
C      1  0.4829320000000  0.4387890000000  0.4970520000000 1.0
C      1  0.5501740000000  0.5119740000000  0.5415220000000 1.0
C      1  0.4288310000000  0.5540900000000  0.5099620000000 1.0
C      1  0.4832500000000  0.3952930000000  0.5000120000000 1.0
C      1  0.5223660000000  0.3984700000000  0.4737110000000 1.0
C      1  0.5551890000000  0.5515610000000  0.4270610000000 1.0
C      1  0.5052940000000  0.5298890000000  0.4551440000000 1.0
C      1  0.4222630000000  0.5496840000000  0.5402190000000 1.0
C      1  0.5373530000000  0.4688220000000  0.4692420000000 1.0
C      1  0.4224340000000  0.4783740000000  0.5672960000000 1.0
C      1  0.5279310000000  0.5113170000000  0.4549120000000 1.0
C      1  0.4845760000000  0.5613610000000  0.5160910000000 1.0
C      1  0.5658620000000  0.5093240000000  0.4962730000000 1.0
C      1  0.5160060000000  0.5448040000000  0.5612560000000 1.0
C      1  0.4147060000000  0.5233270000000  0.5501800000000 1.0
C      1  0.5019410000000  0.5291610000000  0.5835560000000 1.0
C      1  0.4968280000000  0.4419860000000  0.6032900000000 1.0
C      1  0.4377090000000  0.4209480000000  0.5130700000000 1.0
C      1  0.5211410000000  0.5953020000000  0.5435320000000 1.0
C      1  0.4858220000000  0.4772620000000  0.4206170000000 1.0
C      1  0.4749360000000  0.4255010000000  0.5415120000000 1.0
C      1  0.5792530000000  0.5565700000000  0.4761640000000 1.0
C      1  0.4733730000000  0.5299600000000  0.5849200000000 1.0
C      1  0.4147820000000  0.5292750000000  0.4937010000000 1.0
C      1  0.5292750000000  0.4863570000000  0.5415230000000 1.0
C      1  0.5254500000000  0.5337750000000  0.5048240000000 1.0
C      1  0.5598270000000  0.4797820000000  0.4273340000000 1.0
C      1  0.5423000000000  0.4867820000000  0.4925690000000 1.0
C      1  0.5203230000000  0.5790650000000  0.4437500000000 1.0
C      1  0.4741560000000  0.4958990000000  0.4734980000000 1.0
C      1  0.5592680000000  0.4698800000000  0.5774220000000 1.0
C      1  0.5092750000000  0.5959330000000  0.4667340000000 1.0
C      1  0.4041380000000  0.4764960000000  0.5456850000000 1.0
C      1  0.5069780000000  0.4644860000000  0.4657040000000 1.0
C      1  0.4294070000000  0.5061860000000  0.5705700000000 1.0
C      1  0.4660840000000  0.5552780000000  0.5735200000000 1.0
C      1  0.4992400000000  0.3968130000000  0.4564500000000 1.0
C      1  0.5129640000000  0.5492500000000  0.4045430000000 1.0
C      1  0.5173070000000  0.4367330000000  0.4318240000000 1.0
C      1  0.5093310000000  0.4499180000000  0.5140420000000 1.0
C      1  0.4672660000000  0.4786110000000  0.5786440000000 1.0
C      1  0.4443510000000  0.4976740000000  0.4305420000000 1.0
C      1  0.4546650000000  0.4738770000000  0.4764260000000 1.0
C      1  0.4814950000000  0.5883920000000  0.4726630000000 1.0
C      1  0.5101480000000  0.4661190000000  0.4340970000000 1.0
C      1  0.4899510000000  0.5599430000000  0.4871150000000 1.0
C      1  0.4491200000000  0.5612280000000  0.5497260000000 1.0
C      1  0.5501080000000  0.5780670000000  0.4385160000000 1.0
C      1  0.4665640000000  0.4645530000000  0.5034400000000 1.0
C      1  0.4293190000000  0.5514760000000  0.4543660000000 1.0
C      1  0.4834070000000  0.5777320000000  0.5678290000000 1.0
C      1  0.5537890000000  0.5273440000000  0.5167640000000 1.0
C      1  0.4076540000000  0.4553090000000  0.5016320000000 1.0
C      1  0.4667420000000  0.5211650000000  0.5191940000000 1.0
C      1  0.5639530000000  0.5781280000000  0.4629610000000 1.0
C      1  0.4753750000000  0.3936150000000  0.4725050000000 1.0
END
