TITL C-4151-6046-4 0.0897756568607383 125000 -581.845664892128 0 0 85 (C1) n - 1
REM
REM in /rds/project/t2_vol4/rds-t2-cs072/BORA/CARBON/from-Arr/AIRSS/Generating-Clusters/GAP-ML-2020/Higher-Symm/SD-CG/HFTN-CG
REM
REM
REM
REM
REM
REM ./C.cell (b20cbc046b6831c77cfcea5457e17084)
REM AIRSS Version 0.9.1 bugfix July 2018 build 013d7b7c2542+ Fri, 06 Jul 2018 19:26:36 +0100
REM compiler GCC version 9.3.0
REM options -cpp -mtune=generic -march=x86-64 -g -O0
REM seed 1221109002 1190302566 1482204656 77112734 799069199 -137965538 -536363051 -493817028 -1596314068 -1266004819 -560424356 -1736004626 1240077337 -1187210555 -1707428398 1549273730 -986418945 -1395314305 -370819436 1069018448 -4357574 -1867846383 1495321890 -821755775 -1657929136 -1533280327 -398645567 -202048196 1367940731 -734727957 1840086124 1616287919 -13204896
REM
CELL 1.54180   50.00000   50.00000   50.00000   90.00000   90.00000   90.00000
LATT -1
SFAC C  
C      1  0.4892470000000  0.5467310000000  0.4257730000000 1.0
C      1  0.4373290000000  0.5424890000000  0.5434250000000 1.0
C      1  0.5658410000000  0.5432550000000  0.5291810000000 1.0
C      1  0.4438560000000  0.5096460000000  0.4504690000000 1.0
C      1  0.4844320000000  0.5085570000000  0.5706860000000 1.0
C      1  0.5663840000000  0.5111910000000  0.4756640000000 1.0
C      1  0.5011310000000  0.4413420000000  0.4599430000000 1.0
C      1  0.4673380000000  0.4468420000000  0.5274290000000 1.0
C      1  0.5477860000000  0.4416940000000  0.5225750000000 1.0
C      1  0.5075060000000  0.5506450000000  0.5568500000000 1.0
C      1  0.5413900000000  0.5531970000000  0.4605920000000 1.0
C      1  0.4402210000000  0.5515550000000  0.4772980000000 1.0
C      1  0.4193640000000  0.5109720000000  0.4943850000000 1.0
C      1  0.5354720000000  0.5136680000000  0.5723450000000 1.0
C      1  0.5432800000000  0.5162480000000  0.4310420000000 1.0
C      1  0.5152500000000  0.4942570000000  0.5342230000000 1.0
C      1  0.5193100000000  0.4918800000000  0.4698550000000 1.0
C      1  0.4676930000000  0.4912460000000  0.4973820000000 1.0
C      1  0.4296020000000  0.4732890000000  0.5261320000000 1.0
C      1  0.5593350000000  0.4758100000000  0.5503520000000 1.0
C      1  0.5136770000000  0.4770560000000  0.4232140000000 1.0
C      1  0.4295370000000  0.4684030000000  0.4759280000000 1.0
C      1  0.5170000000000  0.4712060000000  0.5769150000000 1.0
C      1  0.5581910000000  0.4727270000000  0.4469130000000 1.0
C      1  0.4792130000000  0.4938780000000  0.4713390000000 1.0
C      1  0.4862580000000  0.4980700000000  0.5337740000000 1.0
C      1  0.5308440000000  0.4896600000000  0.4962170000000 1.0
C      1  0.5308850000000  0.5137140000000  0.5196080000000 1.0
C      1  0.5016820000000  0.5154910000000  0.4678600000000 1.0
C      1  0.4692480000000  0.5158230000000  0.5145790000000 1.0
C      1  0.4631430000000  0.5526980000000  0.4333820000000 1.0
C      1  0.4585470000000  0.5498640000000  0.5599760000000 1.0
C      1  0.5524610000000  0.5494430000000  0.5039530000000 1.0
C      1  0.5275250000000  0.4390300000000  0.4514640000000 1.0
C      1  0.4491230000000  0.4387310000000  0.5062840000000 1.0
C      1  0.5349300000000  0.4390530000000  0.5478530000000 1.0
C      1  0.5410090000000  0.4606280000000  0.5648850000000 1.0
C      1  0.5352050000000  0.4609650000000  0.4344150000000 1.0
C      1  0.4285190000000  0.4576400000000  0.5029570000000 1.0
C      1  0.4220320000000  0.5512390000000  0.5221410000000 1.0
C      1  0.5549630000000  0.5521260000000  0.5520300000000 1.0
C      1  0.5145810000000  0.5563570000000  0.4209600000000 1.0
C      1  0.4462200000000  0.5393340000000  0.4513480000000 1.0
C      1  0.4826210000000  0.5378750000000  0.5660750000000 1.0
C      1  0.5590920000000  0.5388270000000  0.4787250000000 1.0
C      1  0.4480480000000  0.4512100000000  0.4640070000000 1.0
C      1  0.4971790000000  0.4539640000000  0.5684870000000 1.0
C      1  0.5627340000000  0.4565410000000  0.4696140000000 1.0
C      1  0.5330970000000  0.5410670000000  0.5654370000000 1.0
C      1  0.5369860000000  0.5444250000000  0.4344250000000 1.0
C      1  0.4229260000000  0.5392980000000  0.4963370000000 1.0
C      1  0.5079550000000  0.5848030000000  0.4880140000000 1.0
C      1  0.4801710000000  0.5845050000000  0.4956340000000 1.0
C      1  0.5007720000000  0.5823630000000  0.5147770000000 1.0
C      1  0.5627770000000  0.4672640000000  0.5229710000000 1.0
C      1  0.4873350000000  0.4749650000000  0.4327850000000 1.0
C      1  0.4514220000000  0.4674590000000  0.5443640000000 1.0
C      1  0.5141760000000  0.4728610000000  0.5141500000000 1.0
C      1  0.4971680000000  0.4711380000000  0.4602700000000 1.0
C      1  0.4841090000000  0.4730950000000  0.5135350000000 1.0
C      1  0.5338150000000  0.4297990000000  0.5006060000000 1.0
C      1  0.4888480000000  0.4273960000000  0.4809160000000 1.0
C      1  0.4912660000000  0.4286540000000  0.5292820000000 1.0
C      1  0.4943960000000  0.5183180000000  0.4372600000000 1.0
C      1  0.4450160000000  0.5141750000000  0.5358810000000 1.0
C      1  0.5601570000000  0.5143130000000  0.5292010000000 1.0
C      1  0.4608130000000  0.4330230000000  0.4813360000000 1.0
C      1  0.5073370000000  0.4342130000000  0.5510490000000 1.0
C      1  0.5443720000000  0.4362690000000  0.4745930000000 1.0
C      1  0.5041400000000  0.5388270000000  0.4870020000000 1.0
C      1  0.4783270000000  0.5399880000000  0.5009710000000 1.0
C      1  0.5240080000000  0.5407560000000  0.5104070000000 1.0
C      1  0.5612290000000  0.5013250000000  0.4488630000000 1.0
C      1  0.4264180000000  0.4966530000000  0.4705790000000 1.0
C      1  0.5115930000000  0.4990300000000  0.5792360000000 1.0
C      1  0.5110840000000  0.5607870000000  0.5299160000000 1.0
C      1  0.5166620000000  0.5626270000000  0.4735980000000 1.0
C      1  0.4630980000000  0.5623460000000  0.4920530000000 1.0
C      1  0.5577480000000  0.5026990000000  0.5558890000000 1.0
C      1  0.5181850000000  0.5045970000000  0.4238250000000 1.0
C      1  0.4246440000000  0.4999480000000  0.5209820000000 1.0
C      1  0.5606170000000  0.4925870000000  0.5032640000000 1.0
C      1  0.4705900000000  0.4985630000000  0.4417950000000 1.0
C      1  0.4634090000000  0.4940260000000  0.5533040000000 1.0
C      1  0.5049580000000  0.4240120000000  0.5042830000000 1.0
END
