TITL C-4152-6008-6 73.7187128277087 125000 -580.004603788358 0 0 85 (C1) n - 1
REM
REM in /rds/project/t2_vol4/rds-t2-cs072/BORA/CARBON/from-Arr/AIRSS/Generating-Clusters/GAP-ML-2020/Higher-Symm/SD-CG/HFTN-CG
REM
REM
REM
REM
REM
REM ./C.cell (b20cbc046b6831c77cfcea5457e17084)
REM AIRSS Version 0.9.1 bugfix July 2018 build 013d7b7c2542+ Fri, 06 Jul 2018 19:26:36 +0100
REM compiler GCC version 9.3.0
REM options -cpp -mtune=generic -march=x86-64 -g -O0
REM seed -1363212341 -1288784893 -1054818570 -1550117066 -547498147 -1028789189 1169072767 -1060258358 1217672271 658006828 -1424072509 1541151041 -1731467922 1041044517 1847619147 -487558254 -653548727 -668097574 -699728464 -223664243 -1668682082 148132836 1478504818 -887577811 1822356423 83763933 1626488617 -2137275484 1208502807 -43027896 -1924543470 795656550 -1353922159
REM
CELL 1.54180   50.00000   50.00000   50.00000   90.00000   90.00000   90.00000
LATT -1
SFAC C  
C      1  0.5642470000000  0.4821340000000  0.4602080000000 1.0
C      1  0.5578180000000  0.5318660000000  0.4804020000000 1.0
C      1  0.5729920000000  0.5039500000000  0.5471410000000 1.0
C      1  0.5657770000000  0.4598960000000  0.5128410000000 1.0
C      1  0.5575100000000  0.4827930000000  0.5338520000000 1.0
C      1  0.5522930000000  0.5440720000000  0.5302940000000 1.0
C      1  0.5499810000000  0.5114460000000  0.4610030000000 1.0
C      1  0.5546670000000  0.4649080000000  0.4837330000000 1.0
C      1  0.4800550000000  0.3982780000000  0.4852870000000 1.0
C      1  0.4727950000000  0.5159610000000  0.4009200000000 1.0
C      1  0.4756850000000  0.6012390000000  0.5182580000000 1.0
C      1  0.4812810000000  0.4850860000000  0.6010440000000 1.0
C      1  0.4784260000000  0.3974420000000  0.5106160000000 1.0
C      1  0.4784320000000  0.5100030000000  0.6033860000000 1.0
C      1  0.4787310000000  0.6046150000000  0.4932350000000 1.0
C      1  0.4720340000000  0.4908990000000  0.3970260000000 1.0
C      1  0.4528650000000  0.5120950000000  0.5641340000000 1.0
C      1  0.4528510000000  0.4373220000000  0.5146360000000 1.0
C      1  0.4553130000000  0.4845700000000  0.4401210000000 1.0
C      1  0.4586540000000  0.5620100000000  0.4889220000000 1.0
C      1  0.4506850000000  0.5129190000000  0.4411030000000 1.0
C      1  0.4538000000000  0.4373060000000  0.4853820000000 1.0
C      1  0.4546400000000  0.4831600000000  0.5619290000000 1.0
C      1  0.4523480000000  0.5601340000000  0.5171010000000 1.0
C      1  0.4693120000000  0.5305310000000  0.4250860000000 1.0
C      1  0.4692800000000  0.5780000000000  0.5337610000000 1.0
C      1  0.4752720000000  0.4697500000000  0.5773850000000 1.0
C      1  0.4747570000000  0.4235720000000  0.4704370000000 1.0
C      1  0.4707770000000  0.5269030000000  0.5814150000000 1.0
C      1  0.4751190000000  0.5816050000000  0.4761930000000 1.0
C      1  0.4712020000000  0.4730510000000  0.4197560000000 1.0
C      1  0.4720520000000  0.4204740000000  0.5280500000000 1.0
C      1  0.5630250000000  0.4337640000000  0.5203110000000 1.0
C      1  0.5653090000000  0.4716980000000  0.4355850000000 1.0
C      1  0.5628310000000  0.5586730000000  0.4753790000000 1.0
C      1  0.5583270000000  0.5268790000000  0.5527670000000 1.0
C      1  0.5370730000000  0.4413640000000  0.4739170000000 1.0
C      1  0.5378230000000  0.4752400000000  0.5574560000000 1.0
C      1  0.5357240000000  0.5676170000000  0.5304900000000 1.0
C      1  0.5384700000000  0.5223580000000  0.4340100000000 1.0
C      1  0.4391440000000  0.4633220000000  0.5157430000000 1.0
C      1  0.4562220000000  0.4819960000000  0.4707070000000 1.0
C      1  0.4637860000000  0.5344560000000  0.4822650000000 1.0
C      1  0.4390070000000  0.5133640000000  0.5386390000000 1.0
C      1  0.4405340000000  0.4629820000000  0.4861920000000 1.0
C      1  0.4403150000000  0.4835300000000  0.5363190000000 1.0
C      1  0.4375180000000  0.5343780000000  0.5193590000000 1.0
C      1  0.4465460000000  0.5122260000000  0.4703120000000 1.0
C      1  0.5213720000000  0.4991200000000  0.5610390000000 1.0
C      1  0.5197400000000  0.4370070000000  0.4964080000000 1.0
C      1  0.5383520000000  0.5024310000000  0.4157090000000 1.0
C      1  0.5233980000000  0.5679070000000  0.5041970000000 1.0
C      1  0.5406820000000  0.4751960000000  0.4204310000000 1.0
C      1  0.5348310000000  0.4291440000000  0.5193500000000 1.0
C      1  0.5337600000000  0.5237210000000  0.5684340000000 1.0
C      1  0.5376490000000  0.5708130000000  0.4792790000000 1.0
C      1  0.4915210000000  0.5702990000000  0.4548940000000 1.0
C      1  0.4883070000000  0.5476030000000  0.5729550000000 1.0
C      1  0.4912840000000  0.4307670000000  0.5457650000000 1.0
C      1  0.4909730000000  0.4540330000000  0.4283760000000 1.0
C      1  0.4879560000000  0.5692270000000  0.5535360000000 1.0
C      1  0.4897950000000  0.5479720000000  0.4358790000000 1.0
C      1  0.4921430000000  0.4358120000000  0.4512620000000 1.0
C      1  0.4932150000000  0.4522330000000  0.5651780000000 1.0
C      1  0.5207100000000  0.4556680000000  0.4269730000000 1.0
C      1  0.5205310000000  0.5667200000000  0.4563410000000 1.0
C      1  0.5177250000000  0.5465340000000  0.5716400000000 1.0
C      1  0.5202730000000  0.4300570000000  0.5430660000000 1.0
C      1  0.5228770000000  0.4524360000000  0.5613840000000 1.0
C      1  0.5178590000000  0.5687500000000  0.5523740000000 1.0
C      1  0.5195580000000  0.5441720000000  0.4379900000000 1.0
C      1  0.5218830000000  0.4398070000000  0.4511480000000 1.0
C      1  0.5038820000000  0.4653910000000  0.4991910000000 1.0
C      1  0.4978030000000  0.5035140000000  0.4721890000000 1.0
C      1  0.5140940000000  0.5396260000000  0.5048020000000 1.0
C      1  0.5084720000000  0.5001530000000  0.5324580000000 1.0
C      1  0.4950550000000  0.4760830000000  0.5239840000000 1.0
C      1  0.4960600000000  0.5226180000000  0.5194180000000 1.0
C      1  0.4900450000000  0.5237220000000  0.4913240000000 1.0
C      1  0.4855830000000  0.4789780000000  0.4786750000000 1.0
C      1  0.5314820000000  0.4819350000000  0.4930180000000 1.0
C      1  0.5251520000000  0.4975130000000  0.4704160000000 1.0
C      1  0.5384790000000  0.4990230000000  0.5155840000000 1.0
C      1  0.5439160000000  0.5273520000000  0.5072230000000 1.0
C      1  0.4359390000000  0.5251170000000  0.4929310000000 1.0
END
