TITL C-4151-6046-5 -835.571803329489 125000 -638.458907799469 0 0 89 (C1) n - 1
REM
REM in /rds/project/t2_vol4/rds-t2-cs072/BORA/CARBON/from-Arr/AIRSS/Generating-Clusters/GAP-ML-2020/Higher-Symm/SD-CG/HFTN-CG
REM
REM
REM
REM
REM
REM ./C.cell (b20cbc046b6831c77cfcea5457e17084)
REM AIRSS Version 0.9.1 bugfix July 2018 build 013d7b7c2542+ Fri, 06 Jul 2018 19:26:36 +0100
REM compiler GCC version 9.3.0
REM options -cpp -mtune=generic -march=x86-64 -g -O0
REM seed -1667385902 -2121126409 -1774742276 -361549640 -510312097 -1531351947 1470201723 -1622199301 1891994469 1815725909 -522197479 1975430547 -1039244273 1744792361 352579118 1509746032 602158759 -1239371969 -1555343307 1417261031 102493681 -481396660 -1419262947 904470583 -1747694618 368912582 1809037081 579856363 1753188221 -1435252839 1519109048 -1435205252 1993304435
REM
CELL 1.54180   50.00000   50.00000   50.00000   90.00000   90.00000   90.00000
LATT -1
SFAC C  
C      1  0.4729500000000  0.5183470000000  0.4228420000000 1.0
C      1  0.5222350000000  0.5207810000000  0.5797850000000 1.0
C      1  0.4712340000000  0.5126730000000  0.5786140000000 1.0
C      1  0.5249470000000  0.5134960000000  0.4207060000000 1.0
C      1  0.4102250000000  0.4732630000000  0.5130350000000 1.0
C      1  0.5701440000000  0.4699430000000  0.4916000000000 1.0
C      1  0.4244400000000  0.4650090000000  0.4912270000000 1.0
C      1  0.5753350000000  0.4939390000000  0.5062380000000 1.0
C      1  0.5453560000000  0.5064230000000  0.5715030000000 1.0
C      1  0.4498900000000  0.5025020000000  0.4311490000000 1.0
C      1  0.5441560000000  0.4936900000000  0.4292910000000 1.0
C      1  0.4520510000000  0.4940100000000  0.5678340000000 1.0
C      1  0.5128210000000  0.4575570000000  0.4214780000000 1.0
C      1  0.4862770000000  0.4571760000000  0.5660990000000 1.0
C      1  0.5299290000000  0.4633220000000  0.5894580000000 1.0
C      1  0.4739360000000  0.4616390000000  0.4189470000000 1.0
C      1  0.5172520000000  0.5170180000000  0.5265510000000 1.0
C      1  0.4985880000000  0.5085480000000  0.4623080000000 1.0
C      1  0.5173850000000  0.5111840000000  0.4818720000000 1.0
C      1  0.4941410000000  0.5122770000000  0.5387900000000 1.0
C      1  0.5284120000000  0.4912430000000  0.5221220000000 1.0
C      1  0.4793570000000  0.4967020000000  0.4773690000000 1.0
C      1  0.5203130000000  0.4854000000000  0.4958880000000 1.0
C      1  0.4750440000000  0.5001160000000  0.5239690000000 1.0
C      1  0.5367730000000  0.4660170000000  0.4316560000000 1.0
C      1  0.4594720000000  0.4661460000000  0.5628360000000 1.0
C      1  0.5418270000000  0.4777040000000  0.5690460000000 1.0
C      1  0.4522290000000  0.4739130000000  0.4288340000000 1.0
C      1  0.5605870000000  0.5390350000000  0.5387410000000 1.0
C      1  0.4380920000000  0.5299670000000  0.4712180000000 1.0
C      1  0.5658370000000  0.5224970000000  0.4643170000000 1.0
C      1  0.4346130000000  0.5261620000000  0.5313740000000 1.0
C      1  0.5480280000000  0.4719730000000  0.5405780000000 1.0
C      1  0.4434490000000  0.4598480000000  0.4516490000000 1.0
C      1  0.5476450000000  0.4540180000000  0.4551160000000 1.0
C      1  0.4432540000000  0.4554360000000  0.5422750000000 1.0
C      1  0.4855700000000  0.4333200000000  0.4607360000000 1.0
C      1  0.5184650000000  0.4342300000000  0.5290600000000 1.0
C      1  0.4785270000000  0.4274180000000  0.5249560000000 1.0
C      1  0.5084910000000  0.4279780000000  0.4795710000000 1.0
C      1  0.4701740000000  0.5580380000000  0.5270930000000 1.0
C      1  0.5375710000000  0.5626720000000  0.4716760000000 1.0
C      1  0.4734710000000  0.5614660000000  0.4799790000000 1.0
C      1  0.5316960000000  0.5713060000000  0.5259270000000 1.0
C      1  0.5484990000000  0.5432850000000  0.4539170000000 1.0
C      1  0.4530410000000  0.5435200000000  0.5443230000000 1.0
C      1  0.5394990000000  0.5561090000000  0.5485930000000 1.0
C      1  0.4590820000000  0.5481270000000  0.4595760000000 1.0
C      1  0.5281610000000  0.5382090000000  0.4333360000000 1.0
C      1  0.4693030000000  0.5391630000000  0.5681570000000 1.0
C      1  0.5200670000000  0.5472530000000  0.5690420000000 1.0
C      1  0.4768070000000  0.5426100000000  0.4368940000000 1.0
C      1  0.4338650000000  0.5061960000000  0.4552510000000 1.0
C      1  0.5635540000000  0.5141330000000  0.5510270000000 1.0
C      1  0.4322540000000  0.5016560000000  0.5475920000000 1.0
C      1  0.5635250000000  0.4980280000000  0.4499650000000 1.0
C      1  0.5120970000000  0.5707560000000  0.4604810000000 1.0
C      1  0.4885760000000  0.5726690000000  0.5424870000000 1.0
C      1  0.5077410000000  0.5868170000000  0.5259030000000 1.0
C      1  0.4928280000000  0.5827190000000  0.4783930000000 1.0
C      1  0.5366470000000  0.4380750000000  0.4766620000000 1.0
C      1  0.4527400000000  0.4374770000000  0.5210240000000 1.0
C      1  0.5436240000000  0.4465290000000  0.5262320000000 1.0
C      1  0.4577800000000  0.4405500000000  0.4684520000000 1.0
C      1  0.5666550000000  0.4731180000000  0.4640480000000 1.0
C      1  0.4246390000000  0.4763950000000  0.5356470000000 1.0
C      1  0.5684240000000  0.4919210000000  0.5336950000000 1.0
C      1  0.4286260000000  0.4788210000000  0.4660340000000 1.0
C      1  0.5047790000000  0.4742530000000  0.5810950000000 1.0
C      1  0.4956780000000  0.4775460000000  0.4094580000000 1.0
C      1  0.4905750000000  0.4438410000000  0.4347760000000 1.0
C      1  0.4950020000000  0.4380180000000  0.5463590000000 1.0
C      1  0.5720450000000  0.5200260000000  0.4929410000000 1.0
C      1  0.4393930000000  0.5244600000000  0.5006520000000 1.0
C      1  0.5042950000000  0.5533250000000  0.4395500000000 1.0
C      1  0.4932070000000  0.5557800000000  0.5649470000000 1.0
C      1  0.5527270000000  0.4473350000000  0.4994330000000 1.0
C      1  0.4445890000000  0.4436200000000  0.4938640000000 1.0
C      1  0.4985760000000  0.5033310000000  0.5839470000000 1.0
C      1  0.4976730000000  0.5051110000000  0.4133070000000 1.0
C      1  0.5617200000000  0.5401430000000  0.5099400000000 1.0
C      1  0.4675850000000  0.5163870000000  0.4998780000000 1.0
C      1  0.4811860000000  0.5437900000000  0.5023700000000 1.0
C      1  0.5384930000000  0.5559190000000  0.5008650000000 1.0
C      1  0.5019090000000  0.4248870000000  0.5070420000000 1.0
C      1  0.4925330000000  0.4755260000000  0.4931250000000 1.0
C      1  0.5128350000000  0.5331780000000  0.5021080000000 1.0
C      1  0.4800940000000  0.4743720000000  0.5170840000000 1.0
C      1  0.4994240000000  0.5953210000000  0.5012670000000 1.0
END
