TITL C-4177-8196-7 13.1471321095218 125000 -474.119092406331 0 0 68 (C1) n - 1
REM
REM in /rds/project/t2_vol4/rds-t2-cs072/BORA/CARBON/from-Arr/AIRSS/Generating-Clusters/GAP-ML-2020/Higher-Symm/SD-CG/HFTN-CG
REM
REM
REM
REM
REM
REM ./C.cell (b20cbc046b6831c77cfcea5457e17084)
REM AIRSS Version 0.9.1 bugfix July 2018 build 013d7b7c2542+ Fri, 06 Jul 2018 19:26:36 +0100
REM compiler GCC version 9.3.0
REM options -cpp -mtune=generic -march=x86-64 -g -O0
REM seed 1980953854 -271503352 1328030292 -435349457 470121192 -1957842118 590551700 1951941296 -603682315 1953333328 -653715466 856495218 574292365 1559306080 -1346164046 918623113 -1834165127 103251128 1645343502 1016486974 410884826 2138805741 300739707 -656898746 166854935 979256974 -62744370 -1576706146 1740525348 -832207761 -395641316 354374774 1174719342
REM
CELL 1.54180   50.00000   50.00000   50.00000   90.00000   90.00000   90.00000
LATT -1
SFAC C  
C      1  0.5204090000000  0.5806750000000  0.5275150000000 1.0
C      1  0.5713580000000  0.5329520000000  0.4709730000000 1.0
C      1  0.5011900000000  0.4952090000000  0.4311160000000 1.0
C      1  0.5293230000000  0.5301420000000  0.4433510000000 1.0
C      1  0.4667000000000  0.4755870000000  0.4872990000000 1.0
C      1  0.4740560000000  0.4351120000000  0.4561490000000 1.0
C      1  0.5097710000000  0.5045130000000  0.5057060000000 1.0
C      1  0.5600230000000  0.5110860000000  0.5041290000000 1.0
C      1  0.4981720000000  0.5478550000000  0.5509450000000 1.0
C      1  0.4756850000000  0.4374770000000  0.5154740000000 1.0
C      1  0.5377890000000  0.4597920000000  0.5010130000000 1.0
C      1  0.4767970000000  0.4542240000000  0.5599250000000 1.0
C      1  0.5014090000000  0.5374320000000  0.4462560000000 1.0
C      1  0.5223590000000  0.5066550000000  0.5645560000000 1.0
C      1  0.4938690000000  0.4676940000000  0.4276470000000 1.0
C      1  0.5672550000000  0.5516690000000  0.5210760000000 1.0
C      1  0.4997330000000  0.5441310000000  0.4750370000000 1.0
C      1  0.4833970000000  0.5169760000000  0.4380860000000 1.0
C      1  0.4682290000000  0.4569880000000  0.4371380000000 1.0
C      1  0.4879870000000  0.4585890000000  0.4957910000000 1.0
C      1  0.4558580000000  0.5564200000000  0.4897690000000 1.0
C      1  0.5440300000000  0.5400800000000  0.5364940000000 1.0
C      1  0.4416330000000  0.4757230000000  0.5003720000000 1.0
C      1  0.5277570000000  0.5496850000000  0.4868980000000 1.0
C      1  0.4568020000000  0.5498160000000  0.5183140000000 1.0
C      1  0.4739560000000  0.5036070000000  0.5598070000000 1.0
C      1  0.5243240000000  0.4541700000000  0.5632310000000 1.0
C      1  0.4847610000000  0.4793120000000  0.5695680000000 1.0
C      1  0.4968300000000  0.5219890000000  0.5617540000000 1.0
C      1  0.5240350000000  0.5770890000000  0.4994270000000 1.0
C      1  0.5455450000000  0.5134680000000  0.5492760000000 1.0
C      1  0.5546920000000  0.4688080000000  0.5253490000000 1.0
C      1  0.5287060000000  0.4363890000000  0.5192560000000 1.0
C      1  0.5405930000000  0.4625080000000  0.4713470000000 1.0
C      1  0.5326610000000  0.5262400000000  0.5083130000000 1.0
C      1  0.4447540000000  0.5346910000000  0.4755020000000 1.0
C      1  0.4978860000000  0.4416910000000  0.4721590000000 1.0
C      1  0.4950670000000  0.5853970000000  0.4960470000000 1.0
C      1  0.4361420000000  0.4930890000000  0.4547270000000 1.0
C      1  0.5459480000000  0.5418450000000  0.4637720000000 1.0
C      1  0.5589910000000  0.4958770000000  0.5299300000000 1.0
C      1  0.4607510000000  0.4537250000000  0.5369550000000 1.0
C      1  0.4262170000000  0.4932020000000  0.4839260000000 1.0
C      1  0.4567430000000  0.5155190000000  0.4557470000000 1.0
C      1  0.5009450000000  0.4385000000000  0.5557350000000 1.0
C      1  0.5100570000000  0.4754310000000  0.5081740000000 1.0
C      1  0.4931250000000  0.5157340000000  0.4874270000000 1.0
C      1  0.5213110000000  0.4471880000000  0.4572900000000 1.0
C      1  0.4739680000000  0.5003010000000  0.4762080000000 1.0
C      1  0.5471190000000  0.4878430000000  0.4589310000000 1.0
C      1  0.4464050000000  0.4763820000000  0.5288360000000 1.0
C      1  0.5025900000000  0.4295970000000  0.5290710000000 1.0
C      1  0.4915030000000  0.5847680000000  0.5236980000000 1.0
C      1  0.4596370000000  0.4203290000000  0.4980450000000 1.0
C      1  0.5757240000000  0.5369740000000  0.5008840000000 1.0
C      1  0.4439420000000  0.5240000000000  0.5218150000000 1.0
C      1  0.4453370000000  0.4723850000000  0.4401920000000 1.0
C      1  0.5139050000000  0.4800500000000  0.5709970000000 1.0
C      1  0.4323530000000  0.5178390000000  0.4956290000000 1.0
C      1  0.5157860000000  0.4497880000000  0.4301690000000 1.0
C      1  0.5240340000000  0.5590060000000  0.5450480000000 1.0
C      1  0.5625650000000  0.5057060000000  0.4747680000000 1.0
C      1  0.5289360000000  0.5019610000000  0.4400280000000 1.0
C      1  0.4782220000000  0.5613450000000  0.5341780000000 1.0
C      1  0.4518120000000  0.5024990000000  0.5402130000000 1.0
C      1  0.4807970000000  0.5666740000000  0.4808120000000 1.0
C      1  0.4569410000000  0.4211110000000  0.4726760000000 1.0
C      1  0.5427960000000  0.4494930000000  0.5420500000000 1.0
END
