TITL C-4174-6720-9 58.3153928564724 125000 -574.446442841681 0 0 83 (C1) n - 1
REM
REM in /rds/project/t2_vol4/rds-t2-cs072/BORA/CARBON/from-Arr/AIRSS/Generating-Clusters/GAP-ML-2020/Higher-Symm/SD-CG/HFTN-CG
REM
REM
REM
REM
REM
REM ./C.cell (b20cbc046b6831c77cfcea5457e17084)
REM AIRSS Version 0.9.1 bugfix July 2018 build 013d7b7c2542+ Fri, 06 Jul 2018 19:26:36 +0100
REM compiler GCC version 9.3.0
REM options -cpp -mtune=generic -march=x86-64 -g -O0
REM seed -923048560 -2096903002 -564155725 -1710712618 77927179 -861539440 -720301691 1513648790 1113556343 -933811635 -814970603 -164271086 -169463699 9144001 1341368575 -1970135670 -585257271 -1084831730 1512350843 1398210472 1266511674 1763586046 -1585230452 1944874393 -1045185320 1185629964 -1380446745 1480973323 838966801 -1159527803 1876457128 -1702743523 1592474868
REM
CELL 1.54180   50.00000   50.00000   50.00000   90.00000   90.00000   90.00000
LATT -1
SFAC C  
C      1  0.4713440000000  0.5151150000000  0.4852570000000 1.0
C      1  0.4846400000000  0.4669750000000  0.4988820000000 1.0
C      1  0.5113490000000  0.4565640000000  0.4981610000000 1.0
C      1  0.5304900000000  0.4795400000000  0.5016680000000 1.0
C      1  0.5157100000000  0.5038320000000  0.4882990000000 1.0
C      1  0.5110580000000  0.5322680000000  0.5043710000000 1.0
C      1  0.4776320000000  0.5339640000000  0.5052430000000 1.0
C      1  0.5545560000000  0.4453870000000  0.4695170000000 1.0
C      1  0.5766430000000  0.5061530000000  0.4621970000000 1.0
C      1  0.5388000000000  0.5577910000000  0.4677030000000 1.0
C      1  0.4753690000000  0.5750520000000  0.4759720000000 1.0
C      1  0.4273740000000  0.5305850000000  0.4697030000000 1.0
C      1  0.4450420000000  0.4679580000000  0.4659120000000 1.0
C      1  0.4947700000000  0.4244720000000  0.4652010000000 1.0
C      1  0.4598990000000  0.5618620000000  0.4991440000000 1.0
C      1  0.4194270000000  0.5085260000000  0.4882250000000 1.0
C      1  0.4579050000000  0.4507730000000  0.4888080000000 1.0
C      1  0.5144760000000  0.4262570000000  0.4899880000000 1.0
C      1  0.5603670000000  0.4664290000000  0.4935990000000 1.0
C      1  0.5785280000000  0.5288570000000  0.4806540000000 1.0
C      1  0.5228520000000  0.5609300000000  0.4944400000000 1.0
C      1  0.4523690000000  0.5773700000000  0.5220010000000 1.0
C      1  0.4130500000000  0.5091060000000  0.5148970000000 1.0
C      1  0.4411560000000  0.4391130000000  0.5104710000000 1.0
C      1  0.5133830000000  0.4086780000000  0.5129420000000 1.0
C      1  0.5750600000000  0.4544970000000  0.5158040000000 1.0
C      1  0.5848580000000  0.5301800000000  0.5072730000000 1.0
C      1  0.5306960000000  0.5794270000000  0.5157550000000 1.0
C      1  0.5279440000000  0.4924660000000  0.5301650000000 1.0
C      1  0.5190880000000  0.5212540000000  0.5314980000000 1.0
C      1  0.4939270000000  0.5205020000000  0.5494150000000 1.0
C      1  0.4703910000000  0.5195410000000  0.5307450000000 1.0
C      1  0.4629850000000  0.4908310000000  0.5307320000000 1.0
C      1  0.4836150000000  0.4705180000000  0.5276980000000 1.0
C      1  0.5060690000000  0.4781330000000  0.5455900000000 1.0
C      1  0.4647050000000  0.4585000000000  0.4471190000000 1.0
C      1  0.5146760000000  0.4338420000000  0.4471800000000 1.0
C      1  0.5586610000000  0.4652760000000  0.4497830000000 1.0
C      1  0.5565970000000  0.5182500000000  0.4450020000000 1.0
C      1  0.5152100000000  0.5605940000000  0.4518730000000 1.0
C      1  0.4596620000000  0.5613300000000  0.4559230000000 1.0
C      1  0.4374330000000  0.5118770000000  0.4495850000000 1.0
C      1  0.5710970000000  0.4486430000000  0.5403010000000 1.0
C      1  0.5793420000000  0.5245720000000  0.5313160000000 1.0
C      1  0.5275080000000  0.5801680000000  0.5408170000000 1.0
C      1  0.4571790000000  0.5790280000000  0.5469800000000 1.0
C      1  0.4191970000000  0.5098480000000  0.5395670000000 1.0
C      1  0.4420970000000  0.4451670000000  0.5353020000000 1.0
C      1  0.5097070000000  0.4105960000000  0.5379550000000 1.0
C      1  0.4535000000000  0.4566920000000  0.5581670000000 1.0
C      1  0.5031090000000  0.4329050000000  0.5535200000000 1.0
C      1  0.5497370000000  0.4613940000000  0.5537990000000 1.0
C      1  0.5608540000000  0.5177980000000  0.5511970000000 1.0
C      1  0.5210360000000  0.5584380000000  0.5571830000000 1.0
C      1  0.4669550000000  0.5562550000000  0.5602090000000 1.0
C      1  0.4372260000000  0.5096250000000  0.5605630000000 1.0
C      1  0.4704120000000  0.4358340000000  0.4643730000000 1.0
C      1  0.5349650000000  0.4275520000000  0.4670540000000 1.0
C      1  0.5738540000000  0.4802970000000  0.4692240000000 1.0
C      1  0.5600190000000  0.5420880000000  0.4618970000000 1.0
C      1  0.5018130000000  0.5725700000000  0.4741800000000 1.0
C      1  0.4398970000000  0.5539760000000  0.4752730000000 1.0
C      1  0.4286120000000  0.4898400000000  0.4668090000000 1.0
C      1  0.5212750000000  0.4552030000000  0.5553330000000 1.0
C      1  0.5491310000000  0.4908680000000  0.5497330000000 1.0
C      1  0.5367500000000  0.5340200000000  0.5506320000000 1.0
C      1  0.4943730000000  0.5476970000000  0.5602910000000 1.0
C      1  0.4538140000000  0.5310620000000  0.5526910000000 1.0
C      1  0.4581300000000  0.4871970000000  0.5596700000000 1.0
C      1  0.4784440000000  0.4484130000000  0.5474220000000 1.0
C      1  0.5345530000000  0.5045430000000  0.4335460000000 1.0
C      1  0.5002580000000  0.5419950000000  0.4366390000000 1.0
C      1  0.4719260000000  0.5422710000000  0.4396260000000 1.0
C      1  0.4617240000000  0.5160140000000  0.4361200000000 1.0
C      1  0.4863060000000  0.4711580000000  0.4329330000000 1.0
C      1  0.5125450000000  0.4599840000000  0.4357020000000 1.0
C      1  0.5360510000000  0.4762060000000  0.4362400000000 1.0
C      1  0.5083410000000  0.5156980000000  0.4293930000000 1.0
C      1  0.4838550000000  0.4935080000000  0.6146150000000 1.0
C      1  0.4886200000000  0.4942040000000  0.4854670000000 1.0
C      1  0.4896060000000  0.4953760000000  0.5652950000000 1.0
C      1  0.4842230000000  0.4992150000000  0.4289970000000 1.0
C      1  0.4973040000000  0.4961780000000  0.5934320000000 1.0
END
