TITL C-4178-3890-2 -0.0294482897821065 125000 -1252.92506734972 0 0 185 (C1) n - 1
REM
REM in /rds/project/t2_vol4/rds-t2-cs072/BORA/CARBON/from-Arr/AIRSS/Generating-Clusters/GAP-ML-2020/Higher-Symm/SD-CG/HFTN-CG/C160-200
REM
REM
REM
REM
REM
REM ./C.cell (6b4489405718ea1b717e0baf1da4c2d9)
REM AIRSS Version 0.9.1 bugfix July 2018 build 013d7b7c2542+ Fri, 06 Jul 2018 19:26:36 +0100
REM compiler GCC version 9.3.0
REM options -cpp -mtune=generic -march=x86-64 -g -O0
REM seed 2110088390 984198696 680301293 -1265272549 -1142259166 -84744219 -870293481 -943054696 -1133033561 -1559127679 -2020861732 522581512 1780853322 -1656493121 -1417298320 1161242420 -45914341 939894619 -486420120 2006835824 1058611706 -982009679 -910892055 -627181718 -2871453 -523448807 -371794762 -2067688099 1573969531 -1090988567 -1532447510 -1336808419 -782051852
REM
CELL 1.54180   50.00000   50.00000   50.00000   90.00000   90.00000   90.00000
LATT -1
SFAC C  
C      1  0.5327030000000  0.4813770000000  0.4606460000000 1.0
C      1  0.5377190000000  0.4578640000000  0.4818620000000 1.0
C      1  0.5395380000000  0.4752860000000  0.5361260000000 1.0
C      1  0.5328550000000  0.5047200000000  0.5417370000000 1.0
C      1  0.5247610000000  0.5274860000000  0.5224610000000 1.0
C      1  0.5323110000000  0.5360610000000  0.4924810000000 1.0
C      1  0.5296990000000  0.5126510000000  0.4683340000000 1.0
C      1  0.4897320000000  0.4967020000000  0.5355540000000 1.0
C      1  0.4953580000000  0.5235790000000  0.5221370000000 1.0
C      1  0.4881120000000  0.5296700000000  0.4934330000000 1.0
C      1  0.4929430000000  0.5152410000000  0.4667270000000 1.0
C      1  0.4860570000000  0.4855960000000  0.4645410000000 1.0
C      1  0.4917870000000  0.4633780000000  0.4832630000000 1.0
C      1  0.4949600000000  0.4696990000000  0.5279130000000 1.0
C      1  0.6187250000000  0.5302780000000  0.5123170000000 1.0
C      1  0.6200010000000  0.5259890000000  0.4848940000000 1.0
C      1  0.6206740000000  0.5019320000000  0.4708930000000 1.0
C      1  0.6195250000000  0.4763590000000  0.4820440000000 1.0
C      1  0.6176830000000  0.4682470000000  0.5085110000000 1.0
C      1  0.6158310000000  0.4840580000000  0.5314000000000 1.0
C      1  0.6174010000000  0.5117650000000  0.5329790000000 1.0
C      1  0.5665370000000  0.5106940000000  0.5848170000000 1.0
C      1  0.5660830000000  0.5716190000000  0.5423080000000 1.0
C      1  0.5687110000000  0.5729810000000  0.4792150000000 1.0
C      1  0.5690900000000  0.5267430000000  0.4228120000000 1.0
C      1  0.5717660000000  0.4629310000000  0.4327050000000 1.0
C      1  0.5655940000000  0.4183600000000  0.4902860000000 1.0
C      1  0.5663220000000  0.4407280000000  0.5599580000000 1.0
C      1  0.5330830000000  0.5423480000000  0.6036550000000 1.0
C      1  0.5316620000000  0.6040210000000  0.5271190000000 1.0
C      1  0.5354260000000  0.5901540000000  0.4497980000000 1.0
C      1  0.5365980000000  0.5050720000000  0.3916800000000 1.0
C      1  0.5371260000000  0.4324500000000  0.4192460000000 1.0
C      1  0.5319940000000  0.3906240000000  0.5146350000000 1.0
C      1  0.5338160000000  0.4444820000000  0.5966690000000 1.0
C      1  0.4295830000000  0.5737270000000  0.4584310000000 1.0
C      1  0.4296350000000  0.5208580000000  0.4109560000000 1.0
C      1  0.4265690000000  0.4486280000000  0.4282460000000 1.0
C      1  0.4280040000000  0.4194510000000  0.5021120000000 1.0
C      1  0.4294400000000  0.4434280000000  0.5731280000000 1.0
C      1  0.4299150000000  0.5191690000000  0.5856850000000 1.0
C      1  0.4254810000000  0.5719170000000  0.5333890000000 1.0
C      1  0.4339620000000  0.5750200000000  0.4873950000000 1.0
C      1  0.4320160000000  0.5470740000000  0.4219190000000 1.0
C      1  0.4324790000000  0.4761800000000  0.4188670000000 1.0
C      1  0.4299000000000  0.4249900000000  0.4738780000000 1.0
C      1  0.4306490000000  0.4245920000000  0.5506990000000 1.0
C      1  0.4373430000000  0.4908080000000  0.5833490000000 1.0
C      1  0.4272700000000  0.5582620000000  0.5589710000000 1.0
C      1  0.5101700000000  0.5034450000000  0.5611460000000 1.0
C      1  0.5161630000000  0.5524700000000  0.5355090000000 1.0
C      1  0.5073900000000  0.5526120000000  0.4845290000000 1.0
C      1  0.5139270000000  0.5218760000000  0.4449900000000 1.0
C      1  0.5069620000000  0.4726690000000  0.4461690000000 1.0
C      1  0.5119550000000  0.4404740000000  0.4837460000000 1.0
C      1  0.5150630000000  0.4562040000000  0.5453660000000 1.0
C      1  0.4902880000000  0.4377180000000  0.3928980000000 1.0
C      1  0.4914300000000  0.3844870000000  0.4818170000000 1.0
C      1  0.4962850000000  0.4113270000000  0.5812620000000 1.0
C      1  0.4954370000000  0.5129720000000  0.6217360000000 1.0
C      1  0.4914030000000  0.5988150000000  0.5634340000000 1.0
C      1  0.4929280000000  0.6132900000000  0.4640600000000 1.0
C      1  0.4981780000000  0.5409490000000  0.3874720000000 1.0
C      1  0.5124590000000  0.4263850000000  0.5367560000000 1.0
C      1  0.5092660000000  0.4828120000000  0.5845940000000 1.0
C      1  0.5103360000000  0.5534340000000  0.5646290000000 1.0
C      1  0.5056120000000  0.5803600000000  0.4974280000000 1.0
C      1  0.5125610000000  0.5509400000000  0.4350870000000 1.0
C      1  0.5078480000000  0.4807370000000  0.4173780000000 1.0
C      1  0.5080540000000  0.4245380000000  0.4576480000000 1.0
C      1  0.4476110000000  0.5166400000000  0.4710780000000 1.0
C      1  0.4556700000000  0.4877270000000  0.4669140000000 1.0
C      1  0.4447130000000  0.4689550000000  0.4871020000000 1.0
C      1  0.4460720000000  0.4726920000000  0.5184810000000 1.0
C      1  0.4571940000000  0.4963570000000  0.5327530000000 1.0
C      1  0.4517670000000  0.5220820000000  0.5232180000000 1.0
C      1  0.4581430000000  0.5286730000000  0.4955550000000 1.0
C      1  0.5630710000000  0.4258400000000  0.5360390000000 1.0
C      1  0.5595710000000  0.4836800000000  0.5807290000000 1.0
C      1  0.5615920000000  0.5524040000000  0.5628700000000 1.0
C      1  0.5503860000000  0.5623370000000  0.4991270000000 1.0
C      1  0.5650990000000  0.5508510000000  0.4381950000000 1.0
C      1  0.5526270000000  0.4847880000000  0.4374750000000 1.0
C      1  0.5578700000000  0.4342270000000  0.4667360000000 1.0
C      1  0.4110980000000  0.4985380000000  0.4548930000000 1.0
C      1  0.4188840000000  0.4714490000000  0.4683460000000 1.0
C      1  0.4184900000000  0.4637340000000  0.5273430000000 1.0
C      1  0.4076950000000  0.4813580000000  0.5482990000000 1.0
C      1  0.4035400000000  0.5106300000000  0.5439260000000 1.0
C      1  0.4046050000000  0.5365220000000  0.4972860000000 1.0
C      1  0.4172030000000  0.5253510000000  0.4685640000000 1.0
C      1  0.4603910000000  0.4191400000000  0.4738250000000 1.0
C      1  0.4580210000000  0.4161090000000  0.5576890000000 1.0
C      1  0.4603970000000  0.4948300000000  0.6021760000000 1.0
C      1  0.4532340000000  0.5715800000000  0.5656890000000 1.0
C      1  0.4564020000000  0.5952810000000  0.4826270000000 1.0
C      1  0.4602730000000  0.5504830000000  0.4115370000000 1.0
C      1  0.4521080000000  0.4678480000000  0.3984120000000 1.0
C      1  0.4712990000000  0.5093600000000  0.4268710000000 1.0
C      1  0.4714540000000  0.4554290000000  0.4294270000000 1.0
C      1  0.4724290000000  0.4316780000000  0.5115000000000 1.0
C      1  0.4709520000000  0.4602820000000  0.5622280000000 1.0
C      1  0.4713210000000  0.5225980000000  0.5689720000000 1.0
C      1  0.4703810000000  0.5651960000000  0.5229160000000 1.0
C      1  0.4710800000000  0.5594010000000  0.4617070000000 1.0
C      1  0.4852190000000  0.4052300000000  0.4627810000000 1.0
C      1  0.4873080000000  0.4108750000000  0.5532360000000 1.0
C      1  0.4878110000000  0.4891080000000  0.6065870000000 1.0
C      1  0.4830010000000  0.5725660000000  0.5730210000000 1.0
C      1  0.4835120000000  0.6010540000000  0.4890350000000 1.0
C      1  0.4893190000000  0.5560620000000  0.4114630000000 1.0
C      1  0.4823210000000  0.4661320000000  0.4022000000000 1.0
C      1  0.4590400000000  0.5216490000000  0.4029340000000 1.0
C      1  0.4503890000000  0.4392790000000  0.4138940000000 1.0
C      1  0.4565890000000  0.4074420000000  0.5033520000000 1.0
C      1  0.4582850000000  0.4382830000000  0.5786530000000 1.0
C      1  0.4578730000000  0.5250090000000  0.5963760000000 1.0
C      1  0.4541810000000  0.5844690000000  0.5383560000000 1.0
C      1  0.4572130000000  0.5855730000000  0.4537900000000 1.0
C      1  0.4979900000000  0.4444530000000  0.4378630000000 1.0
C      1  0.5010910000000  0.4240780000000  0.5090260000000 1.0
C      1  0.4999190000000  0.4589450000000  0.5710920000000 1.0
C      1  0.4999000000000  0.5277810000000  0.5746070000000 1.0
C      1  0.4987720000000  0.5735110000000  0.5239960000000 1.0
C      1  0.4996660000000  0.5642010000000  0.4579290000000 1.0
C      1  0.5006590000000  0.5075930000000  0.4215310000000 1.0
C      1  0.4782340000000  0.5347320000000  0.6160440000000 1.0
C      1  0.4746480000000  0.6073850000000  0.5432050000000 1.0
C      1  0.4780560000000  0.6038010000000  0.4430620000000 1.0
C      1  0.4808990000000  0.5199870000000  0.3823690000000 1.0
C      1  0.4650310000000  0.4244140000000  0.3951580000000 1.0
C      1  0.4752560000000  0.3845190000000  0.5042360000000 1.0
C      1  0.4792890000000  0.4263270000000  0.5967740000000 1.0
C      1  0.5789850000000  0.5523680000000  0.4635080000000 1.0
C      1  0.5746350000000  0.5032340000000  0.4395060000000 1.0
C      1  0.5795780000000  0.4521520000000  0.4571520000000 1.0
C      1  0.5757880000000  0.4348160000000  0.5120010000000 1.0
C      1  0.5658400000000  0.4703840000000  0.5536430000000 1.0
C      1  0.5743780000000  0.5266300000000  0.5615340000000 1.0
C      1  0.5725190000000  0.5587550000000  0.5168280000000 1.0
C      1  0.5064750000000  0.5928960000000  0.4497340000000 1.0
C      1  0.5085220000000  0.5149750000000  0.3931610000000 1.0
C      1  0.5096600000000  0.4333000000000  0.4125610000000 1.0
C      1  0.5042090000000  0.3943940000000  0.5054010000000 1.0
C      1  0.5057880000000  0.4373410000000  0.5905820000000 1.0
C      1  0.5050860000000  0.5332680000000  0.6041190000000 1.0
C      1  0.5036860000000  0.5995320000000  0.5375560000000 1.0
C      1  0.5371620000000  0.4811550000000  0.4098200000000 1.0
C      1  0.5374280000000  0.4238330000000  0.4466900000000 1.0
C      1  0.5381780000000  0.4113080000000  0.5333680000000 1.0
C      1  0.5365690000000  0.4727370000000  0.5937160000000 1.0
C      1  0.5373450000000  0.5549520000000  0.5785870000000 1.0
C      1  0.5333960000000  0.5903250000000  0.5000190000000 1.0
C      1  0.5404340000000  0.5656370000000  0.4360590000000 1.0
C      1  0.4599730000000  0.5580260000000  0.4922080000000 1.0
C      1  0.4683550000000  0.5279750000000  0.4524960000000 1.0
C      1  0.4595090000000  0.4821990000000  0.4375130000000 1.0
C      1  0.4663270000000  0.4473880000000  0.4863470000000 1.0
C      1  0.4690520000000  0.4549440000000  0.5310220000000 1.0
C      1  0.4609350000000  0.4921460000000  0.5619600000000 1.0
C      1  0.4713190000000  0.5376880000000  0.5373930000000 1.0
C      1  0.5887210000000  0.4723030000000  0.4770450000000 1.0
C      1  0.5867960000000  0.4625870000000  0.5076380000000 1.0
C      1  0.5850550000000  0.4824350000000  0.5333720000000 1.0
C      1  0.5860200000000  0.5143200000000  0.5361240000000 1.0
C      1  0.5867220000000  0.5338800000000  0.5121270000000 1.0
C      1  0.5885270000000  0.5288210000000  0.4805140000000 1.0
C      1  0.5888210000000  0.5020610000000  0.4653460000000 1.0
C      1  0.5529690000000  0.4551220000000  0.4127250000000 1.0
C      1  0.5536990000000  0.3949480000000  0.4991960000000 1.0
C      1  0.5548940000000  0.4331550000000  0.5834790000000 1.0
C      1  0.5538240000000  0.5250570000000  0.6045530000000 1.0
C      1  0.5527540000000  0.5964030000000  0.5421330000000 1.0
C      1  0.5491860000000  0.5935420000000  0.4741470000000 1.0
C      1  0.5574800000000  0.5215590000000  0.3977600000000 1.0
C      1  0.4199080000000  0.4335230000000  0.5257730000000 1.0
C      1  0.4196850000000  0.4700800000000  0.5730270000000 1.0
C      1  0.4167290000000  0.5318400000000  0.5652130000000 1.0
C      1  0.4164540000000  0.5640350000000  0.5074660000000 1.0
C      1  0.4204450000000  0.5504810000000  0.4474060000000 1.0
C      1  0.4177050000000  0.4997550000000  0.4257010000000 1.0
C      1  0.4195740000000  0.4452940000000  0.4553290000000 1.0
C      1  0.5066060000000  0.4769370000000  0.5041070000000 1.0
C      1  0.3974730000000  0.5214170000000  0.5189590000000 1.0
C      1  0.5356820000000  0.4734770000000  0.5066470000000 1.0
END
