TITL C-4163-3853-4 0.0218404005513641 125000 -1257.22800627146 0 0 180 (Ci) n - 1
REM
REM in /rds/project/t2_vol4/rds-t2-cs072/BORA/CARBON/from-Arr/AIRSS/Generating-Clusters/GAP-ML-2020/Higher-Symm/SD-CG/HFTN-CG/C160-200
REM
REM
REM
REM
REM
REM ./C.cell (6b4489405718ea1b717e0baf1da4c2d9)
REM AIRSS Version 0.9.1 bugfix July 2018 build 013d7b7c2542+ Fri, 06 Jul 2018 19:26:36 +0100
REM compiler GCC version 9.3.0
REM options -cpp -mtune=generic -march=x86-64 -g -O0
REM seed 1955711433 -1225983257 -1085855541 -760379104 750517596 -977584122 1663698800 -824962872 -126159326 412849300 2138839450 -936403687 -1860922219 971798639 1403736938 536078383 989872256 777671024 795594724 -1472467054 1818508735 -1111738199 2056587120 -1313214318 -8394554 1244518387 339777438 1764652375 -2016570265 320153250 396493979 790296021 -1756798038
REM
CELL 1.54180   50.00000   50.00000   50.00000   90.00000   90.00000   90.00000
LATT -1
SFAC C  
C      1  0.5762180000000  0.4069080000000  0.4866580000000 1.0
C      1  0.4237820000000  0.5930920000000  0.5133420000000 1.0
C      1  0.3954140000000  0.4980260000000  0.5586680000000 1.0
C      1  0.6045860000000  0.5019740000000  0.4413320000000 1.0
C      1  0.5339990000000  0.4509710000000  0.4929790000000 1.0
C      1  0.4660010000000  0.5490290000000  0.5070210000000 1.0
C      1  0.5969550000000  0.5323860000000  0.5191730000000 1.0
C      1  0.4030450000000  0.4676140000000  0.4808270000000 1.0
C      1  0.5140110000000  0.4270940000000  0.5694790000000 1.0
C      1  0.4859890000000  0.5729060000000  0.4305210000000 1.0
C      1  0.5737670000000  0.5070070000000  0.4754130000000 1.0
C      1  0.4262330000000  0.4929930000000  0.5245870000000 1.0
C      1  0.5451350000000  0.4670690000000  0.5861730000000 1.0
C      1  0.4548650000000  0.5329310000000  0.4138270000000 1.0
C      1  0.3974020000000  0.5310070000000  0.5211130000000 1.0
C      1  0.6025980000000  0.4689930000000  0.4788870000000 1.0
C      1  0.4871110000000  0.5326390000000  0.4920640000000 1.0
C      1  0.5128890000000  0.4673610000000  0.5079360000000 1.0
C      1  0.4095870000000  0.5768300000000  0.4926900000000 1.0
C      1  0.5904130000000  0.4231700000000  0.5073100000000 1.0
C      1  0.5183360000000  0.4343680000000  0.4754020000000 1.0
C      1  0.4816640000000  0.5656320000000  0.5245980000000 1.0
C      1  0.5226600000000  0.5611560000000  0.5115290000000 1.0
C      1  0.4773400000000  0.4388440000000  0.4884710000000 1.0
C      1  0.5483570000000  0.4217780000000  0.4408310000000 1.0
C      1  0.4516430000000  0.5782220000000  0.5591690000000 1.0
C      1  0.4254340000000  0.4355200000000  0.5192080000000 1.0
C      1  0.5745660000000  0.5644800000000  0.4807920000000 1.0
C      1  0.5067340000000  0.3943350000000  0.4598990000000 1.0
C      1  0.4932660000000  0.6056650000000  0.5401010000000 1.0
C      1  0.5615390000000  0.5226990000000  0.4948270000000 1.0
C      1  0.4384610000000  0.4773010000000  0.5051730000000 1.0
C      1  0.5085870000000  0.6063580000000  0.5154080000000 1.0
C      1  0.4914130000000  0.3936420000000  0.4845920000000 1.0
C      1  0.5089160000000  0.4209110000000  0.4160150000000 1.0
C      1  0.4910840000000  0.5790890000000  0.5839850000000 1.0
C      1  0.5223280000000  0.5718280000000  0.5592890000000 1.0
C      1  0.4776720000000  0.4281720000000  0.4407110000000 1.0
C      1  0.3854470000000  0.5045220000000  0.5107210000000 1.0
C      1  0.6145530000000  0.4954780000000  0.4892790000000 1.0
C      1  0.5048710000000  0.5948500000000  0.5635980000000 1.0
C      1  0.4951290000000  0.4051500000000  0.4364020000000 1.0
C      1  0.4266270000000  0.5211360000000  0.5136980000000 1.0
C      1  0.5733730000000  0.4788640000000  0.4863020000000 1.0
C      1  0.5369880000000  0.5165790000000  0.5350750000000 1.0
C      1  0.4630120000000  0.4834210000000  0.4649250000000 1.0
C      1  0.4202440000000  0.4581670000000  0.5797480000000 1.0
C      1  0.5797560000000  0.5418330000000  0.4202520000000 1.0
C      1  0.4630530000000  0.4385900000000  0.5543590000000 1.0
C      1  0.5369470000000  0.5614100000000  0.4456410000000 1.0
C      1  0.4852220000000  0.5152500000000  0.5871430000000 1.0
C      1  0.5147780000000  0.4847500000000  0.4128570000000 1.0
C      1  0.5342770000000  0.3953330000000  0.5110950000000 1.0
C      1  0.4657230000000  0.6046670000000  0.4889050000000 1.0
C      1  0.5546320000000  0.5758880000000  0.4666170000000 1.0
C      1  0.4453680000000  0.4241120000000  0.5333830000000 1.0
C      1  0.4714570000000  0.4646200000000  0.5380430000000 1.0
C      1  0.5285430000000  0.5353800000000  0.4619570000000 1.0
C      1  0.4882430000000  0.4425160000000  0.4151970000000 1.0
C      1  0.5117570000000  0.5574840000000  0.5848030000000 1.0
C      1  0.4155450000000  0.5088470000000  0.4417590000000 1.0
C      1  0.5844550000000  0.4911530000000  0.5582410000000 1.0
C      1  0.5218990000000  0.4493580000000  0.5863550000000 1.0
C      1  0.4781010000000  0.5506420000000  0.4136450000000 1.0
C      1  0.5129220000000  0.4952960000000  0.4948890000000 1.0
C      1  0.4870780000000  0.5047040000000  0.5051110000000 1.0
C      1  0.5519150000000  0.4639960000000  0.4719780000000 1.0
C      1  0.4480850000000  0.5360040000000  0.5280220000000 1.0
C      1  0.5503960000000  0.5128680000000  0.4594660000000 1.0
C      1  0.4496040000000  0.4871320000000  0.5405340000000 1.0
C      1  0.5340320000000  0.5179950000000  0.5048810000000 1.0
C      1  0.4659680000000  0.4820050000000  0.4951190000000 1.0
C      1  0.5619860000000  0.4715390000000  0.4145390000000 1.0
C      1  0.4380140000000  0.5284610000000  0.5854610000000 1.0
C      1  0.5315920000000  0.4888940000000  0.5995610000000 1.0
C      1  0.4684080000000  0.5111060000000  0.4004390000000 1.0
C      1  0.5332100000000  0.4085050000000  0.4635980000000 1.0
C      1  0.4667900000000  0.5914950000000  0.5364020000000 1.0
C      1  0.6069650000000  0.5053820000000  0.5145400000000 1.0
C      1  0.3930350000000  0.4946180000000  0.4854600000000 1.0
C      1  0.4898640000000  0.4737640000000  0.4548230000000 1.0
C      1  0.5101360000000  0.5262360000000  0.5451770000000 1.0
C      1  0.4653490000000  0.4094590000000  0.4891820000000 1.0
C      1  0.5346510000000  0.5905410000000  0.5108180000000 1.0
C      1  0.4621390000000  0.5144360000000  0.5438270000000 1.0
C      1  0.5378610000000  0.4855640000000  0.4561730000000 1.0
C      1  0.4368360000000  0.4982130000000  0.5880940000000 1.0
C      1  0.5631640000000  0.5017870000000  0.4119060000000 1.0
C      1  0.4997510000000  0.5410380000000  0.6255600000000 1.0
C      1  0.5002490000000  0.4589620000000  0.3744400000000 1.0
C      1  0.4809630000000  0.5273030000000  0.4645420000000 1.0
C      1  0.5190370000000  0.4726970000000  0.5354580000000 1.0
C      1  0.5770490000000  0.5710060000000  0.5409860000000 1.0
C      1  0.4229510000000  0.4289940000000  0.4590140000000 1.0
C      1  0.4494110000000  0.4317930000000  0.4465600000000 1.0
C      1  0.5505890000000  0.5682070000000  0.5534400000000 1.0
C      1  0.4576170000000  0.4775920000000  0.5876020000000 1.0
C      1  0.5423830000000  0.5224080000000  0.4123980000000 1.0
C      1  0.4605920000000  0.5769510000000  0.4436720000000 1.0
C      1  0.5394080000000  0.4230490000000  0.5563280000000 1.0
C      1  0.6030910000000  0.4403460000000  0.4864360000000 1.0
C      1  0.3969090000000  0.5596540000000  0.5135640000000 1.0
C      1  0.5616160000000  0.4708430000000  0.5619960000000 1.0
C      1  0.4383840000000  0.5291570000000  0.4380040000000 1.0
C      1  0.4526060000000  0.5925910000000  0.4669890000000 1.0
C      1  0.5473940000000  0.4074090000000  0.5330110000000 1.0
C      1  0.3992570000000  0.5255600000000  0.5527120000000 1.0
C      1  0.6007430000000  0.4744400000000  0.4472880000000 1.0
C      1  0.5816100000000  0.4598660000000  0.4333750000000 1.0
C      1  0.4183900000000  0.5401340000000  0.5666250000000 1.0
C      1  0.4871330000000  0.4039050000000  0.5310650000000 1.0
C      1  0.5128670000000  0.5960950000000  0.4689350000000 1.0
C      1  0.5792960000000  0.5448380000000  0.4979990000000 1.0
C      1  0.4207040000000  0.4551620000000  0.5020010000000 1.0
C      1  0.4297730000000  0.5733340000000  0.4715820000000 1.0
C      1  0.5702270000000  0.4266660000000  0.5284180000000 1.0
C      1  0.5142370000000  0.5146920000000  0.4173870000000 1.0
C      1  0.4857630000000  0.4853080000000  0.5826130000000 1.0
C      1  0.4128480000000  0.5746890000000  0.5323540000000 1.0
C      1  0.5871520000000  0.4253110000000  0.4676460000000 1.0
C      1  0.5914510000000  0.4876610000000  0.5308970000000 1.0
C      1  0.4085490000000  0.5123390000000  0.4691030000000 1.0
C      1  0.4919080000000  0.5277270000000  0.4025170000000 1.0
C      1  0.5080920000000  0.4722730000000  0.5974830000000 1.0
C      1  0.5447950000000  0.4865390000000  0.5372810000000 1.0
C      1  0.4552050000000  0.5134610000000  0.4627190000000 1.0
C      1  0.5371620000000  0.4770570000000  0.4287390000000 1.0
C      1  0.4628380000000  0.5229430000000  0.5712610000000 1.0
C      1  0.5108220000000  0.4921540000000  0.4646640000000 1.0
C      1  0.4891780000000  0.5078460000000  0.5353360000000 1.0
C      1  0.4417240000000  0.5512810000000  0.4858930000000 1.0
C      1  0.5582760000000  0.4487190000000  0.5141070000000 1.0
C      1  0.4164930000000  0.4821750000000  0.4319610000000 1.0
C      1  0.5835070000000  0.5178250000000  0.5680390000000 1.0
C      1  0.4633900000000  0.5725510000000  0.5840110000000 1.0
C      1  0.5366100000000  0.4274490000000  0.4159890000000 1.0
C      1  0.5575130000000  0.5872550000000  0.5310130000000 1.0
C      1  0.4424870000000  0.4127450000000  0.4689870000000 1.0
C      1  0.6038030000000  0.5114660000000  0.4681360000000 1.0
C      1  0.3961970000000  0.4885340000000  0.5318640000000 1.0
C      1  0.5093440000000  0.5275250000000  0.5754400000000 1.0
C      1  0.4906560000000  0.4724750000000  0.4245600000000 1.0
C      1  0.4555770000000  0.5488280000000  0.5998870000000 1.0
C      1  0.5444230000000  0.4511720000000  0.4001130000000 1.0
C      1  0.5545420000000  0.5374530000000  0.5519090000000 1.0
C      1  0.4454580000000  0.4625470000000  0.4480910000000 1.0
C      1  0.5074260000000  0.5555850000000  0.5355510000000 1.0
C      1  0.4925740000000  0.4444150000000  0.4644490000000 1.0
C      1  0.5613110000000  0.4423070000000  0.5528460000000 1.0
C      1  0.4386890000000  0.5576930000000  0.4471540000000 1.0
C      1  0.5531450000000  0.5479400000000  0.4220150000000 1.0
C      1  0.4468550000000  0.4520600000000  0.5779850000000 1.0
C      1  0.4413700000000  0.4742420000000  0.4209240000000 1.0
C      1  0.5586300000000  0.5257580000000  0.5790760000000 1.0
C      1  0.5856350000000  0.5403690000000  0.5443420000000 1.0
C      1  0.4143650000000  0.4596310000000  0.4556580000000 1.0
C      1  0.4617790000000  0.4065840000000  0.5190230000000 1.0
C      1  0.5382210000000  0.5934160000000  0.4809770000000 1.0
C      1  0.4320050000000  0.5237960000000  0.4837650000000 1.0
C      1  0.5679950000000  0.4762040000000  0.5162350000000 1.0
C      1  0.5179380000000  0.5406920000000  0.4920040000000 1.0
C      1  0.4820620000000  0.4593080000000  0.5079960000000 1.0
C      1  0.4889470000000  0.4207700000000  0.5550440000000 1.0
C      1  0.5110530000000  0.5792300000000  0.4449560000000 1.0
C      1  0.4947820000000  0.6058230000000  0.4901130000000 1.0
C      1  0.5052180000000  0.3941770000000  0.5098870000000 1.0
C      1  0.4775950000000  0.4566430000000  0.3898480000000 1.0
C      1  0.5224050000000  0.5433570000000  0.6101520000000 1.0
C      1  0.5875260000000  0.5150240000000  0.4216340000000 1.0
C      1  0.4124740000000  0.4849760000000  0.5783660000000 1.0
C      1  0.4506730000000  0.6013080000000  0.5136000000000 1.0
C      1  0.5493270000000  0.3986920000000  0.4864000000000 1.0
C      1  0.5348330000000  0.5186160000000  0.5940520000000 1.0
C      1  0.4651670000000  0.4813840000000  0.4059480000000 1.0
C      1  0.4318910000000  0.5595300000000  0.5487070000000 1.0
C      1  0.5681090000000  0.4404700000000  0.4512930000000 1.0
C      1  0.5226160000000  0.4660680000000  0.3884900000000 1.0
C      1  0.4773840000000  0.5339320000000  0.6115100000000 1.0
C      1  0.4939250000000  0.4815850000000  0.5489890000000 1.0
C      1  0.5060750000000  0.5184150000000  0.4510110000000 1.0
END
