TITL C-4179-6884-2 0.0222994052541635 125000 -919.272785915825 0 0 129 (C1) n - 1
REM
REM in /rds/project/t2_vol4/rds-t2-cs072/BORA/CARBON/from-Arr/AIRSS/Generating-Clusters/GAP-ML-2020/Higher-Symm/SD-CG/HFTN-CG
REM
REM
REM
REM
REM
REM ./C.cell (b20cbc046b6831c77cfcea5457e17084)
REM AIRSS Version 0.9.1 bugfix July 2018 build 013d7b7c2542+ Fri, 06 Jul 2018 19:26:36 +0100
REM compiler GCC version 9.3.0
REM options -cpp -mtune=generic -march=x86-64 -g -O0
REM seed 1766618103 828018725 -1553443934 1941391795 839299773 404565277 1455460479 1261497076 1749375539 -1514109460 -1382181155 886523109 -760437735 1577154038 61119190 -760435100 563964395 -403565969 1992969361 -1875838867 -368991834 1939526701 -186896811 -1552380160 1233016315 2119866144 -1532359767 -2001710179 1884890941 -1321302882 188038221 -1593008983 -490559918
REM
CELL 1.54180   50.00000   50.00000   50.00000   90.00000   90.00000   90.00000
LATT -1
SFAC C  
C      1  0.4314760000000  0.5214300000000  0.4774440000000 1.0
C      1  0.4398470000000  0.4228860000000  0.4822520000000 1.0
C      1  0.5472540000000  0.4370050000000  0.4754130000000 1.0
C      1  0.5721210000000  0.5204860000000  0.4847080000000 1.0
C      1  0.5003270000000  0.5929150000000  0.4727690000000 1.0
C      1  0.5440050000000  0.4808630000000  0.4143520000000 1.0
C      1  0.5341000000000  0.5363410000000  0.4098620000000 1.0
C      1  0.4801150000000  0.5485940000000  0.4126100000000 1.0
C      1  0.4602470000000  0.4998320000000  0.4086590000000 1.0
C      1  0.4943730000000  0.4634770000000  0.4094210000000 1.0
C      1  0.5614230000000  0.5275520000000  0.5593060000000 1.0
C      1  0.4921510000000  0.5742470000000  0.5562850000000 1.0
C      1  0.4256590000000  0.5149640000000  0.5573810000000 1.0
C      1  0.4600530000000  0.4354750000000  0.5623380000000 1.0
C      1  0.5482850000000  0.4425710000000  0.5590330000000 1.0
C      1  0.4401870000000  0.4778770000000  0.5803440000000 1.0
C      1  0.5017650000000  0.4436910000000  0.5822810000000 1.0
C      1  0.5564250000000  0.4830000000000  0.5813890000000 1.0
C      1  0.5294860000000  0.5502040000000  0.5793230000000 1.0
C      1  0.4614830000000  0.5457960000000  0.5775140000000 1.0
C      1  0.5233820000000  0.5288850000000  0.4938440000000 1.0
C      1  0.4774610000000  0.5398970000000  0.4885050000000 1.0
C      1  0.4567360000000  0.4653260000000  0.4978410000000 1.0
C      1  0.5033740000000  0.4617090000000  0.4998400000000 1.0
C      1  0.5400060000000  0.4862210000000  0.4969250000000 1.0
C      1  0.5090530000000  0.5524130000000  0.4092790000000 1.0
C      1  0.4592580000000  0.5287300000000  0.4111570000000 1.0
C      1  0.4787990000000  0.4830490000000  0.3978580000000 1.0
C      1  0.5230470000000  0.4612810000000  0.4113850000000 1.0
C      1  0.5477530000000  0.5100340000000  0.4146640000000 1.0
C      1  0.5712160000000  0.5495460000000  0.5186430000000 1.0
C      1  0.4764210000000  0.5825020000000  0.5152480000000 1.0
C      1  0.4099670000000  0.5001920000000  0.5171830000000 1.0
C      1  0.4688140000000  0.4202910000000  0.5212380000000 1.0
C      1  0.5678430000000  0.4454820000000  0.5185600000000 1.0
C      1  0.5236700000000  0.4199710000000  0.5176530000000 1.0
C      1  0.5878410000000  0.4972100000000  0.5217220000000 1.0
C      1  0.5269530000000  0.5820870000000  0.5157370000000 1.0
C      1  0.4306080000000  0.5482690000000  0.5174050000000 1.0
C      1  0.4257160000000  0.4498600000000  0.5226380000000 1.0
C      1  0.4867690000000  0.4710600000000  0.4584330000000 1.0
C      1  0.5164190000000  0.4751430000000  0.4590200000000 1.0
C      1  0.5230890000000  0.5020660000000  0.4567190000000 1.0
C      1  0.4979150000000  0.5411830000000  0.4527970000000 1.0
C      1  0.4743380000000  0.4985330000000  0.4558170000000 1.0
C      1  0.4749190000000  0.5626060000000  0.4388920000000 1.0
C      1  0.4482650000000  0.4915530000000  0.4360140000000 1.0
C      1  0.4838820000000  0.4483390000000  0.4333070000000 1.0
C      1  0.5616800000000  0.4691130000000  0.4345470000000 1.0
C      1  0.5509700000000  0.5544740000000  0.4248210000000 1.0
C      1  0.4365860000000  0.5686570000000  0.4706750000000 1.0
C      1  0.4216200000000  0.4640050000000  0.4651320000000 1.0
C      1  0.5049160000000  0.4152010000000  0.4666870000000 1.0
C      1  0.5912340000000  0.4822140000000  0.4715960000000 1.0
C      1  0.5456530000000  0.5789550000000  0.4651240000000 1.0
C      1  0.4445920000000  0.5232350000000  0.5775700000000 1.0
C      1  0.4575170000000  0.4556850000000  0.5822800000000 1.0
C      1  0.5300370000000  0.4450280000000  0.5818330000000 1.0
C      1  0.5526370000000  0.5109070000000  0.5818990000000 1.0
C      1  0.5040200000000  0.5614920000000  0.5788240000000 1.0
C      1  0.4878660000000  0.4285270000000  0.5619390000000 1.0
C      1  0.5655930000000  0.4654040000000  0.5600220000000 1.0
C      1  0.5482820000000  0.5528930000000  0.5587460000000 1.0
C      1  0.4654700000000  0.5641890000000  0.5558140000000 1.0
C      1  0.4229190000000  0.4864040000000  0.5590390000000 1.0
C      1  0.4504820000000  0.5909410000000  0.4781390000000 1.0
C      1  0.4107440000000  0.4905600000000  0.4646520000000 1.0
C      1  0.4774860000000  0.4087090000000  0.4717350000000 1.0
C      1  0.5915740000000  0.4559860000000  0.4786980000000 1.0
C      1  0.5670190000000  0.5592590000000  0.4672360000000 1.0
C      1  0.5401380000000  0.5102460000000  0.4807350000000 1.0
C      1  0.5031520000000  0.5410960000000  0.4795350000000 1.0
C      1  0.4618710000000  0.5148330000000  0.4799300000000 1.0
C      1  0.4805420000000  0.4611880000000  0.4844520000000 1.0
C      1  0.5277490000000  0.4643520000000  0.4839480000000 1.0
C      1  0.5692200000000  0.5426150000000  0.4423880000000 1.0
C      1  0.4940190000000  0.5850070000000  0.4447290000000 1.0
C      1  0.4278050000000  0.5110440000000  0.4470540000000 1.0
C      1  0.4544530000000  0.4204860000000  0.4575810000000 1.0
C      1  0.5514650000000  0.4439380000000  0.4455520000000 1.0
C      1  0.4611020000000  0.4846340000000  0.5185510000000 1.0
C      1  0.5010430000000  0.4601880000000  0.5283240000000 1.0
C      1  0.5437840000000  0.4873070000000  0.5257900000000 1.0
C      1  0.5276420000000  0.5330230000000  0.5224330000000 1.0
C      1  0.4768320000000  0.5334400000000  0.5187980000000 1.0
C      1  0.4757050000000  0.5926420000000  0.4886400000000 1.0
C      1  0.4109000000000  0.5033700000000  0.4897960000000 1.0
C      1  0.4620150000000  0.4098140000000  0.4963860000000 1.0
C      1  0.5723990000000  0.4411590000000  0.4909170000000 1.0
C      1  0.5760070000000  0.5478680000000  0.4914930000000 1.0
C      1  0.4189020000000  0.5248940000000  0.5311380000000 1.0
C      1  0.4474640000000  0.4339390000000  0.5362070000000 1.0
C      1  0.5464580000000  0.4318970000000  0.5318650000000 1.0
C      1  0.5759230000000  0.5237270000000  0.5326790000000 1.0
C      1  0.5008440000000  0.5830680000000  0.5296230000000 1.0
C      1  0.4387640000000  0.4628970000000  0.4427280000000 1.0
C      1  0.5061450000000  0.4290660000000  0.4413640000000 1.0
C      1  0.5783010000000  0.4891420000000  0.4460040000000 1.0
C      1  0.5390940000000  0.5775330000000  0.4372030000000 1.0
C      1  0.4467820000000  0.5585640000000  0.4456310000000 1.0
C      1  0.5377070000000  0.4680410000000  0.5941420000000 1.0
C      1  0.5283480000000  0.5236690000000  0.5911490000000 1.0
C      1  0.4865100000000  0.5420810000000  0.5905500000000 1.0
C      1  0.4546950000000  0.5000690000000  0.5909680000000 1.0
C      1  0.4832770000000  0.4639810000000  0.5928080000000 1.0
C      1  0.5448430000000  0.5604230000000  0.5297070000000 1.0
C      1  0.4582500000000  0.5598970000000  0.5274490000000 1.0
C      1  0.4153540000000  0.4750300000000  0.5335870000000 1.0
C      1  0.4965680000000  0.4268500000000  0.5325580000000 1.0
C      1  0.5718060000000  0.4725660000000  0.5322300000000 1.0
C      1  0.5262460000000  0.4182760000000  0.4869870000000 1.0
C      1  0.5895640000000  0.5001570000000  0.4941080000000 1.0
C      1  0.5261580000000  0.5878380000000  0.4859870000000 1.0
C      1  0.4275250000000  0.5485340000000  0.4890910000000 1.0
C      1  0.4313530000000  0.4493140000000  0.4915630000000 1.0
C      1  0.5697730000000  0.5145260000000  0.4337620000000 1.0
C      1  0.5139720000000  0.5779190000000  0.4257500000000 1.0
C      1  0.4393760000000  0.5348060000000  0.4319170000000 1.0
C      1  0.4559030000000  0.4404920000000  0.4384300000000 1.0
C      1  0.5292060000000  0.4389070000000  0.4290670000000 1.0
C      1  0.5017460000000  0.5241420000000  0.5314100000000 1.0
C      1  0.4657190000000  0.5087590000000  0.5080220000000 1.0
C      1  0.4799670000000  0.4804520000000  0.5373570000000 1.0
C      1  0.5209700000000  0.4788130000000  0.5405450000000 1.0
C      1  0.5482540000000  0.5150360000000  0.5326260000000 1.0
C      1  0.4985950000000  0.5142110000000  0.4487420000000 1.0
C      1  0.4999670000000  0.5172350000000  0.5983640000000 1.0
C      1  0.4820320000000  0.4935860000000  0.5989910000000 1.0
C      1  0.5005940000000  0.4994560000000  0.5448940000000 1.0
END
