TITL C-4177-8196-2 0.0312518615340852 125000 -271.915241110893 0 0 41 (C1) n - 1
REM
REM in /rds/project/t2_vol4/rds-t2-cs072/BORA/CARBON/from-Arr/AIRSS/Generating-Clusters/GAP-ML-2020/Higher-Symm/SD-CG/HFTN-CG
REM
REM
REM
REM
REM
REM ./C.cell (b20cbc046b6831c77cfcea5457e17084)
REM AIRSS Version 0.9.1 bugfix July 2018 build 013d7b7c2542+ Fri, 06 Jul 2018 19:26:36 +0100
REM compiler GCC version 9.3.0
REM options -cpp -mtune=generic -march=x86-64 -g -O0
REM seed 1118130357 135807277 -1916779353 -1776531567 1030219789 1133967282 1900739409 1661712440 1730371296 -1406689633 2009001975 510830998 1461483236 -1684779089 -900332968 -2082589866 71188551 1526144062 -658117770 -329701618 676124854 -69166359 504673135 -2014341805 -1534309054 2061571614 987606901 772837060 -878606641 -1044156197 -1387590784 -761821533 -1224507713
REM
CELL 1.54180   50.00000   50.00000   50.00000   90.00000   90.00000   90.00000
LATT -1
SFAC C  
C      1  0.5061990000000  0.4573460000000  0.4580720000000 1.0
C      1  0.5417940000000  0.4579200000000  0.4902600000000 1.0
C      1  0.5106830000000  0.4600490000000  0.5373740000000 1.0
C      1  0.4658410000000  0.4570420000000  0.5256900000000 1.0
C      1  0.4629820000000  0.4576460000000  0.4783120000000 1.0
C      1  0.4460850000000  0.5246560000000  0.5054000000000 1.0
C      1  0.4790880000000  0.5243070000000  0.4538030000000 1.0
C      1  0.5357920000000  0.5239600000000  0.4674880000000 1.0
C      1  0.5448180000000  0.5210250000000  0.5200870000000 1.0
C      1  0.4855510000000  0.5224640000000  0.5523970000000 1.0
C      1  0.4809570000000  0.4964460000000  0.5535940000000 1.0
C      1  0.4478640000000  0.4979710000000  0.5052930000000 1.0
C      1  0.4781630000000  0.4978630000000  0.4537410000000 1.0
C      1  0.5340950000000  0.4978370000000  0.4646010000000 1.0
C      1  0.5619300000000  0.5012980000000  0.5116260000000 1.0
C      1  0.4774290000000  0.4336530000000  0.4864290000000 1.0
C      1  0.5038320000000  0.4336320000000  0.4747000000000 1.0
C      1  0.5237570000000  0.4356920000000  0.4962450000000 1.0
C      1  0.5083900000000  0.4363010000000  0.5212340000000 1.0
C      1  0.4802140000000  0.4342150000000  0.5147880000000 1.0
C      1  0.5078760000000  0.5616280000000  0.4570350000000 1.0
C      1  0.5420750000000  0.5611620000000  0.4935240000000 1.0
C      1  0.5188410000000  0.5578350000000  0.5376520000000 1.0
C      1  0.4696360000000  0.5618210000000  0.5279960000000 1.0
C      1  0.4631450000000  0.5616380000000  0.4791850000000 1.0
C      1  0.4741710000000  0.5132010000000  0.5036080000000 1.0
C      1  0.4890610000000  0.5110940000000  0.4794510000000 1.0
C      1  0.5163570000000  0.5098350000000  0.4862840000000 1.0
C      1  0.5192790000000  0.5063570000000  0.5157890000000 1.0
C      1  0.4929710000000  0.5144330000000  0.5249230000000 1.0
C      1  0.5313190000000  0.4708340000000  0.4657770000000 1.0
C      1  0.5515180000000  0.4751340000000  0.5119550000000 1.0
C      1  0.4837470000000  0.4706590000000  0.5446760000000 1.0
C      1  0.4526710000000  0.4708670000000  0.5030930000000 1.0
C      1  0.4797800000000  0.4708020000000  0.4575760000000 1.0
C      1  0.5303130000000  0.5512460000000  0.4697390000000 1.0
C      1  0.5374880000000  0.5499300000000  0.5184200000000 1.0
C      1  0.4920030000000  0.5492600000000  0.5400880000000 1.0
C      1  0.4585240000000  0.5506030000000  0.5044580000000 1.0
C      1  0.4821120000000  0.5514000000000  0.4614090000000 1.0
C      1  0.5278230000000  0.4796570000000  0.5271740000000 1.0
END
