TITL C-4153-6852-3 4.11203452279269 125000 -525.096830037551 0 0 78 (C3) n - 1
REM
REM in /rds/project/t2_vol4/rds-t2-cs072/BORA/CARBON/from-Arr/AIRSS/Generating-Clusters/GAP-ML-2020/Higher-Symm/SD-CG/HFTN-CG
REM
REM
REM
REM
REM
REM ./C.cell (b20cbc046b6831c77cfcea5457e17084)
REM AIRSS Version 0.9.1 bugfix July 2018 build 013d7b7c2542+ Fri, 06 Jul 2018 19:26:36 +0100
REM compiler GCC version 9.3.0
REM options -cpp -mtune=generic -march=x86-64 -g -O0
REM seed 1093765258 -462951500 2093194286 -1237579538 562970604 -997693451 1527523724 -906902833 1142950066 -1825038413 1983231242 -1252602215 57412389 22844043 1826166487 300739760 1720881273 -557077736 1719380534 1568879521 -2056894398 -31622484 452120671 39556988 1350685373 -2035901809 673811857 1459843387 193918338 750238436 -1238934520 -586934131 1282974848
REM
CELL 1.54180   50.00000   50.00000   50.00000   90.00000   90.00000   90.00000
LATT -1
SFAC C  
C      1  0.5428720000000  0.5018920000000  0.4585520000000 1.0
C      1  0.4426690000000  0.5018910000000  0.4835960000000 1.0
C      1  0.5144590000000  0.5018930000000  0.5578520000000 1.0
C      1  0.4463340000000  0.5603370000000  0.4818610000000 1.0
C      1  0.5111230000000  0.5603390000000  0.5555440000000 1.0
C      1  0.5425400000000  0.5603380000000  0.4625940000000 1.0
C      1  0.5508890000000  0.4542270000000  0.5371590000000 1.0
C      1  0.5067370000000  0.4542250000000  0.4373500000000 1.0
C      1  0.4423760000000  0.4542250000000  0.5254920000000 1.0
C      1  0.4754950000000  0.5654140000000  0.5188330000000 1.0
C      1  0.5285610000000  0.5654150000000  0.5118040000000 1.0
C      1  0.4959410000000  0.5654140000000  0.4693620000000 1.0
C      1  0.5366460000000  0.5457890000000  0.5529760000000 1.0
C      1  0.5275550000000  0.5457880000000  0.4417740000000 1.0
C      1  0.4357970000000  0.5457870000000  0.5052490000000 1.0
C      1  0.4250850000000  0.5209570000000  0.4991100000000 1.0
C      1  0.5366870000000  0.5209590000000  0.5653230000000 1.0
C      1  0.5382280000000  0.5209580000000  0.4355660000000 1.0
C      1  0.4789170000000  0.4967830000000  0.5221530000000 1.0
C      1  0.5297260000000  0.4967830000000  0.5071820000000 1.0
C      1  0.4913570000000  0.4967830000000  0.4706650000000 1.0
C      1  0.5069490000000  0.5060430000000  0.5270720000000 1.0
C      1  0.5199700000000  0.5060430000000  0.4804460000000 1.0
C      1  0.4730800000000  0.5060420000000  0.4924820000000 1.0
C      1  0.4662400000000  0.4765340000000  0.4263750000000 1.0
C      1  0.4531200000000  0.4765350000000  0.5660500000000 1.0
C      1  0.5806420000000  0.4765360000000  0.5075750000000 1.0
C      1  0.5581600000000  0.4334670000000  0.4890020000000 1.0
C      1  0.4613960000000  0.4334650000000  0.4551320000000 1.0
C      1  0.4804460000000  0.4334660000000  0.5558670000000 1.0
C      1  0.5351780000000  0.4331150000000  0.4738430000000 1.0
C      1  0.4597600000000  0.4331140000000  0.4826150000000 1.0
C      1  0.5050650000000  0.4331150000000  0.5435430000000 1.0
C      1  0.5620590000000  0.4536700000000  0.5090080000000 1.0
C      1  0.4767730000000  0.4536690000000  0.4417530000000 1.0
C      1  0.4611710000000  0.4536690000000  0.5492400000000 1.0
C      1  0.4837500000000  0.5196030000000  0.4434570000000 1.0
C      1  0.4591570000000  0.5196030000000  0.5423440000000 1.0
C      1  0.5570920000000  0.5196040000000  0.5141980000000 1.0
C      1  0.4558000000000  0.5269630000000  0.4476230000000 1.0
C      1  0.4767400000000  0.5269640000000  0.5644660000000 1.0
C      1  0.5674590000000  0.5269650000000  0.4879100000000 1.0
C      1  0.5036300000000  0.5633570000000  0.5277220000000 1.0
C      1  0.5221920000000  0.5633570000000  0.4829940000000 1.0
C      1  0.4741750000000  0.5633560000000  0.4892830000000 1.0
C      1  0.4300070000000  0.4802660000000  0.5275730000000 1.0
C      1  0.5588760000000  0.4802680000000  0.5468300000000 1.0
C      1  0.5111180000000  0.4802660000000  0.4255980000000 1.0
C      1  0.5317370000000  0.4371180000000  0.5481820000000 1.0
C      1  0.5258590000000  0.4371170000000  0.4484260000000 1.0
C      1  0.4424060000000  0.4371170000000  0.5033940000000 1.0
C      1  0.4879890000000  0.4479790000000  0.4874530000000 1.0
C      1  0.4951400000000  0.4479800000000  0.5166770000000 1.0
C      1  0.5168730000000  0.4479800000000  0.4958720000000 1.0
C      1  0.5716600000000  0.4956290000000  0.5263090000000 1.0
C      1  0.4869540000000  0.4956270000000  0.4247860000000 1.0
C      1  0.4413860000000  0.4956270000000  0.5489050000000 1.0
C      1  0.4773680000000  0.4680500000000  0.5279080000000 1.0
C      1  0.5354850000000  0.4680500000000  0.5056470000000 1.0
C      1  0.4871480000000  0.4680490000000  0.4664460000000 1.0
C      1  0.5127920000000  0.5341320000000  0.4884720000000 1.0
C      1  0.4836200000000  0.5341310000000  0.4946850000000 1.0
C      1  0.5035870000000  0.5341320000000  0.5168420000000 1.0
C      1  0.4994210000000  0.5461410000000  0.4461730000000 1.0
C      1  0.4536730000000  0.5461410000000  0.5274140000000 1.0
C      1  0.5469040000000  0.5461420000000  0.5264120000000 1.0
C      1  0.4414220000000  0.4849310000000  0.4341880000000 1.0
C      1  0.4722940000000  0.4849320000000  0.5836370000000 1.0
C      1  0.5862850000000  0.4849330000000  0.4821760000000 1.0
C      1  0.4457590000000  0.5504190000000  0.4566600000000 1.0
C      1  0.4895860000000  0.5504200000000  0.5686430000000 1.0
C      1  0.5646530000000  0.5504200000000  0.4746960000000 1.0
C      1  0.5341040000000  0.4946360000000  0.4303170000000 1.0
C      1  0.4226010000000  0.4946360000000  0.5053070000000 1.0
C      1  0.5432960000000  0.4946380000000  0.5643760000000 1.0
C      1  0.4900480000000  0.5025490000000  0.5740350000000 1.0
C      1  0.5690920000000  0.5025490000000  0.4716010000000 1.0
C      1  0.4408600000000  0.5025470000000  0.4543640000000 1.0
END
