TITL C-4174-6720-3 89.3792724971079 125000 -1022.21183106643 0 0 144 (C1) n - 1
REM
REM in /rds/project/t2_vol4/rds-t2-cs072/BORA/CARBON/from-Arr/AIRSS/Generating-Clusters/GAP-ML-2020/Higher-Symm/SD-CG/HFTN-CG
REM
REM
REM
REM
REM
REM ./C.cell (b20cbc046b6831c77cfcea5457e17084)
REM AIRSS Version 0.9.1 bugfix July 2018 build 013d7b7c2542+ Fri, 06 Jul 2018 19:26:36 +0100
REM compiler GCC version 9.3.0
REM options -cpp -mtune=generic -march=x86-64 -g -O0
REM seed 1707511326 881044781 161188780 1300504616 -221330728 861062139 1379451016 -1608368486 -594967597 809768102 -1846681556 1961511631 1188786902 1109279959 381101844 36112370 1292158234 2098481907 666516669 892753398 404230641 -1795215203 430890341 1410863996 361761157 360757195 -396888844 -1635911063 -2041128307 977337719 1504728582 1998953583 -1329180096
REM
CELL 1.54180   50.00000   50.00000   50.00000   90.00000   90.00000   90.00000
LATT -1
SFAC C  
C      1  0.5378180000000  0.4752590000000  0.5146970000000 1.0
C      1  0.4788460000000  0.5125660000000  0.5309420000000 1.0
C      1  0.5066610000000  0.5341980000000  0.4768940000000 1.0
C      1  0.5272210000000  0.5195620000000  0.4912940000000 1.0
C      1  0.4678220000000  0.4665230000000  0.4772490000000 1.0
C      1  0.4623280000000  0.5020930000000  0.5100240000000 1.0
C      1  0.4653120000000  0.4826430000000  0.4539460000000 1.0
C      1  0.4972940000000  0.5209380000000  0.4551620000000 1.0
C      1  0.5250130000000  0.4899040000000  0.5387770000000 1.0
C      1  0.5182820000000  0.4531070000000  0.5096970000000 1.0
C      1  0.4879530000000  0.5396390000000  0.5210990000000 1.0
C      1  0.4881670000000  0.4492850000000  0.4743290000000 1.0
C      1  0.4692180000000  0.4753420000000  0.5042870000000 1.0
C      1  0.5364150000000  0.5142540000000  0.5396440000000 1.0
C      1  0.4807340000000  0.5437510000000  0.4919840000000 1.0
C      1  0.4593430000000  0.5210280000000  0.4852100000000 1.0
C      1  0.5338720000000  0.4930690000000  0.4869560000000 1.0
C      1  0.5331860000000  0.5299110000000  0.5175660000000 1.0
C      1  0.5257560000000  0.4765140000000  0.4650920000000 1.0
C      1  0.4736780000000  0.5080730000000  0.4611890000000 1.0
C      1  0.4954290000000  0.4870880000000  0.5428730000000 1.0
C      1  0.4900670000000  0.4617680000000  0.5233850000000 1.0
C      1  0.5150410000000  0.5502210000000  0.5245640000000 1.0
C      1  0.5139920000000  0.4546900000000  0.4795950000000 1.0
C      1  0.5866450000000  0.4692160000000  0.4577420000000 1.0
C      1  0.4839210000000  0.4773900000000  0.5733710000000 1.0
C      1  0.4683060000000  0.5736700000000  0.4784760000000 1.0
C      1  0.5932110000000  0.5214520000000  0.5401990000000 1.0
C      1  0.4068300000000  0.4648130000000  0.5209560000000 1.0
C      1  0.4284490000000  0.5339090000000  0.4741440000000 1.0
C      1  0.4698510000000  0.5458010000000  0.4104280000000 1.0
C      1  0.5294240000000  0.4752240000000  0.4315300000000 1.0
C      1  0.5304830000000  0.5468600000000  0.5910250000000 1.0
C      1  0.4795690000000  0.4313780000000  0.5383770000000 1.0
C      1  0.5268820000000  0.5825260000000  0.5297210000000 1.0
C      1  0.5330710000000  0.4008700000000  0.4701810000000 1.0
C      1  0.4090230000000  0.4714950000000  0.4538150000000 1.0
C      1  0.5364610000000  0.4757430000000  0.5967650000000 1.0
C      1  0.5269300000000  0.5899960000000  0.4607890000000 1.0
C      1  0.4081510000000  0.5195430000000  0.5348060000000 1.0
C      1  0.5705570000000  0.4629920000000  0.5202040000000 1.0
C      1  0.5813060000000  0.5406620000000  0.4755240000000 1.0
C      1  0.5303230000000  0.5438140000000  0.4154730000000 1.0
C      1  0.4669500000000  0.4746480000000  0.4229510000000 1.0
C      1  0.4696040000000  0.5418790000000  0.5869140000000 1.0
C      1  0.5320740000000  0.4226250000000  0.5231770000000 1.0
C      1  0.4668650000000  0.5921900000000  0.5334970000000 1.0
C      1  0.4608390000000  0.4058240000000  0.4746360000000 1.0
C      1  0.5129830000000  0.6004520000000  0.5115590000000 1.0
C      1  0.5937060000000  0.5097380000000  0.5144910000000 1.0
C      1  0.5156150000000  0.5252480000000  0.6006760000000 1.0
C      1  0.5111690000000  0.3949230000000  0.4882200000000 1.0
C      1  0.4836670000000  0.5977550000000  0.4861550000000 1.0
C      1  0.4861180000000  0.4077930000000  0.5197890000000 1.0
C      1  0.5910080000000  0.4865920000000  0.4795880000000 1.0
C      1  0.4066670000000  0.5160530000000  0.4820040000000 1.0
C      1  0.3970690000000  0.4840720000000  0.5035590000000 1.0
C      1  0.5133810000000  0.4943160000000  0.4131210000000 1.0
C      1  0.4849570000000  0.5222810000000  0.4029380000000 1.0
C      1  0.4904150000000  0.4949350000000  0.5961590000000 1.0
C      1  0.4847420000000  0.6029150000000  0.5141150000000 1.0
C      1  0.3992850000000  0.5117550000000  0.5096000000000 1.0
C      1  0.4871700000000  0.5231400000000  0.5971780000000 1.0
C      1  0.4822660000000  0.3986360000000  0.4919720000000 1.0
C      1  0.5122210000000  0.5995700000000  0.4828790000000 1.0
C      1  0.5136880000000  0.4015910000000  0.5160850000000 1.0
C      1  0.4020710000000  0.4879200000000  0.4754950000000 1.0
C      1  0.5912310000000  0.5158610000000  0.4852030000000 1.0
C      1  0.5897020000000  0.4818880000000  0.5081570000000 1.0
C      1  0.4853080000000  0.4940780000000  0.4090150000000 1.0
C      1  0.5145940000000  0.5221720000000  0.4057600000000 1.0
C      1  0.5182790000000  0.4966190000000  0.6028750000000 1.0
C      1  0.4874900000000  0.5676050000000  0.4099680000000 1.0
C      1  0.5564600000000  0.4063460000000  0.4844500000000 1.0
C      1  0.4187390000000  0.4727570000000  0.5451480000000 1.0
C      1  0.4941950000000  0.4524000000000  0.5829420000000 1.0
C      1  0.5134350000000  0.5657250000000  0.5783310000000 1.0
C      1  0.5125340000000  0.4507920000000  0.4187330000000 1.0
C      1  0.5553750000000  0.5828590000000  0.5195550000000 1.0
C      1  0.4362490000000  0.4247360000000  0.5187610000000 1.0
C      1  0.4431590000000  0.5798130000000  0.4910420000000 1.0
C      1  0.4213000000000  0.5149010000000  0.4276780000000 1.0
C      1  0.5826670000000  0.4816820000000  0.4331420000000 1.0
C      1  0.5875530000000  0.5061320000000  0.5632380000000 1.0
C      1  0.5155690000000  0.5678640000000  0.4153670000000 1.0
C      1  0.4402070000000  0.4149010000000  0.4909740000000 1.0
C      1  0.5807270000000  0.4786640000000  0.5679490000000 1.0
C      1  0.5219230000000  0.4521690000000  0.5896280000000 1.0
C      1  0.4842390000000  0.5641920000000  0.5772580000000 1.0
C      1  0.4835940000000  0.4504310000000  0.4168260000000 1.0
C      1  0.4432860000000  0.5835520000000  0.5194050000000 1.0
C      1  0.5570440000000  0.4146090000000  0.5117170000000 1.0
C      1  0.5611460000000  0.5805770000000  0.4914610000000 1.0
C      1  0.5927100000000  0.5075500000000  0.4266590000000 1.0
C      1  0.4178490000000  0.4861710000000  0.4322280000000 1.0
C      1  0.4168530000000  0.5000760000000  0.5527540000000 1.0
C      1  0.5120190000000  0.4232490000000  0.4278440000000 1.0
C      1  0.4143490000000  0.4406470000000  0.5093570000000 1.0
C      1  0.4331610000000  0.5068290000000  0.4030050000000 1.0
C      1  0.5129500000000  0.5847480000000  0.5562200000000 1.0
C      1  0.4941990000000  0.4306920000000  0.5642620000000 1.0
C      1  0.4837310000000  0.5848090000000  0.4332190000000 1.0
C      1  0.4235850000000  0.5589050000000  0.4901760000000 1.0
C      1  0.5744670000000  0.4280200000000  0.4801470000000 1.0
C      1  0.5785200000000  0.5658930000000  0.5240190000000 1.0
C      1  0.4425330000000  0.4892850000000  0.5892380000000 1.0
C      1  0.5693730000000  0.5146690000000  0.5847220000000 1.0
C      1  0.5556920000000  0.4861990000000  0.4233430000000 1.0
C      1  0.4820290000000  0.4236700000000  0.4279650000000 1.0
C      1  0.5748550000000  0.4364370000000  0.5075750000000 1.0
C      1  0.5649410000000  0.5143100000000  0.4231730000000 1.0
C      1  0.4833640000000  0.5837200000000  0.5554940000000 1.0
C      1  0.5221820000000  0.4297420000000  0.5711190000000 1.0
C      1  0.5122520000000  0.5869570000000  0.4372320000000 1.0
C      1  0.5820530000000  0.5610530000000  0.4959250000000 1.0
C      1  0.4190870000000  0.4321590000000  0.4822180000000 1.0
C      1  0.4222730000000  0.5634850000000  0.5183330000000 1.0
C      1  0.5618860000000  0.4865610000000  0.5891220000000 1.0
C      1  0.4313710000000  0.5094590000000  0.5753430000000 1.0
C      1  0.4388750000000  0.4810900000000  0.4126960000000 1.0
C      1  0.5768720000000  0.4583890000000  0.5489980000000 1.0
C      1  0.4437410000000  0.5352530000000  0.5772840000000 1.0
C      1  0.5505630000000  0.5753930000000  0.4662840000000 1.0
C      1  0.5626400000000  0.5513230000000  0.4552830000000 1.0
C      1  0.4187980000000  0.4442680000000  0.4568660000000 1.0
C      1  0.4180500000000  0.5455320000000  0.5388560000000 1.0
C      1  0.4389370000000  0.4338290000000  0.4414880000000 1.0
C      1  0.5534000000000  0.5387310000000  0.4314380000000 1.0
C      1  0.5636790000000  0.4368350000000  0.5573190000000 1.0
C      1  0.5406080000000  0.4251650000000  0.5508700000000 1.0
C      1  0.4347850000000  0.5522280000000  0.5588840000000 1.0
C      1  0.4600250000000  0.4170690000000  0.4462740000000 1.0
C      1  0.4398840000000  0.4565820000000  0.5551740000000 1.0
C      1  0.5583380000000  0.5413470000000  0.5852580000000 1.0
C      1  0.4639650000000  0.5728730000000  0.4490640000000 1.0
C      1  0.4302860000000  0.5363520000000  0.4442480000000 1.0
C      1  0.5740830000000  0.4434790000000  0.4572920000000 1.0
C      1  0.5857220000000  0.5489440000000  0.5449160000000 1.0
C      1  0.5553400000000  0.4332080000000  0.4398390000000 1.0
C      1  0.4509700000000  0.5523330000000  0.4334540000000 1.0
C      1  0.4551820000000  0.4706580000000  0.5742460000000 1.0
C      1  0.4507280000000  0.4342610000000  0.5407870000000 1.0
C      1  0.5724330000000  0.5554770000000  0.5673510000000 1.0
C      1  0.5344320000000  0.4151280000000  0.4438130000000 1.0
END
