TITL C-4170-6238-5 -0.0266223507912229 125000 -510.8226744028 0 0 75 (C1) n - 1
REM
REM in /rds/project/t2_vol4/rds-t2-cs072/BORA/CARBON/from-Arr/AIRSS/Generating-Clusters/GAP-ML-2020/Higher-Symm/SD-CG/HFTN-CG
REM
REM
REM
REM
REM
REM ./C.cell (b20cbc046b6831c77cfcea5457e17084)
REM AIRSS Version 0.9.1 bugfix July 2018 build 013d7b7c2542+ Fri, 06 Jul 2018 19:26:36 +0100
REM compiler GCC version 9.3.0
REM options -cpp -mtune=generic -march=x86-64 -g -O0
REM seed -1396017482 -1071564679 1253143938 -344898674 -1376738590 1939068757 582759166 1899021407 1051327017 15500912 -149949159 -1381772344 33774720 -120843071 38858864 885585460 519414859 -989574715 273295074 190243165 -1335174391 -211259645 -65889089 591695699 -1854768904 374965820 -170004933 106904162 1580311506 -1962422117 -397414027 -1223265632 540621193
REM
CELL 1.54180   50.00000   50.00000   50.00000   90.00000   90.00000   90.00000
LATT -1
SFAC C  
C      1  0.5188140000000  0.4612500000000  0.4777670000000 1.0
C      1  0.4819130000000  0.4588080000000  0.5285580000000 1.0
C      1  0.4795550000000  0.5427410000000  0.4717970000000 1.0
C      1  0.5190290000000  0.5393020000000  0.5219470000000 1.0
C      1  0.4403340000000  0.4858310000000  0.5431970000000 1.0
C      1  0.5601260000000  0.4862790000000  0.4564000000000 1.0
C      1  0.5614010000000  0.5204010000000  0.5426190000000 1.0
C      1  0.4367300000000  0.5202740000000  0.4568100000000 1.0
C      1  0.4183060000000  0.5263820000000  0.4800730000000 1.0
C      1  0.5795610000000  0.5282210000000  0.5202220000000 1.0
C      1  0.5806090000000  0.4812080000000  0.4776490000000 1.0
C      1  0.4186430000000  0.4780090000000  0.5235170000000 1.0
C      1  0.4745340000000  0.4466070000000  0.4998290000000 1.0
C      1  0.5264910000000  0.4654230000000  0.5080850000000 1.0
C      1  0.5245560000000  0.5356460000000  0.4907410000000 1.0
C      1  0.4729970000000  0.5397950000000  0.5014840000000 1.0
C      1  0.5742720000000  0.5431200000000  0.4949800000000 1.0
C      1  0.4215960000000  0.5417420000000  0.5043830000000 1.0
C      1  0.4228650000000  0.4628670000000  0.4991920000000 1.0
C      1  0.5780350000000  0.4665210000000  0.5030750000000 1.0
C      1  0.4082490000000  0.5274890000000  0.5264670000000 1.0
C      1  0.5873950000000  0.5297510000000  0.4737640000000 1.0
C      1  0.5908740000000  0.4806000000000  0.5237200000000 1.0
C      1  0.4098010000000  0.4771840000000  0.4776520000000 1.0
C      1  0.4522270000000  0.5085090000000  0.5255170000000 1.0
C      1  0.5283840000000  0.5068090000000  0.4877200000000 1.0
C      1  0.5312710000000  0.4949270000000  0.5114470000000 1.0
C      1  0.4593120000000  0.4998380000000  0.4784140000000 1.0
C      1  0.4036980000000  0.5028610000000  0.4881120000000 1.0
C      1  0.5963970000000  0.5064600000000  0.5128490000000 1.0
C      1  0.5955330000000  0.5045720000000  0.4842290000000 1.0
C      1  0.4025920000000  0.5013350000000  0.5164000000000 1.0
C      1  0.5721210000000  0.5299990000000  0.4492300000000 1.0
C      1  0.4233830000000  0.5280500000000  0.5516360000000 1.0
C      1  0.4243140000000  0.4754340000000  0.4537210000000 1.0
C      1  0.5754990000000  0.4786430000000  0.5482800000000 1.0
C      1  0.5014240000000  0.4001250000000  0.4967720000000 1.0
C      1  0.5325590000000  0.4343020000000  0.4756740000000 1.0
C      1  0.5264750000000  0.5689020000000  0.5221370000000 1.0
C      1  0.4827310000000  0.5903970000000  0.5060750000000 1.0
C      1  0.5304310000000  0.4873090000000  0.4636500000000 1.0
C      1  0.4691250000000  0.4791950000000  0.5437760000000 1.0
C      1  0.4665180000000  0.5221930000000  0.4569450000000 1.0
C      1  0.5324850000000  0.5155750000000  0.5356090000000 1.0
C      1  0.5262050000000  0.4694860000000  0.5511780000000 1.0
C      1  0.4737590000000  0.4770210000000  0.4606630000000 1.0
C      1  0.4769690000000  0.5260820000000  0.5466760000000 1.0
C      1  0.5223860000000  0.5333430000000  0.4472160000000 1.0
C      1  0.4904390000000  0.4589880000000  0.4755480000000 1.0
C      1  0.5098220000000  0.4573300000000  0.5308160000000 1.0
C      1  0.5065040000000  0.5451040000000  0.4681230000000 1.0
C      1  0.4912610000000  0.5392660000000  0.5263990000000 1.0
C      1  0.4850380000000  0.5005740000000  0.4458890000000 1.0
C      1  0.5156620000000  0.4966180000000  0.5533890000000 1.0
C      1  0.5129970000000  0.5052200000000  0.4456390000000 1.0
C      1  0.4874030000000  0.5004640000000  0.5535390000000 1.0
C      1  0.5527830000000  0.4622280000000  0.5434600000000 1.0
C      1  0.4486110000000  0.4610160000000  0.4605060000000 1.0
C      1  0.4502660000000  0.5348800000000  0.5401430000000 1.0
C      1  0.5479960000000  0.5442850000000  0.4541520000000 1.0
C      1  0.5490040000000  0.5543170000000  0.4835000000000 1.0
C      1  0.4484270000000  0.5526550000000  0.5140900000000 1.0
C      1  0.4464270000000  0.4517850000000  0.4876640000000 1.0
C      1  0.5544420000000  0.4517700000000  0.5144450000000 1.0
C      1  0.5368120000000  0.5784220000000  0.4977300000000 1.0
C      1  0.4595410000000  0.5800230000000  0.5102750000000 1.0
C      1  0.4841330000000  0.4187110000000  0.5000530000000 1.0
C      1  0.5477960000000  0.4268680000000  0.4997200000000 1.0
C      1  0.4265910000000  0.4993800000000  0.4407870000000 1.0
C      1  0.5729170000000  0.5030890000000  0.5609430000000 1.0
C      1  0.5695750000000  0.5047360000000  0.4379430000000 1.0
C      1  0.4274510000000  0.5029170000000  0.5627840000000 1.0
C      1  0.5105720000000  0.5861380000000  0.5074810000000 1.0
C      1  0.5265310000000  0.4121970000000  0.4901490000000 1.0
C      1  0.4684040000000  0.5107980000000  0.5025220000000 1.0
END
