TITL C-4161-6208-1 0.133400587620966 125000 -213.553017573271 0 0 33 (C1) n - 1
REM
REM in /rds/project/t2_vol4/rds-t2-cs072/BORA/CARBON/from-Arr/AIRSS/Generating-Clusters/GAP-ML-2020/Higher-Symm/SD-CG/HFTN-CG
REM
REM
REM
REM
REM
REM ./C.cell (b20cbc046b6831c77cfcea5457e17084)
REM AIRSS Version 0.9.1 bugfix July 2018 build 013d7b7c2542+ Fri, 06 Jul 2018 19:26:36 +0100
REM compiler GCC version 9.3.0
REM options -cpp -mtune=generic -march=x86-64 -g -O0
REM seed 1338917798 -1406372709 1264988567 -876000451 -2061235009 1245082086 1455143926 1103268410 193253150 -365826939 -1795256283 293161744 -1370621631 972521956 1913396158 -83640075 -1020261363 -989692521 314610885 -249847512 -1174407527 -548833169 -2052972139 -1610841994 1143119011 47029772 1280943245 796239648 -308740665 781545659 -857335345 1469392545 1332813916
REM
CELL 1.54180   50.00000   50.00000   50.00000   90.00000   90.00000   90.00000
LATT -1
SFAC C  
C      1  0.5059180000000  0.4702900000000  0.5524570000000 1.0
C      1  0.5321360000000  0.4952180000000  0.4414520000000 1.0
C      1  0.5206010000000  0.5503420000000  0.4686890000000 1.0
C      1  0.5312090000000  0.4670130000000  0.4797000000000 1.0
C      1  0.5052060000000  0.5046910000000  0.5287090000000 1.0
C      1  0.5395310000000  0.5326050000000  0.4757210000000 1.0
C      1  0.4565970000000  0.4773760000000  0.5383140000000 1.0
C      1  0.4785970000000  0.5308070000000  0.4755440000000 1.0
C      1  0.5150910000000  0.4631060000000  0.5028040000000 1.0
C      1  0.4606070000000  0.4795470000000  0.4627590000000 1.0
C      1  0.4772980000000  0.4614450000000  0.4748030000000 1.0
C      1  0.5408490000000  0.5263030000000  0.5041000000000 1.0
C      1  0.4754510000000  0.5428600000000  0.5247270000000 1.0
C      1  0.5544710000000  0.5006940000000  0.5072180000000 1.0
C      1  0.4531320000000  0.5228530000000  0.4875670000000 1.0
C      1  0.4473040000000  0.5036060000000  0.5359100000000 1.0
C      1  0.5165710000000  0.4756870000000  0.4545180000000 1.0
C      1  0.4956220000000  0.4979670000000  0.5549890000000 1.0
C      1  0.4834200000000  0.4996190000000  0.5096450000000 1.0
C      1  0.5443470000000  0.5073710000000  0.4625730000000 1.0
C      1  0.5516850000000  0.4874200000000  0.4825130000000 1.0
C      1  0.4610560000000  0.5198490000000  0.5173850000000 1.0
C      1  0.4712340000000  0.4735880000000  0.5142040000000 1.0
C      1  0.5175780000000  0.5297170000000  0.5192870000000 1.0
C      1  0.4906170000000  0.4842530000000  0.4627470000000 1.0
C      1  0.4873060000000  0.4556550000000  0.5001550000000 1.0
C      1  0.4973790000000  0.5462450000000  0.5094790000000 1.0
C      1  0.4488800000000  0.4979340000000  0.4780330000000 1.0
C      1  0.5493930000000  0.4854990000000  0.5290020000000 1.0
C      1  0.4932050000000  0.5063270000000  0.4824420000000 1.0
C      1  0.4792690000000  0.4747600000000  0.5530370000000 1.0
C      1  0.4963080000000  0.5522890000000  0.4813920000000 1.0
C      1  0.5221340000000  0.4770620000000  0.5281250000000 1.0
END
