TITL C-4172-3866-3 23.1271315366368 125000 -1390.47798543673 0 0 199 (C1) n - 1
REM
REM in /rds/project/t2_vol4/rds-t2-cs072/BORA/CARBON/from-Arr/AIRSS/Generating-Clusters/GAP-ML-2020/Higher-Symm/SD-CG/HFTN-CG/C160-200
REM
REM
REM
REM
REM
REM ./C.cell (6b4489405718ea1b717e0baf1da4c2d9)
REM AIRSS Version 0.9.1 bugfix July 2018 build 013d7b7c2542+ Fri, 06 Jul 2018 19:26:36 +0100
REM compiler GCC version 9.3.0
REM options -cpp -mtune=generic -march=x86-64 -g -O0
REM seed -361240175 291381272 917823973 -119779878 -1874842418 -1658095136 1073524113 -1677366726 1924687459 -1339143963 -1900855698 1002401080 -1271638338 1334939502 2080010262 1756270312 -391125417 -936166764 -560271866 -1892713034 -1934341247 1330342130 -832412321 1893606186 -774272364 474660351 1750205159 -2082006670 165684868 -492553567 -121438770 -389190425 1945368230
REM
CELL 1.54180   50.00000   50.00000   50.00000   90.00000   90.00000   90.00000
LATT -1
SFAC C  
C      1  0.4639010000000  0.5256510000000  0.4371740000000 1.0
C      1  0.4626880000000  0.4943390000000  0.4369920000000 1.0
C      1  0.4826990000000  0.4686810000000  0.4374460000000 1.0
C      1  0.5134840000000  0.4660620000000  0.4377770000000 1.0
C      1  0.5393110000000  0.4860300000000  0.4401360000000 1.0
C      1  0.5343340000000  0.5149710000000  0.4404840000000 1.0
C      1  0.4922860000000  0.5367990000000  0.4383560000000 1.0
C      1  0.5217520000000  0.3888890000000  0.4950050000000 1.0
C      1  0.6136440000000  0.4672740000000  0.4949270000000 1.0
C      1  0.6056200000000  0.5561320000000  0.4923940000000 1.0
C      1  0.5172040000000  0.6083770000000  0.4936220000000 1.0
C      1  0.4285800000000  0.5900240000000  0.4958440000000 1.0
C      1  0.3867970000000  0.4954840000000  0.4933370000000 1.0
C      1  0.4426170000000  0.3987320000000  0.4904750000000 1.0
C      1  0.5499690000000  0.3899910000000  0.4923020000000 1.0
C      1  0.6249750000000  0.4932160000000  0.4976940000000 1.0
C      1  0.5911190000000  0.5811270000000  0.4875300000000 1.0
C      1  0.4906580000000  0.6184740000000  0.4977190000000 1.0
C      1  0.4039160000000  0.5751950000000  0.4912260000000 1.0
C      1  0.3881080000000  0.4676080000000  0.4966250000000 1.0
C      1  0.4635970000000  0.3788010000000  0.4899610000000 1.0
C      1  0.3983790000000  0.4524560000000  0.5183020000000 1.0
C      1  0.4741430000000  0.3711580000000  0.5134480000000 1.0
C      1  0.5669630000000  0.3887590000000  0.5136150000000 1.0
C      1  0.6246560000000  0.5042700000000  0.5243710000000 1.0
C      1  0.5819590000000  0.5962820000000  0.5081940000000 1.0
C      1  0.4791810000000  0.6211890000000  0.5228210000000 1.0
C      1  0.3894370000000  0.5636340000000  0.5110930000000 1.0
C      1  0.4445180000000  0.4758230000000  0.5992500000000 1.0
C      1  0.4631920000000  0.4533880000000  0.6002290000000 1.0
C      1  0.5190550000000  0.4554690000000  0.5819610000000 1.0
C      1  0.5470200000000  0.4984020000000  0.5786730000000 1.0
C      1  0.5438750000000  0.5291000000000  0.5802840000000 1.0
C      1  0.4941650000000  0.5507610000000  0.5796430000000 1.0
C      1  0.4540240000000  0.5267030000000  0.5810500000000 1.0
C      1  0.4448820000000  0.5847700000000  0.5197980000000 1.0
C      1  0.3972850000000  0.5122260000000  0.5172360000000 1.0
C      1  0.4347930000000  0.4122080000000  0.5151410000000 1.0
C      1  0.5096070000000  0.4022130000000  0.5195010000000 1.0
C      1  0.5998720000000  0.4546000000000  0.5164910000000 1.0
C      1  0.6070090000000  0.5502920000000  0.5207280000000 1.0
C      1  0.5319500000000  0.5925320000000  0.5154890000000 1.0
C      1  0.5139030000000  0.4670940000000  0.5528510000000 1.0
C      1  0.5287060000000  0.4936260000000  0.5511800000000 1.0
C      1  0.5360190000000  0.5364170000000  0.5489120000000 1.0
C      1  0.4907900000000  0.5366600000000  0.5508540000000 1.0
C      1  0.4645310000000  0.5202990000000  0.5516450000000 1.0
C      1  0.4687100000000  0.4911120000000  0.5441970000000 1.0
C      1  0.4855540000000  0.4677600000000  0.5461230000000 1.0
C      1  0.4553630000000  0.4340040000000  0.4148950000000 1.0
C      1  0.5268700000000  0.4265220000000  0.4149400000000 1.0
C      1  0.5785770000000  0.4701690000000  0.4170360000000 1.0
C      1  0.5619070000000  0.5378510000000  0.4145380000000 1.0
C      1  0.5079910000000  0.5751300000000  0.4157140000000 1.0
C      1  0.4388980000000  0.5635790000000  0.4187020000000 1.0
C      1  0.4239710000000  0.4898520000000  0.4131500000000 1.0
C      1  0.5785410000000  0.4512890000000  0.4607780000000 1.0
C      1  0.5796230000000  0.5258250000000  0.4584310000000 1.0
C      1  0.5250540000000  0.5735870000000  0.4590990000000 1.0
C      1  0.4549430000000  0.5711650000000  0.4614730000000 1.0
C      1  0.4175190000000  0.5104630000000  0.4556990000000 1.0
C      1  0.4421710000000  0.4401350000000  0.4576780000000 1.0
C      1  0.5080600000000  0.4190780000000  0.4581460000000 1.0
C      1  0.5384780000000  0.5096090000000  0.4882300000000 1.0
C      1  0.4985490000000  0.5371980000000  0.4843890000000 1.0
C      1  0.4693600000000  0.5278890000000  0.4848660000000 1.0
C      1  0.4603180000000  0.4981890000000  0.4821290000000 1.0
C      1  0.4779430000000  0.4722470000000  0.4850740000000 1.0
C      1  0.5128600000000  0.4645050000000  0.4844080000000 1.0
C      1  0.5398750000000  0.4784850000000  0.4874220000000 1.0
C      1  0.5543380000000  0.5420040000000  0.5252410000000 1.0
C      1  0.4943470000000  0.5600460000000  0.5280400000000 1.0
C      1  0.4441490000000  0.5353040000000  0.5289340000000 1.0
C      1  0.4515780000000  0.4839100000000  0.5236190000000 1.0
C      1  0.4753110000000  0.4429930000000  0.5265490000000 1.0
C      1  0.5273380000000  0.4493680000000  0.5302990000000 1.0
C      1  0.5483800000000  0.4907210000000  0.5292860000000 1.0
C      1  0.4077990000000  0.5501490000000  0.5483000000000 1.0
C      1  0.4029210000000  0.4660790000000  0.5426850000000 1.0
C      1  0.4734290000000  0.4018470000000  0.5503870000000 1.0
C      1  0.5564510000000  0.4175410000000  0.5474880000000 1.0
C      1  0.6084880000000  0.4928480000000  0.5455000000000 1.0
C      1  0.5688710000000  0.5803260000000  0.5464730000000 1.0
C      1  0.4850100000000  0.6031180000000  0.5457660000000 1.0
C      1  0.5466430000000  0.5603750000000  0.4753570000000 1.0
C      1  0.4784390000000  0.5759840000000  0.4795070000000 1.0
C      1  0.4231250000000  0.5336110000000  0.4736610000000 1.0
C      1  0.4280600000000  0.4609200000000  0.4718780000000 1.0
C      1  0.4862880000000  0.4286080000000  0.4757110000000 1.0
C      1  0.5735160000000  0.4307400000000  0.4801660000000 1.0
C      1  0.5794730000000  0.4978980000000  0.4700910000000 1.0
C      1  0.5753590000000  0.4398010000000  0.5083960000000 1.0
C      1  0.5808200000000  0.5040760000000  0.4991910000000 1.0
C      1  0.5381970000000  0.5611020000000  0.5053220000000 1.0
C      1  0.4711920000000  0.5687170000000  0.5088560000000 1.0
C      1  0.4247160000000  0.5222230000000  0.5062260000000 1.0
C      1  0.4362870000000  0.4511100000000  0.4966280000000 1.0
C      1  0.4928780000000  0.4273100000000  0.5060950000000 1.0
C      1  0.4430700000000  0.4102150000000  0.4642050000000 1.0
C      1  0.5070480000000  0.3905610000000  0.4706730000000 1.0
C      1  0.6046620000000  0.4641040000000  0.4679720000000 1.0
C      1  0.6058790000000  0.5341970000000  0.4737050000000 1.0
C      1  0.5177960000000  0.6015010000000  0.4659330000000 1.0
C      1  0.4450400000000  0.5970370000000  0.4742210000000 1.0
C      1  0.3927330000000  0.4968230000000  0.4637150000000 1.0
C      1  0.5266330000000  0.4181310000000  0.5413590000000 1.0
C      1  0.5990150000000  0.4658760000000  0.5432030000000 1.0
C      1  0.5822460000000  0.5533420000000  0.5382810000000 1.0
C      1  0.5116730000000  0.5872140000000  0.5391290000000 1.0
C      1  0.4347640000000  0.5643140000000  0.5407320000000 1.0
C      1  0.4006170000000  0.4948530000000  0.5425540000000 1.0
C      1  0.4526800000000  0.4204480000000  0.5388180000000 1.0
C      1  0.4843740000000  0.4710060000000  0.6107270000000 1.0
C      1  0.5115570000000  0.4722360000000  0.6035870000000 1.0
C      1  0.5277600000000  0.4947310000000  0.6017460000000 1.0
C      1  0.5223720000000  0.5220950000000  0.6016970000000 1.0
C      1  0.4963830000000  0.5317590000000  0.6001480000000 1.0
C      1  0.4716320000000  0.5184560000000  0.6016250000000 1.0
C      1  0.4658870000000  0.4928870000000  0.6102550000000 1.0
C      1  0.4325520000000  0.4441120000000  0.4298720000000 1.0
C      1  0.5025810000000  0.4160110000000  0.4284820000000 1.0
C      1  0.5731010000000  0.4452720000000  0.4319310000000 1.0
C      1  0.5813170000000  0.5200770000000  0.4290110000000 1.0
C      1  0.5323590000000  0.5748520000000  0.4300910000000 1.0
C      1  0.4603900000000  0.5776170000000  0.4331480000000 1.0
C      1  0.4210870000000  0.5155270000000  0.4259270000000 1.0
C      1  0.5850620000000  0.5371060000000  0.5634810000000 1.0
C      1  0.5242470000000  0.5836320000000  0.5655680000000 1.0
C      1  0.4480330000000  0.5713530000000  0.5657830000000 1.0
C      1  0.4117220000000  0.5044750000000  0.5668320000000 1.0
C      1  0.4410880000000  0.4347220000000  0.5627060000000 1.0
C      1  0.5146350000000  0.4189740000000  0.5688870000000 1.0
C      1  0.5793870000000  0.4606970000000  0.5649280000000 1.0
C      1  0.5719770000000  0.4132290000000  0.5249450000000 1.0
C      1  0.6245350000000  0.5310420000000  0.5266300000000 1.0
C      1  0.5610440000000  0.5983170000000  0.5250460000000 1.0
C      1  0.4575220000000  0.6081330000000  0.5311910000000 1.0
C      1  0.3906390000000  0.5416490000000  0.5265900000000 1.0
C      1  0.4180970000000  0.4340830000000  0.5100360000000 1.0
C      1  0.4876310000000  0.3858290000000  0.5317450000000 1.0
C      1  0.4636350000000  0.5416870000000  0.5093170000000 1.0
C      1  0.4411460000000  0.4992520000000  0.5035890000000 1.0
C      1  0.4610380000000  0.4607070000000  0.5084860000000 1.0
C      1  0.5128970000000  0.4467590000000  0.5063450000000 1.0
C      1  0.5500970000000  0.4654100000000  0.5146650000000 1.0
C      1  0.5569440000000  0.5134230000000  0.5125100000000 1.0
C      1  0.5117140000000  0.5494350000000  0.5075030000000 1.0
C      1  0.5340740000000  0.5308130000000  0.4153870000000 1.0
C      1  0.5100020000000  0.5467340000000  0.4155910000000 1.0
C      1  0.4413790000000  0.5349180000000  0.4203930000000 1.0
C      1  0.4515090000000  0.4842440000000  0.4112700000000 1.0
C      1  0.4660630000000  0.4601110000000  0.4122850000000 1.0
C      1  0.5278180000000  0.4545650000000  0.4130000000000 1.0
C      1  0.5503570000000  0.4719180000000  0.4155810000000 1.0
C      1  0.4739650000000  0.5871610000000  0.5669870000000 1.0
C      1  0.4145900000000  0.5341780000000  0.5701380000000 1.0
C      1  0.4209160000000  0.4566930000000  0.5635130000000 1.0
C      1  0.4853970000000  0.4148610000000  0.5721590000000 1.0
C      1  0.5615490000000  0.4368630000000  0.5676340000000 1.0
C      1  0.5920310000000  0.5081180000000  0.5639060000000 1.0
C      1  0.5526600000000  0.5749900000000  0.5683730000000 1.0
C      1  0.5568560000000  0.4024810000000  0.4450500000000 1.0
C      1  0.6053800000000  0.4899390000000  0.4559230000000 1.0
C      1  0.5773000000000  0.5769070000000  0.4402030000000 1.0
C      1  0.4923640000000  0.6056880000000  0.4524810000000 1.0
C      1  0.4042780000000  0.5670140000000  0.4425770000000 1.0
C      1  0.3925900000000  0.4727730000000  0.4469200000000 1.0
C      1  0.4633640000000  0.3975120000000  0.4478260000000 1.0
C      1  0.5578140000000  0.4780370000000  0.4640920000000 1.0
C      1  0.5505500000000  0.5300680000000  0.4666260000000 1.0
C      1  0.4983190000000  0.5579860000000  0.4634800000000 1.0
C      1  0.4513990000000  0.5402120000000  0.4647350000000 1.0
C      1  0.4418990000000  0.4900900000000  0.4601610000000 1.0
C      1  0.4722150000000  0.4525190000000  0.4627210000000 1.0
C      1  0.5190500000000  0.4472950000000  0.4609840000000 1.0
C      1  0.4115420000000  0.5724740000000  0.4180130000000 1.0
C      1  0.4132690000000  0.4672190000000  0.4269400000000 1.0
C      1  0.4740520000000  0.4131830000000  0.4258340000000 1.0
C      1  0.5538920000000  0.4223630000000  0.4266070000000 1.0
C      1  0.5919440000000  0.4934540000000  0.4283120000000 1.0
C      1  0.5589090000000  0.5650610000000  0.4232950000000 1.0
C      1  0.4860840000000  0.5891560000000  0.4293170000000 1.0
C      1  0.5746200000000  0.4877680000000  0.5752280000000 1.0
C      1  0.5642450000000  0.5492420000000  0.5797830000000 1.0
C      1  0.4996060000000  0.5775760000000  0.5792610000000 1.0
C      1  0.4376370000000  0.5488480000000  0.5811240000000 1.0
C      1  0.4238230000000  0.4799560000000  0.5803300000000 1.0
C      1  0.4629140000000  0.4323330000000  0.5818310000000 1.0
C      1  0.5360170000000  0.4342410000000  0.5820700000000 1.0
C      1  0.5723540000000  0.5783250000000  0.4663300000000 1.0
C      1  0.4742710000000  0.6068730000000  0.4755640000000 1.0
C      1  0.4049940000000  0.5577750000000  0.4679340000000 1.0
C      1  0.3986450000000  0.4603730000000  0.4706770000000 1.0
C      1  0.4798440000000  0.3823230000000  0.4661330000000 1.0
C      1  0.5618620000000  0.4064920000000  0.4714870000000 1.0
C      1  0.6204130000000  0.5092180000000  0.4737750000000 1.0
C      1  0.5143240000000  0.5195330000000  0.5441500000000 1.0
C      1  0.5081330000000  0.5151080000000  0.4509690000000 1.0
C      1  0.5109710000000  0.5125990000000  0.4792630000000 1.0
END
