TITL C-4160-6452-7 -0.00868376710935548 125000 -55.8752961006888 0 0 9 (Cs) n - 1
REM
REM in /rds/project/t2_vol4/rds-t2-cs072/BORA/CARBON/from-Arr/AIRSS/Generating-Clusters/GAP-ML-2020/Higher-Symm/SD-CG/HFTN-CG
REM
REM
REM
REM
REM
REM ./C.cell (b20cbc046b6831c77cfcea5457e17084)
REM AIRSS Version 0.9.1 bugfix July 2018 build 013d7b7c2542+ Fri, 06 Jul 2018 19:26:36 +0100
REM compiler GCC version 9.3.0
REM options -cpp -mtune=generic -march=x86-64 -g -O0
REM seed -1677581053 1556912295 -716916144 -1510384571 453499442 1638450579 1077218733 -686376720 1629762775 -1446573253 -1396388401 1197008176 1798276308 -1783414353 147158223 1425520476 -378195509 -1351781492 -889206001 -1518963977 -657177283 480343809 515505138 -824702693 1271580865 423802587 -1846763172 -1318916366 463834278 1071650763 2078480943 1573437183 1870482588
REM
CELL 1.54180   50.00000   50.00000   50.00000   90.00000   90.00000   90.00000
LATT -1
SFAC C  
C      1  0.5140790000000  0.5000000000000  0.5328060000000 1.0
C      1  0.4882450000000  0.5000000000000  0.5374170000000 1.0
C      1  0.4722870000000  0.5000000000000  0.5164890000000 1.0
C      1  0.4615770000000  0.5000000000000  0.4931460000000 1.0
C      1  0.4717840000000  0.5000000000000  0.4681790000000 1.0
C      1  0.4976580000000  0.5000000000000  0.4673530000000 1.0
C      1  0.5238290000000  0.5000000000000  0.4696990000000 1.0
C      1  0.5329640000000  0.5000000000000  0.4944740000000 1.0
C      1  0.5375760000000  0.5000000000000  0.5204370000000 1.0
END
