TITL C-4154-6224-5 107.391869041462 125000 -224.003098115148 0 0 32 (Oh) n - 1
REM
REM in /rds/project/t2_vol4/rds-t2-cs072/BORA/CARBON/from-Arr/AIRSS/Generating-Clusters/GAP-ML-2020/Higher-Symm/SD-CG/HFTN-CG
REM
REM
REM
REM
REM
REM ./C.cell (b20cbc046b6831c77cfcea5457e17084)
REM AIRSS Version 0.9.1 bugfix July 2018 build 013d7b7c2542+ Fri, 06 Jul 2018 19:26:36 +0100
REM compiler GCC version 9.3.0
REM options -cpp -mtune=generic -march=x86-64 -g -O0
REM seed 2057678560 -2126407022 2014957361 1425267605 -892657676 1020000875 1028517393 -141090465 -1048592683 1069454302 155201032 541814824 1864345303 -1635940490 709032648 -2054871698 -27204251 51044285 127259796 -1634242135 1641387736 -1758163034 1708912374 1584880677 1829085027 -1936291650 -305214797 1240271909 562243506 521925917 1985552628 -1598264586 438442331
REM
CELL 1.54180   50.00000   50.00000   50.00000   90.00000   90.00000   90.00000
LATT -1
SFAC C  
C      1  0.5296340000000  0.5295040000000  0.5296190000000 1.0
C      1  0.4703440000000  0.4704500000000  0.5295520000000 1.0
C      1  0.5295160000000  0.4703320000000  0.5295730000000 1.0
C      1  0.4704630000000  0.5296220000000  0.5295980000000 1.0
C      1  0.4508210000000  0.4853630000000  0.5146940000000 1.0
C      1  0.5491680000000  0.5146140000000  0.5147530000000 1.0
C      1  0.4508800000000  0.5148100000000  0.5147170000000 1.0
C      1  0.5491090000000  0.4851670000000  0.5147300000000 1.0
C      1  0.4704840000000  0.5296680000000  0.4704270000000 1.0
C      1  0.5295370000000  0.4703780000000  0.4704020000000 1.0
C      1  0.4703660000000  0.4704960000000  0.4703810000000 1.0
C      1  0.5296560000000  0.5295500000000  0.4704480000000 1.0
C      1  0.4852650000000  0.4853440000000  0.4508390000000 1.0
C      1  0.5147710000000  0.5147320000000  0.4508730000000 1.0
C      1  0.4853240000000  0.5147910000000  0.4508620000000 1.0
C      1  0.5147120000000  0.4852860000000  0.4508500000000 1.0
C      1  0.4853700000000  0.5491620000000  0.5147560000000 1.0
C      1  0.5146200000000  0.4508150000000  0.5146900000000 1.0
C      1  0.4851730000000  0.4508740000000  0.5146800000000 1.0
C      1  0.5148160000000  0.5491030000000  0.5147670000000 1.0
C      1  0.4853800000000  0.5491850000000  0.4853100000000 1.0
C      1  0.5146300000000  0.4508380000000  0.4852440000000 1.0
C      1  0.4851840000000  0.4508970000000  0.4852330000000 1.0
C      1  0.5148270000000  0.5491260000000  0.4853200000000 1.0
C      1  0.4852290000000  0.4852680000000  0.5491270000000 1.0
C      1  0.5147350000000  0.5146560000000  0.5491610000000 1.0
C      1  0.4852880000000  0.5147140000000  0.5491500000000 1.0
C      1  0.5146760000000  0.4852090000000  0.5491380000000 1.0
C      1  0.5491790000000  0.5146370000000  0.4853060000000 1.0
C      1  0.4508320000000  0.4853860000000  0.4852470000000 1.0
C      1  0.5491200000000  0.4851900000000  0.4852830000000 1.0
C      1  0.4508910000000  0.5148330000000  0.4852700000000 1.0
END
