TITL C-4167-7619-8 -40.147932565795 125000 -651.360441183045 0 0 96 (C3) n - 1
REM
REM in /rds/project/t2_vol4/rds-t2-cs072/BORA/CARBON/from-Arr/AIRSS/Generating-Clusters/GAP-ML-2020/Higher-Symm/SD-CG/HFTN-CG
REM
REM
REM
REM
REM
REM ./C.cell (b20cbc046b6831c77cfcea5457e17084)
REM AIRSS Version 0.9.1 bugfix July 2018 build 013d7b7c2542+ Fri, 06 Jul 2018 19:26:36 +0100
REM compiler GCC version 9.3.0
REM options -cpp -mtune=generic -march=x86-64 -g -O0
REM seed 1555436090 -557442880 -1581239996 -285220534 136409768 -357481385 -147876697 -1602688940 -1943440579 367902112 520928811 231023859 2037099233 1600874592 -970103305 -224520071 600484930 -1460869431 2082679876 -1856910462 -661705769 -1778593041 -134268088 -1558790637 -1095083533 1469077308 546112696 575074772 1111499634 -1412701528 1326717129 -43502082 1355716478
REM
CELL 1.54180   50.00000   50.00000   50.00000   90.00000   90.00000   90.00000
LATT -1
SFAC C  
C      1  0.5642590000000  0.5451520000000  0.4803230000000 1.0
C      1  0.4291010000000  0.5332530000000  0.4794410000000 1.0
C      1  0.5069910000000  0.4221540000000  0.4788750000000 1.0
C      1  0.4983210000000  0.5256070000000  0.5149260000000 1.0
C      1  0.4784200000000  0.4856160000000  0.5144490000000 1.0
C      1  0.5230060000000  0.4883760000000  0.5147290000000 1.0
C      1  0.4611370000000  0.5626680000000  0.4615360000000 1.0
C      1  0.4657990000000  0.4353510000000  0.4604040000000 1.0
C      1  0.5737310000000  0.5030410000000  0.4616380000000 1.0
C      1  0.5664320000000  0.4577810000000  0.5154970000000 1.0
C      1  0.5030900000000  0.5785030000000  0.5162330000000 1.0
C      1  0.4302120000000  0.4632930000000  0.5147670000000 1.0
C      1  0.5441210000000  0.4458370000000  0.4992130000000 1.0
C      1  0.5248540000000  0.5652930000000  0.5001900000000 1.0
C      1  0.4310340000000  0.4888850000000  0.4989570000000 1.0
C      1  0.4766240000000  0.4160420000000  0.4769950000000 1.0
C      1  0.5847650000000  0.5219230000000  0.4785780000000 1.0
C      1  0.4389910000000  0.5626380000000  0.4781130000000 1.0
C      1  0.4499860000000  0.5773440000000  0.5014080000000 1.0
C      1  0.4580090000000  0.4180100000000  0.5000030000000 1.0
C      1  0.5919880000000  0.5046180000000  0.5015590000000 1.0
C      1  0.5559170000000  0.5696720000000  0.4984970000000 1.0
C      1  0.4117400000000  0.5136120000000  0.4971610000000 1.0
C      1  0.5323860000000  0.4167820000000  0.4969710000000 1.0
C      1  0.4641080000000  0.5367020000000  0.4494020000000 1.0
C      1  0.4869980000000  0.4510090000000  0.4487530000000 1.0
C      1  0.5497650000000  0.5136740000000  0.4496830000000 1.0
C      1  0.4107620000000  0.5037290000000  0.5460950000000 1.0
C      1  0.5406260000000  0.4204500000000  0.5460800000000 1.0
C      1  0.5478120000000  0.5745490000000  0.5475240000000 1.0
C      1  0.4475940000000  0.4420570000000  0.5533500000000 1.0
C      1  0.5754950000000  0.4831140000000  0.5544560000000 1.0
C      1  0.4759810000000  0.5733500000000  0.5547070000000 1.0
C      1  0.5099760000000  0.5574510000000  0.4746470000000 1.0
C      1  0.4456830000000  0.4801410000000  0.4735750000000 1.0
C      1  0.5447860000000  0.4631150000000  0.4739880000000 1.0
C      1  0.5154230000000  0.4593480000000  0.5691390000000 1.0
C      1  0.5263510000000  0.5330770000000  0.5698730000000 1.0
C      1  0.4570340000000  0.5056800000000  0.5692260000000 1.0
C      1  0.5239840000000  0.5204010000000  0.4105210000000 1.0
C      1  0.4718180000000  0.5113510000000  0.4101400000000 1.0
C      1  0.5057400000000  0.4707000000000  0.4099640000000 1.0
C      1  0.5227080000000  0.5152660000000  0.5268150000000 1.0
C      1  0.4749860000000  0.5118030000000  0.5265100000000 1.0
C      1  0.5018490000000  0.4722070000000  0.5263030000000 1.0
C      1  0.5816150000000  0.4769950000000  0.4995690000000 1.0
C      1  0.4791240000000  0.5821870000000  0.4999400000000 1.0
C      1  0.4392730000000  0.4408370000000  0.4984250000000 1.0
C      1  0.4726930000000  0.4378690000000  0.5439140000000 1.0
C      1  0.5667280000000  0.5070270000000  0.5450820000000 1.0
C      1  0.4598120000000  0.5538860000000  0.5448960000000 1.0
C      1  0.5284150000000  0.5115910000000  0.4776850000000 1.0
C      1  0.4761240000000  0.5190090000000  0.4774530000000 1.0
C      1  0.4958490000000  0.4700160000000  0.4771200000000 1.0
C      1  0.4386280000000  0.5224610000000  0.4534540000000 1.0
C      1  0.5120000000000  0.4360250000000  0.4530870000000 1.0
C      1  0.5501690000000  0.5427800000000  0.4542770000000 1.0
C      1  0.4545060000000  0.5310240000000  0.4976290000000 1.0
C      1  0.4959200000000  0.4451120000000  0.4970840000000 1.0
C      1  0.5496150000000  0.5239290000000  0.4981090000000 1.0
C      1  0.5711290000000  0.5116140000000  0.5176190000000 1.0
C      1  0.4540920000000  0.5556430000000  0.5173500000000 1.0
C      1  0.4744850000000  0.4322760000000  0.5163440000000 1.0
C      1  0.4811290000000  0.5322530000000  0.4257270000000 1.0
C      1  0.4827300000000  0.4681800000000  0.4251530000000 1.0
C      1  0.5374200000000  0.5016000000000  0.4257700000000 1.0
C      1  0.4961860000000  0.4542180000000  0.5493240000000 1.0
C      1  0.5407370000000  0.5191540000000  0.5501700000000 1.0
C      1  0.4622220000000  0.5252700000000  0.5497760000000 1.0
C      1  0.5331540000000  0.4540420000000  0.4478200000000 1.0
C      1  0.5240790000000  0.5521400000000  0.4486610000000 1.0
C      1  0.4436590000000  0.4952370000000  0.4476830000000 1.0
C      1  0.4334050000000  0.4899520000000  0.5578360000000 1.0
C      1  0.5410420000000  0.4468450000000  0.5580600000000 1.0
C      1  0.5245510000000  0.5616110000000  0.5590100000000 1.0
C      1  0.5226970000000  0.4841290000000  0.4848050000000 1.0
C      1  0.5026450000000  0.5277220000000  0.4850870000000 1.0
C      1  0.4749190000000  0.4885630000000  0.4845710000000 1.0
C      1  0.4025820000000  0.5142320000000  0.5236110000000 1.0
C      1  0.5359920000000  0.4083120000000  0.5234110000000 1.0
C      1  0.5610130000000  0.5768000000000  0.5250870000000 1.0
C      1  0.4830590000000  0.5009470000000  0.5827770000000 1.0
C      1  0.5062860000000  0.4841350000000  0.5827570000000 1.0
C      1  0.5092320000000  0.5126550000000  0.5830340000000 1.0
C      1  0.4624120000000  0.4898240000000  0.4257660000000 1.0
C      1  0.5288260000000  0.4731790000000  0.4259950000000 1.0
C      1  0.5100310000000  0.5390150000000  0.4264860000000 1.0
C      1  0.4482820000000  0.5103020000000  0.5154210000000 1.0
C      1  0.5166820000000  0.4499250000000  0.5152630000000 1.0
C      1  0.5347680000000  0.5393460000000  0.5161810000000 1.0
C      1  0.5708910000000  0.4768940000000  0.4736470000000 1.0
C      1  0.4850000000000  0.5731750000000  0.4740310000000 1.0
C      1  0.4445650000000  0.4506570000000  0.4726850000000 1.0
C      1  0.5015120000000  0.5741860000000  0.5454050000000 1.0
C      1  0.4342590000000  0.4638310000000  0.5440160000000 1.0
C      1  0.5634610000000  0.4607620000000  0.5447280000000 1.0
END
