TITL C-4162-3936-1 -1.13706058706615 125000 -1364.85203088915 0 0 190 (C1) n - 1
REM
REM in /rds/project/t2_vol4/rds-t2-cs072/BORA/CARBON/from-Arr/AIRSS/Generating-Clusters/GAP-ML-2020/Higher-Symm/SD-CG/HFTN-CG/C160-200
REM
REM
REM
REM
REM
REM ./C.cell (6b4489405718ea1b717e0baf1da4c2d9)
REM AIRSS Version 0.9.1 bugfix July 2018 build 013d7b7c2542+ Fri, 06 Jul 2018 19:26:36 +0100
REM compiler GCC version 9.3.0
REM options -cpp -mtune=generic -march=x86-64 -g -O0
REM seed -1939299726 -1379562051 1064268607 794889419 221197728 599178765 185283544 -1395220632 -1945143960 -2016939676 1838660038 -725639663 -1151826627 797149119 -299723221 653621717 -90616028 1916334299 672758680 1834026785 -784017187 -500261026 -9626686 -1315990597 1852531916 667399220 -1626792587 1648235218 -1455264263 115403303 -1108680355 2102308836 -1372982762
REM
CELL 1.54180   50.00000   50.00000   50.00000   90.00000   90.00000   90.00000
LATT -1
SFAC C  
C      1  0.5630230000000  0.4504260000000  0.5808380000000 1.0
C      1  0.5577930000000  0.4113790000000  0.5113570000000 1.0
C      1  0.5605280000000  0.4315610000000  0.4320290000000 1.0
C      1  0.5674790000000  0.5013460000000  0.3988250000000 1.0
C      1  0.5619640000000  0.5830020000000  0.4480930000000 1.0
C      1  0.5672630000000  0.5975810000000  0.5241780000000 1.0
C      1  0.5604150000000  0.5278900000000  0.5868110000000 1.0
C      1  0.5410760000000  0.5038960000000  0.3867430000000 1.0
C      1  0.5354200000000  0.5880420000000  0.4371750000000 1.0
C      1  0.5407560000000  0.6077230000000  0.5295920000000 1.0
C      1  0.5357200000000  0.5387960000000  0.5995350000000 1.0
C      1  0.5391540000000  0.4451670000000  0.5979900000000 1.0
C      1  0.5345720000000  0.3941250000000  0.5189770000000 1.0
C      1  0.5348060000000  0.4189630000000  0.4271180000000 1.0
C      1  0.5775280000000  0.4788680000000  0.4141260000000 1.0
C      1  0.5767520000000  0.5615740000000  0.4371700000000 1.0
C      1  0.5773430000000  0.5881540000000  0.4985360000000 1.0
C      1  0.5785160000000  0.5476050000000  0.5743890000000 1.0
C      1  0.5785460000000  0.4785230000000  0.5857690000000 1.0
C      1  0.5747890000000  0.4215840000000  0.5343240000000 1.0
C      1  0.5671520000000  0.4314100000000  0.4606630000000 1.0
C      1  0.5405670000000  0.4551460000000  0.3971300000000 1.0
C      1  0.5436670000000  0.5532810000000  0.4009590000000 1.0
C      1  0.5407510000000  0.6099420000000  0.4794480000000 1.0
C      1  0.5436080000000  0.5823580000000  0.5741350000000 1.0
C      1  0.5419220000000  0.4928240000000  0.6128360000000 1.0
C      1  0.5411150000000  0.4096290000000  0.5662950000000 1.0
C      1  0.5404700000000  0.3929040000000  0.4710430000000 1.0
C      1  0.3809550000000  0.4708130000000  0.4992640000000 1.0
C      1  0.3873730000000  0.4853590000000  0.4764490000000 1.0
C      1  0.3665040000000  0.5077420000000  0.4756680000000 1.0
C      1  0.3680410000000  0.5225900000000  0.4966290000000 1.0
C      1  0.3847640000000  0.5202480000000  0.5203510000000 1.0
C      1  0.3774500000000  0.4942210000000  0.5282950000000 1.0
C      1  0.3636280000000  0.4733200000000  0.5198140000000 1.0
C      1  0.5398000000000  0.4423860000000  0.4734040000000 1.0
C      1  0.5359090000000  0.4861170000000  0.4533320000000 1.0
C      1  0.5302340000000  0.5300930000000  0.4436790000000 1.0
C      1  0.5363350000000  0.5494980000000  0.4885080000000 1.0
C      1  0.5338950000000  0.5523680000000  0.5320940000000 1.0
C      1  0.5392870000000  0.4883740000000  0.5613480000000 1.0
C      1  0.5271740000000  0.4538470000000  0.5427400000000 1.0
C      1  0.5240300000000  0.4634750000000  0.4629870000000 1.0
C      1  0.5213550000000  0.5053590000000  0.4375550000000 1.0
C      1  0.5215560000000  0.5387810000000  0.4677220000000 1.0
C      1  0.5178530000000  0.5580420000000  0.5097060000000 1.0
C      1  0.5321640000000  0.5268450000000  0.5404200000000 1.0
C      1  0.5129250000000  0.4772640000000  0.5535760000000 1.0
C      1  0.5249580000000  0.4523520000000  0.5157310000000 1.0
C      1  0.4252410000000  0.5332760000000  0.4941410000000 1.0
C      1  0.4137680000000  0.5255580000000  0.5227200000000 1.0
C      1  0.4254180000000  0.4979780000000  0.5345050000000 1.0
C      1  0.4275740000000  0.4691790000000  0.5210700000000 1.0
C      1  0.4284290000000  0.4641390000000  0.4904000000000 1.0
C      1  0.4162740000000  0.4852550000000  0.4690990000000 1.0
C      1  0.4248790000000  0.5149050000000  0.4705730000000 1.0
C      1  0.4783960000000  0.5978710000000  0.5151290000000 1.0
C      1  0.4760530000000  0.5616640000000  0.5876170000000 1.0
C      1  0.4769830000000  0.4634450000000  0.5927860000000 1.0
C      1  0.4741620000000  0.4045710000000  0.5401030000000 1.0
C      1  0.4728830000000  0.4057640000000  0.4469080000000 1.0
C      1  0.4749590000000  0.4884600000000  0.3913720000000 1.0
C      1  0.4766480000000  0.5668860000000  0.4217870000000 1.0
C      1  0.5276000000000  0.4677180000000  0.6114170000000 1.0
C      1  0.5247400000000  0.3970190000000  0.5461390000000 1.0
C      1  0.5249120000000  0.4002110000000  0.4473220000000 1.0
C      1  0.5268660000000  0.4785020000000  0.3866950000000 1.0
C      1  0.5261270000000  0.5720740000000  0.4142440000000 1.0
C      1  0.5273640000000  0.6141240000000  0.5046690000000 1.0
C      1  0.5266160000000  0.5655720000000  0.5904240000000 1.0
C      1  0.5294370000000  0.5307630000000  0.3885390000000 1.0
C      1  0.5225580000000  0.6044070000000  0.4582310000000 1.0
C      1  0.5286750000000  0.5988670000000  0.5549670000000 1.0
C      1  0.5240080000000  0.5151430000000  0.6121120000000 1.0
C      1  0.5252160000000  0.4231000000000  0.5862170000000 1.0
C      1  0.5233090000000  0.3868080000000  0.4933750000000 1.0
C      1  0.5224210000000  0.4350020000000  0.4059480000000 1.0
C      1  0.4286330000000  0.4718680000000  0.5786680000000 1.0
C      1  0.4286240000000  0.4198480000000  0.5286410000000 1.0
C      1  0.4286050000000  0.4275870000000  0.4548170000000 1.0
C      1  0.4305400000000  0.4897600000000  0.4162850000000 1.0
C      1  0.4322680000000  0.5583400000000  0.4404200000000 1.0
C      1  0.4291870000000  0.5823360000000  0.5096910000000 1.0
C      1  0.4318680000000  0.5441300000000  0.5711940000000 1.0
C      1  0.5787090000000  0.4506670000000  0.4998450000000 1.0
C      1  0.5844600000000  0.4777350000000  0.4623190000000 1.0
C      1  0.5927790000000  0.5180160000000  0.4352880000000 1.0
C      1  0.5876470000000  0.5428990000000  0.4819660000000 1.0
C      1  0.5941390000000  0.5596530000000  0.5308310000000 1.0
C      1  0.5831570000000  0.5111710000000  0.5487610000000 1.0
C      1  0.5830120000000  0.4666850000000  0.5432210000000 1.0
C      1  0.4778780000000  0.5683260000000  0.4500360000000 1.0
C      1  0.4897520000000  0.5692440000000  0.5096530000000 1.0
C      1  0.4826800000000  0.5342760000000  0.5826100000000 1.0
C      1  0.4864060000000  0.4791830000000  0.5670700000000 1.0
C      1  0.4777060000000  0.4169790000000  0.5147890000000 1.0
C      1  0.4776580000000  0.4326710000000  0.4416170000000 1.0
C      1  0.4925190000000  0.5073520000000  0.4314690000000 1.0
C      1  0.4501390000000  0.4773430000000  0.5963190000000 1.0
C      1  0.4482940000000  0.4110370000000  0.5488550000000 1.0
C      1  0.4466980000000  0.4052350000000  0.4589400000000 1.0
C      1  0.4494690000000  0.4755640000000  0.3999090000000 1.0
C      1  0.4512160000000  0.5567140000000  0.4171280000000 1.0
C      1  0.4508180000000  0.5982390000000  0.5006330000000 1.0
C      1  0.4507320000000  0.5665150000000  0.5761010000000 1.0
C      1  0.4308590000000  0.5744470000000  0.4634030000000 1.0
C      1  0.4313060000000  0.5743160000000  0.5358390000000 1.0
C      1  0.4310400000000  0.5180780000000  0.5814180000000 1.0
C      1  0.4274490000000  0.4472540000000  0.5664970000000 1.0
C      1  0.4283170000000  0.4148390000000  0.5012030000000 1.0
C      1  0.4298400000000  0.4464480000000  0.4342120000000 1.0
C      1  0.4308710000000  0.5169190000000  0.4171010000000 1.0
C      1  0.4525300000000  0.5311400000000  0.4051260000000 1.0
C      1  0.4494670000000  0.5953520000000  0.4726880000000 1.0
C      1  0.4512970000000  0.5844600000000  0.5541940000000 1.0
C      1  0.4501200000000  0.5052960000000  0.5993300000000 1.0
C      1  0.4485230000000  0.4281850000000  0.5716240000000 1.0
C      1  0.4470920000000  0.3985070000000  0.4863550000000 1.0
C      1  0.4480780000000  0.4491100000000  0.4103700000000 1.0
C      1  0.5634660000000  0.4066120000000  0.4795420000000 1.0
C      1  0.5643460000000  0.4536190000000  0.4129020000000 1.0
C      1  0.5692960000000  0.5501920000000  0.4116770000000 1.0
C      1  0.5648270000000  0.5960450000000  0.4743960000000 1.0
C      1  0.5700200000000  0.5742290000000  0.5687190000000 1.0
C      1  0.5660420000000  0.4993620000000  0.5995090000000 1.0
C      1  0.5652480000000  0.4230430000000  0.5614930000000 1.0
C      1  0.4845160000000  0.5282790000000  0.5535930000000 1.0
C      1  0.4710980000000  0.4832310000000  0.5418940000000 1.0
C      1  0.4735010000000  0.4478190000000  0.5099990000000 1.0
C      1  0.4744110000000  0.4556890000000  0.4629010000000 1.0
C      1  0.4722820000000  0.4999550000000  0.4511190000000 1.0
C      1  0.4716780000000  0.5416590000000  0.4687060000000 1.0
C      1  0.4721800000000  0.5452010000000  0.5137820000000 1.0
C      1  0.4763030000000  0.5968400000000  0.5453270000000 1.0
C      1  0.4755290000000  0.5161130000000  0.6028350000000 1.0
C      1  0.4737410000000  0.4346040000000  0.5850100000000 1.0
C      1  0.4733300000000  0.3959010000000  0.4967420000000 1.0
C      1  0.4733180000000  0.4379970000000  0.4138300000000 1.0
C      1  0.4797900000000  0.5165460000000  0.4018090000000 1.0
C      1  0.4742670000000  0.5943520000000  0.4605250000000 1.0
C      1  0.4287400000000  0.4747810000000  0.4424590000000 1.0
C      1  0.4281130000000  0.5296660000000  0.4440400000000 1.0
C      1  0.4224520000000  0.5629290000000  0.4884990000000 1.0
C      1  0.4276920000000  0.5461530000000  0.5419800000000 1.0
C      1  0.4213900000000  0.4964000000000  0.5647390000000 1.0
C      1  0.4196120000000  0.4457050000000  0.5381070000000 1.0
C      1  0.4210350000000  0.4359900000000  0.4822040000000 1.0
C      1  0.4546240000000  0.5416690000000  0.4922030000000 1.0
C      1  0.4605640000000  0.5330780000000  0.5378750000000 1.0
C      1  0.4537980000000  0.5052590000000  0.5370850000000 1.0
C      1  0.4571450000000  0.4618120000000  0.5293630000000 1.0
C      1  0.4575500000000  0.4556140000000  0.4863150000000 1.0
C      1  0.4597720000000  0.4753090000000  0.4484360000000 1.0
C      1  0.4542410000000  0.5211560000000  0.4578150000000 1.0
C      1  0.4999420000000  0.5762940000000  0.5840970000000 1.0
C      1  0.4994160000000  0.4747490000000  0.6110590000000 1.0
C      1  0.4974130000000  0.4019090000000  0.5559400000000 1.0
C      1  0.4973990000000  0.3939730000000  0.4553110000000 1.0
C      1  0.4983630000000  0.4718010000000  0.3884720000000 1.0
C      1  0.5000020000000  0.5619450000000  0.4068150000000 1.0
C      1  0.4994050000000  0.6120590000000  0.4984480000000 1.0
C      1  0.4980910000000  0.5315860000000  0.5085230000000 1.0
C      1  0.5051240000000  0.5167240000000  0.5329630000000 1.0
C      1  0.4984600000000  0.4874800000000  0.5282340000000 1.0
C      1  0.5002580000000  0.4643890000000  0.5064640000000 1.0
C      1  0.4992180000000  0.4705880000000  0.4765370000000 1.0
C      1  0.4909240000000  0.4987850000000  0.4727040000000 1.0
C      1  0.4972280000000  0.5263540000000  0.4792590000000 1.0
C      1  0.4969040000000  0.6075060000000  0.4702780000000 1.0
C      1  0.5004770000000  0.5950460000000  0.5619980000000 1.0
C      1  0.4978340000000  0.5030060000000  0.6132820000000 1.0
C      1  0.4971880000000  0.4181640000000  0.5797350000000 1.0
C      1  0.4965830000000  0.3872620000000  0.4829360000000 1.0
C      1  0.4963270000000  0.4453610000000  0.3998630000000 1.0
C      1  0.5016870000000  0.5363820000000  0.3933770000000 1.0
C      1  0.5915810000000  0.4892970000000  0.4374580000000 1.0
C      1  0.5906810000000  0.5414170000000  0.4530530000000 1.0
C      1  0.5919850000000  0.5633060000000  0.5022490000000 1.0
C      1  0.5921680000000  0.5380070000000  0.5498260000000 1.0
C      1  0.5912440000000  0.4869030000000  0.5601410000000 1.0
C      1  0.5888850000000  0.4462900000000  0.5254490000000 1.0
C      1  0.5851440000000  0.4519000000000  0.4728940000000 1.0
C      1  0.5541860000000  0.4629980000000  0.5544170000000 1.0
C      1  0.5469890000000  0.4417810000000  0.5008190000000 1.0
C      1  0.5595740000000  0.4922290000000  0.4706120000000 1.0
C      1  0.5798130000000  0.5241390000000  0.4106210000000 1.0
C      1  0.5611560000000  0.5337830000000  0.4926330000000 1.0
C      1  0.5805100000000  0.5817510000000  0.5433860000000 1.0
C      1  0.5518320000000  0.5129900000000  0.5559290000000 1.0
C      1  0.5585240000000  0.5057700000000  0.4948520000000 1.0
END
