TITL C-4166-3825-2 26.8834696410555 125000 -1307.55088334158 0 0 188 (C1) n - 1
REM
REM in /rds/project/t2_vol4/rds-t2-cs072/BORA/CARBON/from-Arr/AIRSS/Generating-Clusters/GAP-ML-2020/Higher-Symm/SD-CG/HFTN-CG/C160-200
REM
REM
REM
REM
REM
REM ./C.cell (6b4489405718ea1b717e0baf1da4c2d9)
REM AIRSS Version 0.9.1 bugfix July 2018 build 013d7b7c2542+ Fri, 06 Jul 2018 19:26:36 +0100
REM compiler GCC version 9.3.0
REM options -cpp -mtune=generic -march=x86-64 -g -O0
REM seed 1452794210 -1556368419 -726619551 -1401600925 945774699 -1499419612 522458563 -1908651422 -1411155432 -1871986491 1365725746 1458517175 -1606524888 -1221537601 765362977 352741893 2003505388 1649031850 953954516 12350219 192609711 636634102 -979587373 1131172149 -1171936690 752816358 1086267809 -2018173911 -751751609 -1413332589 711207972 -208064669 -1019404503
REM
CELL 1.54180   50.00000   50.00000   50.00000   90.00000   90.00000   90.00000
LATT -1
SFAC C  
C      1  0.6150040000000  0.4759290000000  0.5151610000000 1.0
C      1  0.5844300000000  0.4761320000000  0.4193620000000 1.0
C      1  0.4892420000000  0.4770420000000  0.3839570000000 1.0
C      1  0.4015260000000  0.4761440000000  0.4364710000000 1.0
C      1  0.3897140000000  0.4768150000000  0.5374740000000 1.0
C      1  0.4605470000000  0.4768280000000  0.6109700000000 1.0
C      1  0.5609450000000  0.4754260000000  0.5995730000000 1.0
C      1  0.6008120000000  0.4609500000000  0.5662490000000 1.0
C      1  0.6141730000000  0.4623190000000  0.4635650000000 1.0
C      1  0.5433740000000  0.4625850000000  0.3879700000000 1.0
C      1  0.4397390000000  0.4626480000000  0.3973210000000 1.0
C      1  0.3805260000000  0.4628630000000  0.4849450000000 1.0
C      1  0.4127240000000  0.4631960000000  0.5843350000000 1.0
C      1  0.5111720000000  0.4608160000000  0.6196420000000 1.0
C      1  0.4712800000000  0.5765870000000  0.5762240000000 1.0
C      1  0.5425840000000  0.5771940000000  0.5701710000000 1.0
C      1  0.5814430000000  0.5754050000000  0.5105880000000 1.0
C      1  0.5614460000000  0.5753100000000  0.4424790000000 1.0
C      1  0.4930900000000  0.5764210000000  0.4205680000000 1.0
C      1  0.4279610000000  0.5760470000000  0.4555760000000 1.0
C      1  0.4189280000000  0.5765930000000  0.5269850000000 1.0
C      1  0.5003170000000  0.4081040000000  0.5249250000000 1.0
C      1  0.5273700000000  0.3973070000000  0.5182810000000 1.0
C      1  0.5340870000000  0.3960160000000  0.4906100000000 1.0
C      1  0.5140140000000  0.3985700000000  0.4697650000000 1.0
C      1  0.4867310000000  0.4065850000000  0.4771030000000 1.0
C      1  0.4642650000000  0.3974330000000  0.4952990000000 1.0
C      1  0.4721260000000  0.3984850000000  0.5230320000000 1.0
C      1  0.5062810000000  0.4297520000000  0.5459170000000 1.0
C      1  0.5455150000000  0.4127270000000  0.5347320000000 1.0
C      1  0.5539470000000  0.4165550000000  0.4878400000000 1.0
C      1  0.5243000000000  0.4183780000000  0.4516220000000 1.0
C      1  0.4752610000000  0.4287300000000  0.4589010000000 1.0
C      1  0.4423090000000  0.4133860000000  0.4870640000000 1.0
C      1  0.4565480000000  0.4170550000000  0.5380500000000 1.0
C      1  0.5582950000000  0.4887980000000  0.4819760000000 1.0
C      1  0.5254050000000  0.4891250000000  0.4407710000000 1.0
C      1  0.4686110000000  0.4865740000000  0.4444470000000 1.0
C      1  0.4402460000000  0.4837060000000  0.4907620000000 1.0
C      1  0.4542760000000  0.4894410000000  0.5430780000000 1.0
C      1  0.5048370000000  0.4865840000000  0.5650870000000 1.0
C      1  0.5515960000000  0.4851850000000  0.5369470000000 1.0
C      1  0.5306990000000  0.4788830000000  0.5755420000000 1.0
C      1  0.5763150000000  0.4793940000000  0.5232240000000 1.0
C      1  0.5668430000000  0.4812400000000  0.4550080000000 1.0
C      1  0.5084130000000  0.4823200000000  0.4178040000000 1.0
C      1  0.4401540000000  0.4793520000000  0.4447510000000 1.0
C      1  0.4218290000000  0.4795970000000  0.5133900000000 1.0
C      1  0.4587570000000  0.4822850000000  0.5720830000000 1.0
C      1  0.5318310000000  0.5544700000000  0.4099740000000 1.0
C      1  0.4504010000000  0.5546760000000  0.4225160000000 1.0
C      1  0.4056810000000  0.5521800000000  0.4905760000000 1.0
C      1  0.4327130000000  0.5552050000000  0.5678540000000 1.0
C      1  0.5108320000000  0.5549910000000  0.5935930000000 1.0
C      1  0.5800760000000  0.5542510000000  0.5505060000000 1.0
C      1  0.5917050000000  0.5533890000000  0.4683760000000 1.0
C      1  0.5765850000000  0.4357800000000  0.4468480000000 1.0
C      1  0.5073510000000  0.4363720000000  0.4071730000000 1.0
C      1  0.4313100000000  0.4355780000000  0.4366020000000 1.0
C      1  0.4073190000000  0.4356620000000  0.5158730000000 1.0
C      1  0.4532660000000  0.4362710000000  0.5828180000000 1.0
C      1  0.5351960000000  0.4350080000000  0.5860040000000 1.0
C      1  0.5894800000000  0.4346710000000  0.5262970000000 1.0
C      1  0.4760910000000  0.5651100000000  0.5213310000000 1.0
C      1  0.5187150000000  0.5492040000000  0.5364630000000 1.0
C      1  0.5331060000000  0.5477770000000  0.5116980000000 1.0
C      1  0.5259650000000  0.5545120000000  0.4836270000000 1.0
C      1  0.5000990000000  0.5454340000000  0.4717060000000 1.0
C      1  0.4731410000000  0.5471620000000  0.4786810000000 1.0
C      1  0.4606970000000  0.5514750000000  0.5036660000000 1.0
C      1  0.5450220000000  0.5315340000000  0.4190260000000 1.0
C      1  0.4659440000000  0.5313240000000  0.4173920000000 1.0
C      1  0.4129990000000  0.5285180000000  0.4763580000000 1.0
C      1  0.4263250000000  0.5315600000000  0.5541640000000 1.0
C      1  0.4954230000000  0.5311970000000  0.5930260000000 1.0
C      1  0.5698920000000  0.5304000000000  0.5615690000000 1.0
C      1  0.5908500000000  0.5305380000000  0.4850780000000 1.0
C      1  0.4827070000000  0.4657220000000  0.5704100000000 1.0
C      1  0.5441140000000  0.4612820000000  0.5541270000000 1.0
C      1  0.5664550000000  0.4638790000000  0.4994920000000 1.0
C      1  0.5430160000000  0.4650290000000  0.4476500000000 1.0
C      1  0.4880240000000  0.4655950000000  0.4306900000000 1.0
C      1  0.4364740000000  0.4619250000000  0.4694080000000 1.0
C      1  0.4388850000000  0.4648060000000  0.5327300000000 1.0
C      1  0.4873480000000  0.4523770000000  0.5432210000000 1.0
C      1  0.5325590000000  0.4392030000000  0.5332670000000 1.0
C      1  0.5410770000000  0.4441020000000  0.4979850000000 1.0
C      1  0.5254310000000  0.4466850000000  0.4663230000000 1.0
C      1  0.4957420000000  0.4525800000000  0.4584090000000 1.0
C      1  0.4553600000000  0.4385730000000  0.4787510000000 1.0
C      1  0.4624090000000  0.4450810000000  0.5280630000000 1.0
C      1  0.5084040000000  0.4947400000000  0.4665010000000 1.0
C      1  0.4844910000000  0.4785210000000  0.4696190000000 1.0
C      1  0.4709670000000  0.4762430000000  0.4967360000000 1.0
C      1  0.4798910000000  0.4911730000000  0.5216940000000 1.0
C      1  0.5015670000000  0.4775230000000  0.5353180000000 1.0
C      1  0.5261170000000  0.4833980000000  0.5203980000000 1.0
C      1  0.5279460000000  0.4911540000000  0.4875250000000 1.0
C      1  0.4046410000000  0.5522920000000  0.5192440000000 1.0
C      1  0.4553060000000  0.5541570000000  0.5856040000000 1.0
C      1  0.5388780000000  0.5541340000000  0.5882320000000 1.0
C      1  0.5928530000000  0.5527530000000  0.5250750000000 1.0
C      1  0.5795390000000  0.5523510000000  0.4421620000000 1.0
C      1  0.5034080000000  0.5537660000000  0.4054330000000 1.0
C      1  0.4265270000000  0.5526340000000  0.4384560000000 1.0
C      1  0.5628640000000  0.5190270000000  0.4867250000000 1.0
C      1  0.5313210000000  0.5205990000000  0.4429040000000 1.0
C      1  0.4734510000000  0.5161450000000  0.4426560000000 1.0
C      1  0.4393430000000  0.5137560000000  0.4860470000000 1.0
C      1  0.4503260000000  0.5190110000000  0.5410110000000 1.0
C      1  0.5006350000000  0.5159610000000  0.5671800000000 1.0
C      1  0.5515290000000  0.5152240000000  0.5428170000000 1.0
C      1  0.5170780000000  0.5896260000000  0.5614440000000 1.0
C      1  0.5595030000000  0.5885270000000  0.5252920000000 1.0
C      1  0.5599170000000  0.5869170000000  0.4688750000000 1.0
C      1  0.5152610000000  0.5892250000000  0.4351730000000 1.0
C      1  0.4521230000000  0.5911400000000  0.4515320000000 1.0
C      1  0.4291890000000  0.5908200000000  0.5038570000000 1.0
C      1  0.4605870000000  0.5884240000000  0.5519880000000 1.0
C      1  0.5697050000000  0.4228410000000  0.5438530000000 1.0
C      1  0.5761160000000  0.4251700000000  0.4732050000000 1.0
C      1  0.5274040000000  0.4260570000000  0.4247850000000 1.0
C      1  0.4597500000000  0.4290090000000  0.4337730000000 1.0
C      1  0.4167100000000  0.4241690000000  0.4910720000000 1.0
C      1  0.4408690000000  0.4246450000000  0.5599300000000 1.0
C      1  0.5091570000000  0.4283610000000  0.5760320000000 1.0
C      1  0.4641940000000  0.6058210000000  0.4747130000000 1.0
C      1  0.4550830000000  0.6025460000000  0.5022760000000 1.0
C      1  0.4774970000000  0.5932500000000  0.5271520000000 1.0
C      1  0.5106160000000  0.5978150000000  0.5340320000000 1.0
C      1  0.5334160000000  0.5960610000000  0.5143230000000 1.0
C      1  0.5330220000000  0.5879380000000  0.4828540000000 1.0
C      1  0.5140170000000  0.6008250000000  0.4617980000000 1.0
C      1  0.5438050000000  0.5339890000000  0.4682300000000 1.0
C      1  0.5026470000000  0.5230840000000  0.4540740000000 1.0
C      1  0.4594150000000  0.5257900000000  0.4666990000000 1.0
C      1  0.4488890000000  0.5271330000000  0.5112850000000 1.0
C      1  0.4787010000000  0.5272270000000  0.5491310000000 1.0
C      1  0.5254670000000  0.5270120000000  0.5533130000000 1.0
C      1  0.5473520000000  0.5244810000000  0.5134680000000 1.0
C      1  0.5157450000000  0.4615100000000  0.3943710000000 1.0
C      1  0.4263780000000  0.4603240000000  0.4225020000000 1.0
C      1  0.3938520000000  0.4608760000000  0.5105860000000 1.0
C      1  0.4408530000000  0.4618610000000  0.5903960000000 1.0
C      1  0.5333860000000  0.4597630000000  0.6014760000000 1.0
C      1  0.5998860000000  0.4596090000000  0.5373300000000 1.0
C      1  0.5920430000000  0.4605950000000  0.4455950000000 1.0
C      1  0.6125170000000  0.4593320000000  0.4906120000000 1.0
C      1  0.5635280000000  0.4595400000000  0.4061160000000 1.0
C      1  0.4664980000000  0.4600240000000  0.3926780000000 1.0
C      1  0.3918370000000  0.4594390000000  0.4598490000000 1.0
C      1  0.4016610000000  0.4599250000000  0.5592880000000 1.0
C      1  0.4847930000000  0.4590370000000  0.6125430000000 1.0
C      1  0.5788880000000  0.4580920000000  0.5826190000000 1.0
C      1  0.5528170000000  0.4429350000000  0.4285900000000 1.0
C      1  0.4783420000000  0.4427770000000  0.4140190000000 1.0
C      1  0.4145040000000  0.4414320000000  0.4644800000000 1.0
C      1  0.4198330000000  0.4418180000000  0.5443250000000 1.0
C      1  0.4830190000000  0.4417490000000  0.5881930000000 1.0
C      1  0.5602500000000  0.4400780000000  0.5685950000000 1.0
C      1  0.5884960000000  0.4421760000000  0.4959250000000 1.0
C      1  0.5783820000000  0.5006940000000  0.4318930000000 1.0
C      1  0.4960350000000  0.5015660000000  0.3963540000000 1.0
C      1  0.4163100000000  0.4999190000000  0.4398280000000 1.0
C      1  0.4018890000000  0.5005930000000  0.5282730000000 1.0
C      1  0.4599620000000  0.5016580000000  0.5968680000000 1.0
C      1  0.5504590000000  0.5004090000000  0.5913690000000 1.0
C      1  0.6007590000000  0.5001230000000  0.5184880000000 1.0
C      1  0.5390170000000  0.5768580000000  0.4259490000000 1.0
C      1  0.4655490000000  0.5779840000000  0.4289430000000 1.0
C      1  0.4168600000000  0.5766140000000  0.4812430000000 1.0
C      1  0.4338800000000  0.5779470000000  0.5505700000000 1.0
C      1  0.4988240000000  0.5774050000000  0.5803800000000 1.0
C      1  0.5630950000000  0.5775000000000  0.5515760000000 1.0
C      1  0.5821810000000  0.5761930000000  0.4826460000000 1.0
C      1  0.4672500000000  0.5294950000000  0.5972950000000 1.0
C      1  0.5556530000000  0.5284730000000  0.5864850000000 1.0
C      1  0.6008490000000  0.5279200000000  0.5114030000000 1.0
C      1  0.5725860000000  0.5281900000000  0.4266600000000 1.0
C      1  0.4880700000000  0.5291260000000  0.3997180000000 1.0
C      1  0.4137080000000  0.5274540000000  0.4475810000000 1.0
C      1  0.4049880000000  0.5280440000000  0.5354650000000 1.0
C      1  0.4931710000000  0.4246240000000  0.5002080000000 1.0
C      1  0.4913570000000  0.5436690000000  0.5307790000000 1.0
C      1  0.4932390000000  0.5169520000000  0.5155000000000 1.0
C      1  0.5216150000000  0.5098120000000  0.5083530000000 1.0
C      1  0.4721880000000  0.4463810000000  0.5013690000000 1.0
C      1  0.4901730000000  0.6111690000000  0.4684240000000 1.0
END
