TITL C-4184-3995-2 32.1397762023917 125000 -1270.77163049079 0 0 181 (C1) n - 1
REM
REM in /rds/project/t2_vol4/rds-t2-cs072/BORA/CARBON/from-Arr/AIRSS/Generating-Clusters/GAP-ML-2020/Higher-Symm/SD-CG/HFTN-CG/C160-200
REM
REM
REM
REM
REM
REM ./C.cell (6b4489405718ea1b717e0baf1da4c2d9)
REM AIRSS Version 0.9.1 bugfix July 2018 build 013d7b7c2542+ Fri, 06 Jul 2018 19:26:36 +0100
REM compiler GCC version 9.3.0
REM options -cpp -mtune=generic -march=x86-64 -g -O0
REM seed -1333803548 1710151408 -132813211 -1994545340 -1026857508 1586106482 -1420948343 1160955446 -285435396 -1846381076 -1555221337 -1529622891 1801687649 -69318710 1782030866 -1377127759 662681587 -2098773353 1225143297 -1713842155 877283231 -253838984 1216809675 -2127223832 466055284 212230927 1770301423 576431382 820050250 -1111865962 -1515952664 -1897169580 -1112838978
REM
CELL 1.54180   50.00000   50.00000   50.00000   90.00000   90.00000   90.00000
LATT -1
SFAC C  
C      1  0.5972860000000  0.5287100000000  0.5402700000000 1.0
C      1  0.4040650000000  0.4706820000000  0.5384120000000 1.0
C      1  0.4024470000000  0.5282560000000  0.4614290000000 1.0
C      1  0.5982580000000  0.4721690000000  0.4619990000000 1.0
C      1  0.5273000000000  0.5954240000000  0.5392320000000 1.0
C      1  0.4717650000000  0.4043040000000  0.5384340000000 1.0
C      1  0.5288960000000  0.4043890000000  0.4618410000000 1.0
C      1  0.4705000000000  0.5974640000000  0.4611970000000 1.0
C      1  0.3753840000000  0.4843260000000  0.5022690000000 1.0
C      1  0.6265150000000  0.5141770000000  0.5046010000000 1.0
C      1  0.6262330000000  0.4855650000000  0.4993510000000 1.0
C      1  0.3744810000000  0.5131320000000  0.4977630000000 1.0
C      1  0.4855310000000  0.3762920000000  0.5019100000000 1.0
C      1  0.5137270000000  0.6236020000000  0.5031340000000 1.0
C      1  0.4851640000000  0.6241470000000  0.4983540000000 1.0
C      1  0.5142890000000  0.3760580000000  0.4976280000000 1.0
C      1  0.4592180000000  0.4954330000000  0.5355140000000 1.0
C      1  0.5416030000000  0.5054530000000  0.5360570000000 1.0
C      1  0.5462380000000  0.4936400000000  0.4637090000000 1.0
C      1  0.4586920000000  0.5048150000000  0.4639210000000 1.0
C      1  0.4958040000000  0.4600090000000  0.5347190000000 1.0
C      1  0.5056060000000  0.5391100000000  0.5334980000000 1.0
C      1  0.4902660000000  0.5428340000000  0.4622810000000 1.0
C      1  0.5051320000000  0.4608290000000  0.4671150000000 1.0
C      1  0.5089410000000  0.6136950000000  0.5296490000000 1.0
C      1  0.4896920000000  0.3859940000000  0.5285990000000 1.0
C      1  0.4896290000000  0.6145780000000  0.4715800000000 1.0
C      1  0.5103250000000  0.3860430000000  0.4710980000000 1.0
C      1  0.6158140000000  0.5100150000000  0.5309050000000 1.0
C      1  0.3852260000000  0.4884340000000  0.5288300000000 1.0
C      1  0.6165910000000  0.4900200000000  0.4724330000000 1.0
C      1  0.3846170000000  0.5095340000000  0.4712140000000 1.0
C      1  0.5229030000000  0.4554500000000  0.6008000000000 1.0
C      1  0.4763220000000  0.5435450000000  0.6008650000000 1.0
C      1  0.4764640000000  0.4564070000000  0.3991880000000 1.0
C      1  0.5222870000000  0.5451360000000  0.4003130000000 1.0
C      1  0.4551000000000  0.5224130000000  0.6005130000000 1.0
C      1  0.5442020000000  0.4765700000000  0.6013050000000 1.0
C      1  0.4551780000000  0.4775760000000  0.3991530000000 1.0
C      1  0.5435860000000  0.5239550000000  0.4016180000000 1.0
C      1  0.4197600000000  0.4397220000000  0.4710870000000 1.0
C      1  0.5810810000000  0.5601340000000  0.4727180000000 1.0
C      1  0.5882210000000  0.4369380000000  0.5275830000000 1.0
C      1  0.4185010000000  0.5595250000000  0.5288160000000 1.0
C      1  0.4368200000000  0.4123500000000  0.4733280000000 1.0
C      1  0.5625830000000  0.5871040000000  0.4743860000000 1.0
C      1  0.4360870000000  0.5869060000000  0.5268300000000 1.0
C      1  0.5603450000000  0.4198480000000  0.5292270000000 1.0
C      1  0.4240000000000  0.4698470000000  0.5584210000000 1.0
C      1  0.5768020000000  0.5293270000000  0.5598310000000 1.0
C      1  0.5779470000000  0.4707430000000  0.4418820000000 1.0
C      1  0.4221530000000  0.5291760000000  0.4410400000000 1.0
C      1  0.4708300000000  0.4242660000000  0.5582900000000 1.0
C      1  0.5282200000000  0.5752240000000  0.5587520000000 1.0
C      1  0.4685420000000  0.5782660000000  0.4403080000000 1.0
C      1  0.5285820000000  0.4247380000000  0.4422520000000 1.0
C      1  0.5211010000000  0.5004920000000  0.5550660000000 1.0
C      1  0.4796070000000  0.4997350000000  0.5547380000000 1.0
C      1  0.4782560000000  0.4995610000000  0.4431760000000 1.0
C      1  0.5193800000000  0.5017550000000  0.4506700000000 1.0
C      1  0.5007070000000  0.5204350000000  0.5541390000000 1.0
C      1  0.5000110000000  0.4795980000000  0.5547590000000 1.0
C      1  0.5005100000000  0.4798810000000  0.4449730000000 1.0
C      1  0.4970200000000  0.5216560000000  0.4429420000000 1.0
C      1  0.4647690000000  0.4228160000000  0.5153530000000 1.0
C      1  0.5351340000000  0.5773740000000  0.5160990000000 1.0
C      1  0.5364010000000  0.4227490000000  0.4848540000000 1.0
C      1  0.4625610000000  0.5786570000000  0.4836950000000 1.0
C      1  0.4227930000000  0.4643530000000  0.5154070000000 1.0
C      1  0.5789760000000  0.5357320000000  0.5169550000000 1.0
C      1  0.4211490000000  0.5354400000000  0.4842050000000 1.0
C      1  0.5802620000000  0.4638840000000  0.4849430000000 1.0
C      1  0.4680930000000  0.4464780000000  0.5355310000000 1.0
C      1  0.5325660000000  0.5533990000000  0.5358130000000 1.0
C      1  0.5332680000000  0.4462820000000  0.4646000000000 1.0
C      1  0.4637750000000  0.5561050000000  0.4619250000000 1.0
C      1  0.4462400000000  0.4677860000000  0.5361660000000 1.0
C      1  0.5549430000000  0.5325750000000  0.5370660000000 1.0
C      1  0.4439730000000  0.5326120000000  0.4629880000000 1.0
C      1  0.5569480000000  0.4657480000000  0.4638070000000 1.0
C      1  0.4199300000000  0.5311860000000  0.5625890000000 1.0
C      1  0.5795990000000  0.4661230000000  0.5645020000000 1.0
C      1  0.5796650000000  0.5325640000000  0.4388110000000 1.0
C      1  0.4208400000000  0.4677520000000  0.4370600000000 1.0
C      1  0.5317350000000  0.4209110000000  0.5625830000000 1.0
C      1  0.4665120000000  0.5775480000000  0.5627950000000 1.0
C      1  0.5318850000000  0.5769350000000  0.4388690000000 1.0
C      1  0.4671300000000  0.4221150000000  0.4374140000000 1.0
C      1  0.4743690000000  0.4527760000000  0.5984940000000 1.0
C      1  0.5248680000000  0.5463210000000  0.5988540000000 1.0
C      1  0.5248700000000  0.4541130000000  0.4024410000000 1.0
C      1  0.4737270000000  0.5480020000000  0.4011690000000 1.0
C      1  0.4528200000000  0.4740300000000  0.5984680000000 1.0
C      1  0.5466600000000  0.5249230000000  0.5990520000000 1.0
C      1  0.4518520000000  0.5262600000000  0.4008410000000 1.0
C      1  0.5461740000000  0.4756460000000  0.4033390000000 1.0
C      1  0.5353190000000  0.5544380000000  0.4565400000000 1.0
C      1  0.4646000000000  0.4444420000000  0.4548040000000 1.0
C      1  0.4635570000000  0.5547730000000  0.5461960000000 1.0
C      1  0.5414360000000  0.4406220000000  0.5413920000000 1.0
C      1  0.5602900000000  0.5410040000000  0.4609910000000 1.0
C      1  0.4406270000000  0.4588020000000  0.4590820000000 1.0
C      1  0.5566920000000  0.4636400000000  0.5479640000000 1.0
C      1  0.4392540000000  0.5409630000000  0.5410930000000 1.0
C      1  0.5129380000000  0.5784230000000  0.4948620000000 1.0
C      1  0.4866870000000  0.4221630000000  0.4940610000000 1.0
C      1  0.4848380000000  0.5787770000000  0.5058260000000 1.0
C      1  0.5141670000000  0.4217190000000  0.5056140000000 1.0
C      1  0.5820100000000  0.5137790000000  0.4960760000000 1.0
C      1  0.4207570000000  0.4860510000000  0.4942460000000 1.0
C      1  0.5818100000000  0.4856120000000  0.5073910000000 1.0
C      1  0.4199090000000  0.5134940000000  0.5056180000000 1.0
C      1  0.4638580000000  0.4970010000000  0.6110630000000 1.0
C      1  0.5354710000000  0.5020470000000  0.6116790000000 1.0
C      1  0.5347860000000  0.4986410000000  0.3912130000000 1.0
C      1  0.4633940000000  0.5033320000000  0.3884570000000 1.0
C      1  0.4972870000000  0.4639530000000  0.6111550000000 1.0
C      1  0.5019350000000  0.5351070000000  0.6113760000000 1.0
C      1  0.4968860000000  0.5368480000000  0.3888460000000 1.0
C      1  0.5020890000000  0.4651870000000  0.3893600000000 1.0
C      1  0.4002030000000  0.5389840000000  0.5424430000000 1.0
C      1  0.5984520000000  0.4583070000000  0.5427640000000 1.0
C      1  0.5997100000000  0.5401380000000  0.4589450000000 1.0
C      1  0.4014310000000  0.4596930000000  0.4573440000000 1.0
C      1  0.5398210000000  0.4014850000000  0.5424060000000 1.0
C      1  0.4581320000000  0.5963200000000  0.5415450000000 1.0
C      1  0.5402700000000  0.5960560000000  0.4597200000000 1.0
C      1  0.4590720000000  0.4031930000000  0.4584960000000 1.0
C      1  0.4834230000000  0.5669010000000  0.5835550000000 1.0
C      1  0.5154800000000  0.4321140000000  0.5833730000000 1.0
C      1  0.5148920000000  0.5685430000000  0.4170760000000 1.0
C      1  0.4837670000000  0.4332700000000  0.4168980000000 1.0
C      1  0.5681400000000  0.4836080000000  0.5846000000000 1.0
C      1  0.4315250000000  0.5148800000000  0.5833230000000 1.0
C      1  0.5676560000000  0.5164100000000  0.4181520000000 1.0
C      1  0.4314260000000  0.4845280000000  0.4161320000000 1.0
C      1  0.4849490000000  0.4318640000000  0.5814940000000 1.0
C      1  0.5141870000000  0.5673730000000  0.5818740000000 1.0
C      1  0.5144550000000  0.4328260000000  0.4192150000000 1.0
C      1  0.4837110000000  0.5696810000000  0.4176910000000 1.0
C      1  0.4315470000000  0.4842710000000  0.5816250000000 1.0
C      1  0.5684850000000  0.5146340000000  0.5827500000000 1.0
C      1  0.4306510000000  0.5153540000000  0.4176610000000 1.0
C      1  0.5680050000000  0.4857510000000  0.4195980000000 1.0
C      1  0.4376160000000  0.5815750000000  0.4988050000000 1.0
C      1  0.5609200000000  0.4204870000000  0.5001660000000 1.0
C      1  0.5607210000000  0.5813680000000  0.5024170000000 1.0
C      1  0.4393500000000  0.4183930000000  0.5014010000000 1.0
C      1  0.5830530000000  0.4386260000000  0.4995670000000 1.0
C      1  0.4191500000000  0.5598300000000  0.4996420000000 1.0
C      1  0.5802770000000  0.5604160000000  0.5018010000000 1.0
C      1  0.4204620000000  0.4398090000000  0.5003460000000 1.0
C      1  0.5152950000000  0.5553560000000  0.4772520000000 1.0
C      1  0.4842690000000  0.4439410000000  0.4753010000000 1.0
C      1  0.4819290000000  0.5559460000000  0.5239920000000 1.0
C      1  0.5180080000000  0.4444590000000  0.5232240000000 1.0
C      1  0.5599370000000  0.5165980000000  0.4780250000000 1.0
C      1  0.4442370000000  0.4821410000000  0.4771830000000 1.0
C      1  0.5592810000000  0.4820890000000  0.5261900000000 1.0
C      1  0.4422770000000  0.5175230000000  0.5234080000000 1.0
C      1  0.4685870000000  0.4909210000000  0.4898610000000 1.0
C      1  0.5378400000000  0.5045620000000  0.4902920000000 1.0
C      1  0.5355760000000  0.4888800000000  0.5131850000000 1.0
C      1  0.4674090000000  0.5100790000000  0.5114940000000 1.0
C      1  0.4968820000000  0.4801110000000  0.4884880000000 1.0
C      1  0.5015950000000  0.5323480000000  0.4864690000000 1.0
C      1  0.4878000000000  0.5315430000000  0.5108540000000 1.0
C      1  0.5119940000000  0.4714680000000  0.5124370000000 1.0
C      1  0.3938390000000  0.5173070000000  0.5215890000000 1.0
C      1  0.6072200000000  0.4813660000000  0.5232280000000 1.0
C      1  0.6077100000000  0.5184460000000  0.4801120000000 1.0
C      1  0.3947650000000  0.4812000000000  0.4782870000000 1.0
C      1  0.5181450000000  0.3954520000000  0.5214620000000 1.0
C      1  0.4807920000000  0.6046300000000  0.5218690000000 1.0
C      1  0.5175460000000  0.6045220000000  0.4792290000000 1.0
C      1  0.4819230000000  0.3954950000000  0.4781170000000 1.0
C      1  0.5089900000000  0.4915320000000  0.3819670000000 1.0
C      1  0.4895580000000  0.5107980000000  0.3804710000000 1.0
C      1  0.4898620000000  0.4898650000000  0.6196080000000 1.0
C      1  0.5092990000000  0.5091360000000  0.6197290000000 1.0
C      1  0.5117990000000  0.5065040000000  0.4803430000000 1.0
END
