TITL C-4185-3836-4 -0.247213965205247 125000 -1179.70567887616 0 0 164 (C1) n - 1
REM
REM in /rds/project/t2_vol4/rds-t2-cs072/BORA/CARBON/from-Arr/AIRSS/Generating-Clusters/GAP-ML-2020/Higher-Symm/SD-CG/HFTN-CG/C160-200
REM
REM
REM
REM
REM
REM ./C.cell (6b4489405718ea1b717e0baf1da4c2d9)
REM AIRSS Version 0.9.1 bugfix July 2018 build 013d7b7c2542+ Fri, 06 Jul 2018 19:26:36 +0100
REM compiler GCC version 9.3.0
REM options -cpp -mtune=generic -march=x86-64 -g -O0
REM seed -1114044318 1838762059 1293193116 -2044296118 1207429462 -439569893 785804325 -1563589287 -1834784515 -185356591 -365831907 -112010621 -1765091873 964801433 -1523038149 -1965267304 -1259296000 482817878 1183640288 1463651360 -1977091432 1648088057 394933358 -1433732295 96116636 1767456514 -1379036115 -113455059 -679388377 526655651 -952407682 691559202 148477693
REM
CELL 1.54180   50.00000   50.00000   50.00000   90.00000   90.00000   90.00000
LATT -1
SFAC C  
C      1  0.5597130000000  0.4111380000000  0.4870000000000 1.0
C      1  0.5592680000000  0.4317680000000  0.5640350000000 1.0
C      1  0.5611080000000  0.5058210000000  0.5911730000000 1.0
C      1  0.5610770000000  0.5756850000000  0.5515720000000 1.0
C      1  0.5576250000000  0.5886860000000  0.4722120000000 1.0
C      1  0.5613610000000  0.5324750000000  0.4163230000000 1.0
C      1  0.5593300000000  0.4525350000000  0.4203240000000 1.0
C      1  0.4202950000000  0.5701040000000  0.5156020000000 1.0
C      1  0.4114950000000  0.5445050000000  0.4464790000000 1.0
C      1  0.4317920000000  0.5014650000000  0.4434480000000 1.0
C      1  0.4247200000000  0.4523330000000  0.4603090000000 1.0
C      1  0.4282750000000  0.4371700000000  0.5107230000000 1.0
C      1  0.4310470000000  0.4702350000000  0.5515290000000 1.0
C      1  0.4325520000000  0.5205310000000  0.5500790000000 1.0
C      1  0.5272710000000  0.5490950000000  0.5013310000000 1.0
C      1  0.5296220000000  0.5332780000000  0.4603300000000 1.0
C      1  0.5257890000000  0.4894370000000  0.4508820000000 1.0
C      1  0.5219800000000  0.4563260000000  0.4781890000000 1.0
C      1  0.5223870000000  0.4563440000000  0.5230980000000 1.0
C      1  0.5262040000000  0.4893390000000  0.5497650000000 1.0
C      1  0.5292670000000  0.5333340000000  0.5418010000000 1.0
C      1  0.4510690000000  0.4801570000000  0.5289400000000 1.0
C      1  0.4411460000000  0.5072630000000  0.5247610000000 1.0
C      1  0.4718420000000  0.5384770000000  0.5016120000000 1.0
C      1  0.4410830000000  0.5150830000000  0.4793590000000 1.0
C      1  0.4517170000000  0.4919510000000  0.4671820000000 1.0
C      1  0.4414150000000  0.4686040000000  0.4792400000000 1.0
C      1  0.4507590000000  0.4599020000000  0.5053420000000 1.0
C      1  0.4707610000000  0.5951150000000  0.5128550000000 1.0
C      1  0.4702100000000  0.5598680000000  0.4248900000000 1.0
C      1  0.4692220000000  0.4831120000000  0.4084000000000 1.0
C      1  0.4686040000000  0.4178880000000  0.4562300000000 1.0
C      1  0.4694280000000  0.4142090000000  0.5363730000000 1.0
C      1  0.4699640000000  0.4750830000000  0.5899980000000 1.0
C      1  0.4696230000000  0.5545080000000  0.5773150000000 1.0
C      1  0.5313710000000  0.5821300000000  0.4334330000000 1.0
C      1  0.5352810000000  0.4982110000000  0.3950420000000 1.0
C      1  0.5326040000000  0.4165970000000  0.4350140000000 1.0
C      1  0.5335500000000  0.3983380000000  0.5243340000000 1.0
C      1  0.5331450000000  0.4540200000000  0.5964030000000 1.0
C      1  0.5353870000000  0.5457820000000  0.5961830000000 1.0
C      1  0.5324730000000  0.6012530000000  0.5231880000000 1.0
C      1  0.4297730000000  0.5041080000000  0.5724860000000 1.0
C      1  0.4278150000000  0.5622900000000  0.5406480000000 1.0
C      1  0.4194720000000  0.5640680000000  0.4672400000000 1.0
C      1  0.4308800000000  0.5280530000000  0.4323920000000 1.0
C      1  0.4253150000000  0.4646330000000  0.4346040000000 1.0
C      1  0.4241310000000  0.4226970000000  0.4873080000000 1.0
C      1  0.4267280000000  0.4429080000000  0.5510590000000 1.0
C      1  0.5530950000000  0.5339510000000  0.5009640000000 1.0
C      1  0.5532460000000  0.5209450000000  0.4733560000000 1.0
C      1  0.5518330000000  0.4916550000000  0.4663530000000 1.0
C      1  0.5499900000000  0.4682310000000  0.4856120000000 1.0
C      1  0.5501450000000  0.4685370000000  0.5157420000000 1.0
C      1  0.5521680000000  0.4925050000000  0.5346690000000 1.0
C      1  0.5546890000000  0.5222950000000  0.5289910000000 1.0
C      1  0.6016680000000  0.5208380000000  0.5265990000000 1.0
C      1  0.6011750000000  0.5323650000000  0.5002530000000 1.0
C      1  0.6016680000000  0.5197490000000  0.4746840000000 1.0
C      1  0.6008330000000  0.4919600000000  0.4686520000000 1.0
C      1  0.5999830000000  0.4697290000000  0.4867250000000 1.0
C      1  0.6000580000000  0.4701660000000  0.5148050000000 1.0
C      1  0.6004110000000  0.4926600000000  0.5321550000000 1.0
C      1  0.4913490000000  0.4411720000000  0.4147570000000 1.0
C      1  0.4915770000000  0.3955830000000  0.4926830000000 1.0
C      1  0.4916540000000  0.4286200000000  0.5771280000000 1.0
C      1  0.4928130000000  0.5157220000000  0.6043430000000 1.0
C      1  0.4934280000000  0.5910000000000  0.5565560000000 1.0
C      1  0.4878250000000  0.5943820000000  0.4625100000000 1.0
C      1  0.4939060000000  0.5289020000000  0.3980410000000 1.0
C      1  0.5382430000000  0.5434760000000  0.4034060000000 1.0
C      1  0.5356280000000  0.4511190000000  0.4050390000000 1.0
C      1  0.5360590000000  0.3970960000000  0.4790170000000 1.0
C      1  0.5356310000000  0.4172060000000  0.5688580000000 1.0
C      1  0.5373340000000  0.5013460000000  0.6067310000000 1.0
C      1  0.5379860000000  0.5841600000000  0.5660240000000 1.0
C      1  0.5327770000000  0.6028120000000  0.4745160000000 1.0
C      1  0.4658630000000  0.5796300000000  0.4484320000000 1.0
C      1  0.4701860000000  0.5134530000000  0.4056460000000 1.0
C      1  0.4682850000000  0.4373190000000  0.4321540000000 1.0
C      1  0.4683460000000  0.4058330000000  0.5063200000000 1.0
C      1  0.4691580000000  0.4467030000000  0.5772670000000 1.0
C      1  0.4691610000000  0.5272400000000  0.5915910000000 1.0
C      1  0.4700780000000  0.5882070000000  0.5400100000000 1.0
C      1  0.4514400000000  0.4143600000000  0.4820000000000 1.0
C      1  0.4533860000000  0.4337220000000  0.5545000000000 1.0
C      1  0.4537340000000  0.5015980000000  0.5865950000000 1.0
C      1  0.4532450000000  0.5682220000000  0.5544470000000 1.0
C      1  0.4421820000000  0.5779810000000  0.4623920000000 1.0
C      1  0.4546370000000  0.5350060000000  0.4196230000000 1.0
C      1  0.4521540000000  0.4617310000000  0.4242110000000 1.0
C      1  0.5200840000000  0.4022490000000  0.4560330000000 1.0
C      1  0.5204500000000  0.4037970000000  0.5490820000000 1.0
C      1  0.5210840000000  0.4778910000000  0.6062010000000 1.0
C      1  0.5227020000000  0.5684680000000  0.5846420000000 1.0
C      1  0.5183430000000  0.6059910000000  0.4985710000000 1.0
C      1  0.5216870000000  0.5647660000000  0.4129580000000 1.0
C      1  0.5207970000000  0.4733170000000  0.3958340000000 1.0
C      1  0.5136120000000  0.5143960000000  0.4481460000000 1.0
C      1  0.5063960000000  0.4714350000000  0.4598550000000 1.0
C      1  0.5069430000000  0.4487250000000  0.5007270000000 1.0
C      1  0.5067500000000  0.4706440000000  0.5414280000000 1.0
C      1  0.5133540000000  0.5133140000000  0.5528430000000 1.0
C      1  0.5125370000000  0.5477440000000  0.5247500000000 1.0
C      1  0.5132280000000  0.5476030000000  0.4781270000000 1.0
C      1  0.4925830000000  0.4108140000000  0.5538210000000 1.0
C      1  0.4933760000000  0.4865210000000  0.6032840000000 1.0
C      1  0.4941320000000  0.5713110000000  0.5775470000000 1.0
C      1  0.4891130000000  0.5998920000000  0.4925400000000 1.0
C      1  0.4942400000000  0.5553900000000  0.4100810000000 1.0
C      1  0.4926010000000  0.4672730000000  0.4020200000000 1.0
C      1  0.4922710000000  0.4027780000000  0.4644850000000 1.0
C      1  0.5582810000000  0.5869470000000  0.5236730000000 1.0
C      1  0.5568610000000  0.5751430000000  0.4458810000000 1.0
C      1  0.5601420000000  0.5027400000000  0.4102070000000 1.0
C      1  0.5577820000000  0.4299870000000  0.4394870000000 1.0
C      1  0.5585370000000  0.4115900000000  0.5169200000000 1.0
C      1  0.5582640000000  0.4553460000000  0.5821230000000 1.0
C      1  0.5602280000000  0.5352280000000  0.5849560000000 1.0
C      1  0.4085350000000  0.4854830000000  0.4456360000000 1.0
C      1  0.4048350000000  0.4413590000000  0.4766640000000 1.0
C      1  0.4093890000000  0.4467120000000  0.5287100000000 1.0
C      1  0.4109300000000  0.4890040000000  0.5576030000000 1.0
C      1  0.4116890000000  0.5385260000000  0.5433060000000 1.0
C      1  0.4077580000000  0.5586820000000  0.4942760000000 1.0
C      1  0.3881230000000  0.5316070000000  0.4518150000000 1.0
C      1  0.5771490000000  0.4560410000000  0.4722740000000 1.0
C      1  0.5770710000000  0.4566900000000  0.5296140000000 1.0
C      1  0.5781090000000  0.4813990000000  0.5492900000000 1.0
C      1  0.5805860000000  0.5330510000000  0.5424090000000 1.0
C      1  0.5787770000000  0.5515770000000  0.4922930000000 1.0
C      1  0.5791410000000  0.5373580000000  0.4642400000000 1.0
C      1  0.5779160000000  0.4804390000000  0.4521370000000 1.0
C      1  0.4881010000000  0.5157970000000  0.4603430000000 1.0
C      1  0.4814320000000  0.4896870000000  0.4686590000000 1.0
C      1  0.4799970000000  0.4571580000000  0.4991580000000 1.0
C      1  0.4810320000000  0.4862130000000  0.5320640000000 1.0
C      1  0.4874020000000  0.5129570000000  0.5408080000000 1.0
C      1  0.4869520000000  0.5360470000000  0.5246590000000 1.0
C      1  0.4867070000000  0.5375690000000  0.4778430000000 1.0
C      1  0.5152100000000  0.5966410000000  0.4527770000000 1.0
C      1  0.5215900000000  0.5228800000000  0.3928000000000 1.0
C      1  0.5182350000000  0.4313540000000  0.4155180000000 1.0
C      1  0.5190550000000  0.3916040000000  0.5008460000000 1.0
C      1  0.5186790000000  0.4316710000000  0.5862980000000 1.0
C      1  0.5205260000000  0.5241700000000  0.6073930000000 1.0
C      1  0.5201790000000  0.5981910000000  0.5488670000000 1.0
C      1  0.3862930000000  0.5167100000000  0.4748390000000 1.0
C      1  0.3924660000000  0.4879800000000  0.4699510000000 1.0
C      1  0.3925060000000  0.4657200000000  0.4888700000000 1.0
C      1  0.3945780000000  0.4693250000000  0.5178200000000 1.0
C      1  0.3955720000000  0.4943900000000  0.5337410000000 1.0
C      1  0.3943170000000  0.5232830000000  0.5253800000000 1.0
C      1  0.3916580000000  0.5334860000000  0.4987760000000 1.0
C      1  0.5711010000000  0.4281660000000  0.4654370000000 1.0
C      1  0.5711470000000  0.4290390000000  0.5374750000000 1.0
C      1  0.5718510000000  0.4810290000000  0.5783580000000 1.0
C      1  0.5732490000000  0.5507910000000  0.5629240000000 1.0
C      1  0.5704070000000  0.5799290000000  0.4971450000000 1.0
C      1  0.5712510000000  0.5500770000000  0.4384910000000 1.0
C      1  0.5719550000000  0.4787300000000  0.4232640000000 1.0
C      1  0.5136290000000  0.5001430000000  0.5006700000000 1.0
C      1  0.4881960000000  0.4852550000000  0.5001430000000 1.0
C      1  0.4490480000000  0.5229700000000  0.5032610000000 1.0
END
