TITL C-4172-6248-6 -6.59416155346729 125000 -391.738975136892 0 0 56 (C1) n - 1
REM
REM in /rds/project/t2_vol4/rds-t2-cs072/BORA/CARBON/from-Arr/AIRSS/Generating-Clusters/GAP-ML-2020/Higher-Symm/SD-CG/HFTN-CG
REM
REM
REM
REM
REM
REM ./C.cell (b20cbc046b6831c77cfcea5457e17084)
REM AIRSS Version 0.9.1 bugfix July 2018 build 013d7b7c2542+ Fri, 06 Jul 2018 19:26:36 +0100
REM compiler GCC version 9.3.0
REM options -cpp -mtune=generic -march=x86-64 -g -O0
REM seed 2024264935 17656138 -1337152584 -876570348 -327780533 1883100271 395859260 1106397580 -953067101 -611153253 -398212381 -1079733195 -53940625 -928824811 284813904 -1094310446 902577590 -219266941 -1023257705 -1847530417 -1858658921 -1996141395 394605703 1779571945 871291682 -1481375847 -423014935 -2129799836 224275616 864897843 -1183626303 -1223770325 -988252214
REM
CELL 1.54180   50.00000   50.00000   50.00000   90.00000   90.00000   90.00000
LATT -1
SFAC C  
C      1  0.4509390000000  0.5389910000000  0.4903140000000 1.0
C      1  0.4491510000000  0.4738930000000  0.4713920000000 1.0
C      1  0.4488090000000  0.4889450000000  0.5383670000000 1.0
C      1  0.5534630000000  0.5384380000000  0.4900660000000 1.0
C      1  0.5526730000000  0.4730180000000  0.4716290000000 1.0
C      1  0.5553090000000  0.4887090000000  0.5391080000000 1.0
C      1  0.4881980000000  0.5653900000000  0.4943630000000 1.0
C      1  0.4877120000000  0.4622130000000  0.4431770000000 1.0
C      1  0.4884800000000  0.4700100000000  0.5619060000000 1.0
C      1  0.5167460000000  0.5654710000000  0.4943250000000 1.0
C      1  0.5162360000000  0.4630980000000  0.4450590000000 1.0
C      1  0.5168630000000  0.4711930000000  0.5607740000000 1.0
C      1  0.4878850000000  0.4466410000000  0.5437860000000 1.0
C      1  0.4883700000000  0.5606040000000  0.5230030000000 1.0
C      1  0.4878770000000  0.4893680000000  0.4320250000000 1.0
C      1  0.5164160000000  0.4480740000000  0.5433080000000 1.0
C      1  0.5167420000000  0.5609350000000  0.5230420000000 1.0
C      1  0.5164560000000  0.4900270000000  0.4341230000000 1.0
C      1  0.5311080000000  0.5498430000000  0.4766130000000 1.0
C      1  0.5299530000000  0.4563900000000  0.4684560000000 1.0
C      1  0.5313710000000  0.4944910000000  0.5547620000000 1.0
C      1  0.4737890000000  0.5495660000000  0.4766860000000 1.0
C      1  0.4758310000000  0.4619710000000  0.4696120000000 1.0
C      1  0.4764000000000  0.4926510000000  0.5485590000000 1.0
C      1  0.5672430000000  0.5098060000000  0.5244730000000 1.0
C      1  0.5666200000000  0.5162870000000  0.4786230000000 1.0
C      1  0.5669380000000  0.4738510000000  0.4961930000000 1.0
C      1  0.4369400000000  0.5105440000000  0.5248760000000 1.0
C      1  0.4366170000000  0.5173150000000  0.4789630000000 1.0
C      1  0.4363160000000  0.4744980000000  0.4964220000000 1.0
C      1  0.4752360000000  0.4539950000000  0.5185680000000 1.0
C      1  0.4745020000000  0.5400960000000  0.5351920000000 1.0
C      1  0.4764110000000  0.5076580000000  0.4511820000000 1.0
C      1  0.5293220000000  0.4530530000000  0.5180900000000 1.0
C      1  0.5309380000000  0.5404950000000  0.5352010000000 1.0
C      1  0.5305820000000  0.5109180000000  0.4459320000000 1.0
C      1  0.5174470000000  0.4985400000000  0.4900110000000 1.0
C      1  0.5161030000000  0.4808850000000  0.5125170000000 1.0
C      1  0.5020180000000  0.5194400000000  0.5014220000000 1.0
C      1  0.4891710000000  0.4914480000000  0.4752180000000 1.0
C      1  0.4875340000000  0.4826030000000  0.5204580000000 1.0
C      1  0.4774940000000  0.5017930000000  0.5003610000000 1.0
C      1  0.4886870000000  0.5197350000000  0.5498920000000 1.0
C      1  0.4881260000000  0.5345520000000  0.4564290000000 1.0
C      1  0.4874110000000  0.4464380000000  0.4919560000000 1.0
C      1  0.5172910000000  0.5199070000000  0.5506950000000 1.0
C      1  0.5169900000000  0.5346850000000  0.4561330000000 1.0
C      1  0.5157880000000  0.4474990000000  0.4921650000000 1.0
C      1  0.5532460000000  0.5001270000000  0.4597380000000 1.0
C      1  0.5558320000000  0.4653540000000  0.5208750000000 1.0
C      1  0.5535990000000  0.5342190000000  0.5192470000000 1.0
C      1  0.4491960000000  0.5004980000000  0.4602840000000 1.0
C      1  0.4481990000000  0.4660140000000  0.5205270000000 1.0
C      1  0.4513660000000  0.5344590000000  0.5197200000000 1.0
C      1  0.5768990000000  0.4999830000000  0.4994070000000 1.0
C      1  0.4269330000000  0.5011800000000  0.5001310000000 1.0
END
