TITL C-4150-6043-1 -0.0852667062303806 125000 -344.218197947311 0 0 51 (C2v) n - 1
REM
REM in /rds/project/t2_vol4/rds-t2-cs072/BORA/CARBON/from-Arr/AIRSS/Generating-Clusters/GAP-ML-2020/Higher-Symm/SD-CG/HFTN-CG
REM
REM
REM
REM
REM
REM ./C.cell (b20cbc046b6831c77cfcea5457e17084)
REM AIRSS Version 0.9.1 bugfix July 2018 build 013d7b7c2542+ Fri, 06 Jul 2018 19:26:36 +0100
REM compiler GCC version 9.3.0
REM options -cpp -mtune=generic -march=x86-64 -g -O0
REM seed 1767109682 -298150113 -1352903490 -846072813 -1753315596 376526221 -1956246970 131075370 -792217749 -1859653660 -1985982675 1429519660 -1915620048 352904199 1386674942 -617061505 -1726601450 -1565991367 -121605811 579228182 1348296928 1479744898 1345894190 -1148124259 -1622105712 1545335271 742449381 -1849793214 -83617224 -48693927 1396188268 -277439029 -1477116205
REM
CELL 1.54180   50.00000   50.00000   50.00000   90.00000   90.00000   90.00000
LATT -1
SFAC C  
C      1  0.5465030000000  0.5143850000000  0.4758780000000 1.0
C      1  0.5464920000000  0.4847530000000  0.5250210000000 1.0
C      1  0.5464870000000  0.4847450000000  0.4758830000000 1.0
C      1  0.5465080000000  0.5143930000000  0.5250160000000 1.0
C      1  0.5256740000000  0.4852410000000  0.4301160000000 1.0
C      1  0.5257050000000  0.5139200000000  0.5707880000000 1.0
C      1  0.5256900000000  0.5138960000000  0.4301110000000 1.0
C      1  0.5256900000000  0.4852640000000  0.5707930000000 1.0
C      1  0.4768420000000  0.4859920000000  0.5811270000000 1.0
C      1  0.4768390000000  0.5132220000000  0.4197870000000 1.0
C      1  0.4768570000000  0.5132490000000  0.5811230000000 1.0
C      1  0.4768240000000  0.4859650000000  0.4197910000000 1.0
C      1  0.4391280000000  0.4681880000000  0.4876490000000 1.0
C      1  0.4391650000000  0.5310670000000  0.5132740000000 1.0
C      1  0.4391620000000  0.5310620000000  0.4876380000000 1.0
C      1  0.4391300000000  0.4681920000000  0.5132840000000 1.0
C      1  0.5335810000000  0.4713730000000  0.4542220000000 1.0
C      1  0.5336210000000  0.5277790000000  0.5466790000000 1.0
C      1  0.5336110000000  0.5277630000000  0.4542130000000 1.0
C      1  0.5335910000000  0.4713890000000  0.5466890000000 1.0
C      1  0.4684180000000  0.5297740000000  0.4426050000000 1.0
C      1  0.4683980000000  0.4694480000000  0.5583110000000 1.0
C      1  0.4683850000000  0.4694290000000  0.4426150000000 1.0
C      1  0.4684300000000  0.5297930000000  0.5583010000000 1.0
C      1  0.5025730000000  0.4717080000000  0.4192830000000 1.0
C      1  0.5026210000000  0.5274770000000  0.5816260000000 1.0
C      1  0.5026040000000  0.5274500000000  0.4192730000000 1.0
C      1  0.5025910000000  0.4717350000000  0.5816350000000 1.0
C      1  0.4855490000000  0.4767050000000  0.4852910000000 1.0
C      1  0.4855770000000  0.5224990000000  0.5156220000000 1.0
C      1  0.4855740000000  0.5224940000000  0.4852830000000 1.0
C      1  0.4855520000000  0.4767100000000  0.5156290000000 1.0
C      1  0.5025720000000  0.4526260000000  0.5148600000000 1.0
C      1  0.5026200000000  0.5465590000000  0.4860490000000 1.0
C      1  0.5026230000000  0.5465640000000  0.5148440000000 1.0
C      1  0.5025690000000  0.4526210000000  0.4860640000000 1.0
C      1  0.5136030000000  0.5489340000000  0.4605910000000 1.0
C      1  0.5135580000000  0.4502400000000  0.5403150000000 1.0
C      1  0.5135490000000  0.4502260000000  0.4606080000000 1.0
C      1  0.5136110000000  0.5489470000000  0.5402980000000 1.0
C      1  0.4616790000000  0.5166870000000  0.4682690000000 1.0
C      1  0.4616680000000  0.4825430000000  0.5326490000000 1.0
C      1  0.4616610000000  0.4825320000000  0.4682740000000 1.0
C      1  0.4616860000000  0.5166980000000  0.5326430000000 1.0
C      1  0.4932760000000  0.4538480000000  0.4401510000000 1.0
C      1  0.4933390000000  0.5453470000000  0.5607590000000 1.0
C      1  0.4933250000000  0.5453270000000  0.4401360000000 1.0
C      1  0.4932890000000  0.4538690000000  0.5607750000000 1.0
C      1  0.5480790000000  0.4730110000000  0.5004540000000 1.0
C      1  0.5481080000000  0.5261250000000  0.5004450000000 1.0
C      1  0.4966130000000  0.4995960000000  0.5004550000000 1.0
END
