TITL C-4172-6248-8 0.120262045536089 125000 -1029.2513200714 0 0 148 (C2v) n - 1
REM
REM in /rds/project/t2_vol4/rds-t2-cs072/BORA/CARBON/from-Arr/AIRSS/Generating-Clusters/GAP-ML-2020/Higher-Symm/SD-CG/HFTN-CG
REM
REM
REM
REM
REM
REM ./C.cell (b20cbc046b6831c77cfcea5457e17084)
REM AIRSS Version 0.9.1 bugfix July 2018 build 013d7b7c2542+ Fri, 06 Jul 2018 19:26:36 +0100
REM compiler GCC version 9.3.0
REM options -cpp -mtune=generic -march=x86-64 -g -O0
REM seed 1658403686 2114336826 -1045216511 265920298 -1227687320 572372662 882574547 786445461 1129822836 -1028036737 634954823 -212934172 -2040703847 -1228424510 -1135416966 1212007134 -1602146809 724215055 220245591 591936245 -892049168 -841898404 -2134618699 -639473014 840408108 1683409369 1208071654 1490021376 -830396115 1442252330 2083624685 -349794840 735323383
REM
CELL 1.54180   50.00000   50.00000   50.00000   90.00000   90.00000   90.00000
LATT -1
SFAC C  
C      1  0.5143750000000  0.5827390000000  0.5607390000000 1.0
C      1  0.4856310000000  0.5827370000000  0.4392560000000 1.0
C      1  0.5143780000000  0.5827360000000  0.4392570000000 1.0
C      1  0.4856270000000  0.5827400000000  0.5607390000000 1.0
C      1  0.5607460000000  0.4476820000000  0.5303550000000 1.0
C      1  0.4392510000000  0.4476840000000  0.4696480000000 1.0
C      1  0.5607470000000  0.4476800000000  0.4696510000000 1.0
C      1  0.4392490000000  0.4476860000000  0.5303520000000 1.0
C      1  0.4703590000000  0.4554810000000  0.5173100000000 1.0
C      1  0.5296380000000  0.4554780000000  0.4826930000000 1.0
C      1  0.4703590000000  0.4554800000000  0.4826910000000 1.0
C      1  0.5296370000000  0.4554790000000  0.5173110000000 1.0
C      1  0.4095540000000  0.5055810000000  0.5632100000000 1.0
C      1  0.5904460000000  0.5055710000000  0.4367900000000 1.0
C      1  0.4095570000000  0.5055780000000  0.4367850000000 1.0
C      1  0.5904430000000  0.5055750000000  0.5632140000000 1.0
C      1  0.4769820000000  0.4977920000000  0.5581720000000 1.0
C      1  0.5230180000000  0.4977880000000  0.4418280000000 1.0
C      1  0.4769850000000  0.4977890000000  0.4418270000000 1.0
C      1  0.5230150000000  0.4977910000000  0.5581730000000 1.0
C      1  0.4659160000000  0.4106770000000  0.4857210000000 1.0
C      1  0.5340770000000  0.4106760000000  0.5142840000000 1.0
C      1  0.4659160000000  0.4106780000000  0.5142820000000 1.0
C      1  0.5340780000000  0.4106750000000  0.4857230000000 1.0
C      1  0.4835380000000  0.5429460000000  0.5320130000000 1.0
C      1  0.5164650000000  0.5429430000000  0.4679850000000 1.0
C      1  0.4835390000000  0.5429440000000  0.4679840000000 1.0
C      1  0.5164640000000  0.5429450000000  0.5320130000000 1.0
C      1  0.5143010000000  0.5879780000000  0.4854370000000 1.0
C      1  0.4857050000000  0.5879790000000  0.5145580000000 1.0
C      1  0.5143000000000  0.5879780000000  0.5145590000000 1.0
C      1  0.4857060000000  0.5879790000000  0.4854360000000 1.0
C      1  0.5775070000000  0.4619520000000  0.5731050000000 1.0
C      1  0.4224900000000  0.4619540000000  0.4268970000000 1.0
C      1  0.5775110000000  0.4619480000000  0.4269010000000 1.0
C      1  0.4224870000000  0.4619580000000  0.5731010000000 1.0
C      1  0.4417420000000  0.5676200000000  0.5374480000000 1.0
C      1  0.5582620000000  0.5676130000000  0.4625490000000 1.0
C      1  0.4417440000000  0.5676180000000  0.4625460000000 1.0
C      1  0.5582600000000  0.5676150000000  0.5374510000000 1.0
C      1  0.4723590000000  0.5405870000000  0.4146990000000 1.0
C      1  0.5276440000000  0.5405900000000  0.5852990000000 1.0
C      1  0.4723550000000  0.5405920000000  0.5852970000000 1.0
C      1  0.5276480000000  0.5405850000000  0.4147010000000 1.0
C      1  0.4440740000000  0.5351690000000  0.5802560000000 1.0
C      1  0.5559290000000  0.5351610000000  0.4197420000000 1.0
C      1  0.4440780000000  0.5351640000000  0.4197390000000 1.0
C      1  0.5559250000000  0.5351650000000  0.5802590000000 1.0
C      1  0.4842580000000  0.4286710000000  0.4714660000000 1.0
C      1  0.5157370000000  0.4286720000000  0.5285370000000 1.0
C      1  0.4842560000000  0.4286730000000  0.5285370000000 1.0
C      1  0.5157390000000  0.4286700000000  0.4714670000000 1.0
C      1  0.5141640000000  0.5215300000000  0.6025350000000 1.0
C      1  0.4858380000000  0.5215250000000  0.3974640000000 1.0
C      1  0.5141690000000  0.5215240000000  0.3974650000000 1.0
C      1  0.4858330000000  0.5215300000000  0.6025340000000 1.0
C      1  0.5372520000000  0.4616430000000  0.5951690000000 1.0
C      1  0.4627460000000  0.4616410000000  0.4048330000000 1.0
C      1  0.5372570000000  0.4616380000000  0.4048340000000 1.0
C      1  0.4627410000000  0.4616460000000  0.5951680000000 1.0
C      1  0.5343040000000  0.5247650000000  0.4844900000000 1.0
C      1  0.4656980000000  0.5247680000000  0.5155080000000 1.0
C      1  0.5343030000000  0.5247650000000  0.5155100000000 1.0
C      1  0.4656980000000  0.5247670000000  0.4844890000000 1.0
C      1  0.4855520000000  0.5668480000000  0.4147690000000 1.0
C      1  0.5144530000000  0.5668510000000  0.5852280000000 1.0
C      1  0.4855470000000  0.5668520000000  0.5852270000000 1.0
C      1  0.5144570000000  0.5668470000000  0.4147690000000 1.0
C      1  0.5666780000000  0.5064490000000  0.4195220000000 1.0
C      1  0.4333220000000  0.5064580000000  0.5804780000000 1.0
C      1  0.5666740000000  0.5064540000000  0.5804810000000 1.0
C      1  0.4333260000000  0.5064540000000  0.4195190000000 1.0
C      1  0.5598710000000  0.5115780000000  0.4712900000000 1.0
C      1  0.4401290000000  0.5115830000000  0.5287100000000 1.0
C      1  0.5598700000000  0.5115790000000  0.5287130000000 1.0
C      1  0.4401310000000  0.5115820000000  0.4712870000000 1.0
C      1  0.5600530000000  0.4433390000000  0.4403870000000 1.0
C      1  0.4399430000000  0.4433470000000  0.5596160000000 1.0
C      1  0.5600500000000  0.4433430000000  0.5596190000000 1.0
C      1  0.4399460000000  0.4433440000000  0.4403840000000 1.0
C      1  0.4854930000000  0.4289010000000  0.5590030000000 1.0
C      1  0.5145020000000  0.4288970000000  0.4410010000000 1.0
C      1  0.4854960000000  0.4288980000000  0.4410000000000 1.0
C      1  0.5144990000000  0.4289000000000  0.5590040000000 1.0
C      1  0.4377270000000  0.4772590000000  0.4088180000000 1.0
C      1  0.5622710000000  0.4772590000000  0.5911840000000 1.0
C      1  0.4377220000000  0.4772640000000  0.5911800000000 1.0
C      1  0.5622760000000  0.4772540000000  0.4088210000000 1.0
C      1  0.4857770000000  0.4717810000000  0.6067910000000 1.0
C      1  0.5142210000000  0.4717740000000  0.3932110000000 1.0
C      1  0.4857820000000  0.4717750000000  0.3932100000000 1.0
C      1  0.5142160000000  0.4717800000000  0.6067920000000 1.0
C      1  0.4323870000000  0.5475230000000  0.5567070000000 1.0
C      1  0.5676160000000  0.5475160000000  0.4432910000000 1.0
C      1  0.4323900000000  0.5475200000000  0.4432870000000 1.0
C      1  0.5676130000000  0.5475190000000  0.5567100000000 1.0
C      1  0.4082550000000  0.4781700000000  0.4450460000000 1.0
C      1  0.5917440000000  0.4781660000000  0.5549550000000 1.0
C      1  0.4082520000000  0.4781720000000  0.5549500000000 1.0
C      1  0.5917470000000  0.4781630000000  0.4450510000000 1.0
C      1  0.4500920000000  0.4971070000000  0.4466660000000 1.0
C      1  0.5499080000000  0.4971070000000  0.5533340000000 1.0
C      1  0.4500890000000  0.4971100000000  0.5533320000000 1.0
C      1  0.5499110000000  0.4971040000000  0.4466690000000 1.0
C      1  0.4851980000000  0.5269400000000  0.5576520000000 1.0
C      1  0.5148040000000  0.5269350000000  0.4423470000000 1.0
C      1  0.4852000000000  0.5269370000000  0.4423460000000 1.0
C      1  0.5148010000000  0.5269390000000  0.5576530000000 1.0
C      1  0.4179300000000  0.5258300000000  0.4552130000000 1.0
C      1  0.5820720000000  0.5258270000000  0.5447860000000 1.0
C      1  0.4179270000000  0.5258330000000  0.5447820000000 1.0
C      1  0.5820750000000  0.5258240000000  0.4552170000000 1.0
C      1  0.5761970000000  0.4922840000000  0.5134070000000 1.0
C      1  0.4238030000000  0.4922890000000  0.4865930000000 1.0
C      1  0.5761970000000  0.4922840000000  0.4865970000000 1.0
C      1  0.4238020000000  0.4922900000000  0.5134030000000 1.0
C      1  0.5277740000000  0.5726740000000  0.5363580000000 1.0
C      1  0.4722310000000  0.5726740000000  0.4636380000000 1.0
C      1  0.5277760000000  0.5726730000000  0.4636390000000 1.0
C      1  0.4722290000000  0.5726760000000  0.5363570000000 1.0
C      1  0.5712560000000  0.5706410000000  0.5128280000000 1.0
C      1  0.4287490000000  0.5706460000000  0.4871680000000 1.0
C      1  0.5712570000000  0.5706410000000  0.4871720000000 1.0
C      1  0.4287480000000  0.5706460000000  0.5128250000000 1.0
C      1  0.4850180000000  0.5016480000000  0.4854220000000 1.0
C      1  0.5149820000000  0.5016480000000  0.5145780000000 1.0
C      1  0.4850180000000  0.5016490000000  0.5145770000000 1.0
C      1  0.5149820000000  0.5016470000000  0.4854230000000 1.0
C      1  0.5360250000000  0.4404640000000  0.4255990000000 1.0
C      1  0.4639710000000  0.4404710000000  0.5744040000000 1.0
C      1  0.5360210000000  0.4404680000000  0.5744060000000 1.0
C      1  0.4639750000000  0.4404670000000  0.4255970000000 1.0
C      1  0.4842310000000  0.4795780000000  0.4659520000000 1.0
C      1  0.5157680000000  0.4795780000000  0.5340490000000 1.0
C      1  0.4842290000000  0.4795790000000  0.5340490000000 1.0
C      1  0.5157690000000  0.4795760000000  0.4659530000000 1.0
C      1  0.4392120000000  0.4228530000000  0.4858950000000 1.0
C      1  0.5607820000000  0.4228500000000  0.5141090000000 1.0
C      1  0.4392120000000  0.4228540000000  0.5141060000000 1.0
C      1  0.5607830000000  0.4228490000000  0.4858980000000 1.0
C      1  0.5820810000000  0.4698410000000  0.5296750000000 1.0
C      1  0.4179160000000  0.4698450000000  0.4703260000000 1.0
C      1  0.5820830000000  0.4698390000000  0.4703310000000 1.0
C      1  0.4179150000000  0.4698470000000  0.5296710000000 1.0
C      1  0.5151810000000  0.4954860000000  0.4109840000000 1.0
C      1  0.4848180000000  0.4954920000000  0.5890160000000 1.0
C      1  0.5151770000000  0.4954910000000  0.5890170000000 1.0
C      1  0.4848230000000  0.4954870000000  0.4109840000000 1.0
END
