TITL C-4178-6853-8 0.0186537193316683 125000 -218.102365432428 0 0 33 (C1) n - 1
REM
REM in /rds/project/t2_vol4/rds-t2-cs072/BORA/CARBON/from-Arr/AIRSS/Generating-Clusters/GAP-ML-2020/Higher-Symm/SD-CG/HFTN-CG
REM
REM
REM
REM
REM
REM ./C.cell (b20cbc046b6831c77cfcea5457e17084)
REM AIRSS Version 0.9.1 bugfix July 2018 build 013d7b7c2542+ Fri, 06 Jul 2018 19:26:36 +0100
REM compiler GCC version 9.3.0
REM options -cpp -mtune=generic -march=x86-64 -g -O0
REM seed 1585939813 2048367757 -1554095119 819043067 1405031296 -114603312 362866456 232919541 354942995 440785917 -1982852945 -755970298 -1219656009 -2104848747 18201349 -864770975 -502567639 -105872844 1331964489 -304451257 -1252304930 -307556523 2138121388 120928332 -1428898626 23862992 819658060 -1352701102 1728037517 637921114 -1565935031 -1771827802 1050084237
REM
CELL 1.54180   50.00000   50.00000   50.00000   90.00000   90.00000   90.00000
LATT -1
SFAC C  
C      1  0.5464400000000  0.5138680000000  0.4898110000000 1.0
C      1  0.5344660000000  0.4455650000000  0.4934090000000 1.0
C      1  0.5387040000000  0.5479280000000  0.5256230000000 1.0
C      1  0.5155580000000  0.4835690000000  0.5490010000000 1.0
C      1  0.4661450000000  0.5120760000000  0.5355430000000 1.0
C      1  0.4696780000000  0.4616020000000  0.5183210000000 1.0
C      1  0.5144080000000  0.5599140000000  0.5195280000000 1.0
C      1  0.4973190000000  0.4610460000000  0.4581960000000 1.0
C      1  0.5077990000000  0.4419100000000  0.5004100000000 1.0
C      1  0.5419070000000  0.4676620000000  0.4771240000000 1.0
C      1  0.5069430000000  0.5622770000000  0.4924330000000 1.0
C      1  0.5156380000000  0.5021650000000  0.4531830000000 1.0
C      1  0.5387070000000  0.5222920000000  0.5182320000000 1.0
C      1  0.4883450000000  0.4469290000000  0.4803090000000 1.0
C      1  0.5269910000000  0.5227800000000  0.4692880000000 1.0
C      1  0.4924380000000  0.5226750000000  0.5409140000000 1.0
C      1  0.5040220000000  0.5402010000000  0.4772950000000 1.0
C      1  0.4646480000000  0.4664420000000  0.4864450000000 1.0
C      1  0.4590870000000  0.4871770000000  0.5246290000000 1.0
C      1  0.4863780000000  0.5036660000000  0.4548110000000 1.0
C      1  0.4662060000000  0.5576400000000  0.5245780000000 1.0
C      1  0.4531230000000  0.4920000000000  0.4962940000000 1.0
C      1  0.4749020000000  0.4788540000000  0.4597430000000 1.0
C      1  0.5143630000000  0.5058450000000  0.5284390000000 1.0
C      1  0.5048930000000  0.4911140000000  0.5010270000000 1.0
C      1  0.4793310000000  0.5255510000000  0.4710610000000 1.0
C      1  0.4945740000000  0.4497300000000  0.5250630000000 1.0
C      1  0.5574040000000  0.4896180000000  0.4844130000000 1.0
C      1  0.5085710000000  0.4593740000000  0.5474740000000 1.0
C      1  0.4920980000000  0.5510520000000  0.5347070000000 1.0
C      1  0.4589980000000  0.5192510000000  0.4901660000000 1.0
C      1  0.4578650000000  0.5333380000000  0.5154550000000 1.0
C      1  0.5220500000000  0.4748890000000  0.4570730000000 1.0
END
