TITL C-4171-3954-4 -0.167724649843842 125000 -1127.70899131395 0 0 160 (C1) n - 1
REM
REM in /rds/project/t2_vol4/rds-t2-cs072/BORA/CARBON/from-Arr/AIRSS/Generating-Clusters/GAP-ML-2020/Higher-Symm/SD-CG/HFTN-CG/C160-200
REM
REM
REM
REM
REM
REM ./C.cell (6b4489405718ea1b717e0baf1da4c2d9)
REM AIRSS Version 0.9.1 bugfix July 2018 build 013d7b7c2542+ Fri, 06 Jul 2018 19:26:36 +0100
REM compiler GCC version 9.3.0
REM options -cpp -mtune=generic -march=x86-64 -g -O0
REM seed 1281986146 385909132 -1530055661 -947841932 1551745715 -1501654007 -101322407 543921145 1996878174 1769887736 1740565800 -248928285 1987290071 792750229 775403630 523439257 1521564796 842572311 705367905 -841280218 1093090052 948361874 1315349396 -985034822 -1174446809 355848424 -416690252 1167617693 831994104 21108613 2125028885 1930959310 -1836030907
REM
CELL 1.54180   50.00000   50.00000   50.00000   90.00000   90.00000   90.00000
LATT -1
SFAC C  
C      1  0.4901240000000  0.5489500000000  0.5939650000000 1.0
C      1  0.5139320000000  0.5435610000000  0.6071030000000 1.0
C      1  0.5333430000000  0.5279540000000  0.5976310000000 1.0
C      1  0.5423480000000  0.5000900000000  0.5995030000000 1.0
C      1  0.5346570000000  0.4771740000000  0.6108960000000 1.0
C      1  0.5187620000000  0.4579770000000  0.5985760000000 1.0
C      1  0.4932230000000  0.4533120000000  0.6059900000000 1.0
C      1  0.4712290000000  0.4667650000000  0.5976220000000 1.0
C      1  0.4592250000000  0.4886510000000  0.6081940000000 1.0
C      1  0.4581910000000  0.5127860000000  0.5960870000000 1.0
C      1  0.4671770000000  0.5374670000000  0.6020460000000 1.0
C      1  0.4696020000000  0.5395820000000  0.4348890000000 1.0
C      1  0.4937360000000  0.5515170000000  0.4247030000000 1.0
C      1  0.5221880000000  0.5460820000000  0.4347180000000 1.0
C      1  0.5399860000000  0.5226830000000  0.4277550000000 1.0
C      1  0.5273140000000  0.4981420000000  0.4314030000000 1.0
C      1  0.5413450000000  0.4718600000000  0.4371530000000 1.0
C      1  0.5226360000000  0.4513110000000  0.4280980000000 1.0
C      1  0.4921840000000  0.4513980000000  0.4363590000000 1.0
C      1  0.4672510000000  0.4633400000000  0.4241710000000 1.0
C      1  0.4537860000000  0.4890330000000  0.4338650000000 1.0
C      1  0.4543340000000  0.5159840000000  0.4220270000000 1.0
C      1  0.4443020000000  0.5567340000000  0.4293870000000 1.0
C      1  0.4991250000000  0.5802700000000  0.4255090000000 1.0
C      1  0.5276970000000  0.5760340000000  0.4282660000000 1.0
C      1  0.5684050000000  0.5224630000000  0.4310330000000 1.0
C      1  0.5837980000000  0.4979470000000  0.4322480000000 1.0
C      1  0.5713400000000  0.4723370000000  0.4321970000000 1.0
C      1  0.5229450000000  0.4226030000000  0.4276250000000 1.0
C      1  0.4944210000000  0.4204070000000  0.4302600000000 1.0
C      1  0.4411020000000  0.4504080000000  0.4246610000000 1.0
C      1  0.4255770000000  0.4743630000000  0.4294110000000 1.0
C      1  0.4301910000000  0.5328030000000  0.4223760000000 1.0
C      1  0.3975590000000  0.5410480000000  0.4619120000000 1.0
C      1  0.4464650000000  0.5860980000000  0.4711340000000 1.0
C      1  0.5052510000000  0.6136240000000  0.4616740000000 1.0
C      1  0.5626880000000  0.5857700000000  0.4617600000000 1.0
C      1  0.6021400000000  0.5460240000000  0.4613900000000 1.0
C      1  0.6193700000000  0.4820080000000  0.4649470000000 1.0
C      1  0.5793720000000  0.4291180000000  0.4596570000000 1.0
C      1  0.5269860000000  0.3858840000000  0.4621180000000 1.0
C      1  0.4652870000000  0.4047470000000  0.4658440000000 1.0
C      1  0.4149980000000  0.4279080000000  0.4624110000000 1.0
C      1  0.3987010000000  0.4933680000000  0.4712420000000 1.0
C      1  0.4875740000000  0.5557170000000  0.4804300000000 1.0
C      1  0.5146360000000  0.5434050000000  0.4662810000000 1.0
C      1  0.5389130000000  0.5428610000000  0.4813250000000 1.0
C      1  0.5539060000000  0.4901660000000  0.4854820000000 1.0
C      1  0.5402600000000  0.4715090000000  0.4710490000000 1.0
C      1  0.5177370000000  0.4601370000000  0.4833670000000 1.0
C      1  0.4942550000000  0.4563700000000  0.4680490000000 1.0
C      1  0.4680470000000  0.4605790000000  0.4802050000000 1.0
C      1  0.4557810000000  0.4854930000000  0.4665930000000 1.0
C      1  0.4502210000000  0.5125130000000  0.4793540000000 1.0
C      1  0.4709490000000  0.5322970000000  0.4664400000000 1.0
C      1  0.4498110000000  0.4379370000000  0.5611740000000 1.0
C      1  0.4255980000000  0.4749520000000  0.5594940000000 1.0
C      1  0.4224570000000  0.5183420000000  0.5617610000000 1.0
C      1  0.4425970000000  0.5574840000000  0.5547330000000 1.0
C      1  0.4885200000000  0.5824650000000  0.5532570000000 1.0
C      1  0.5331970000000  0.5735400000000  0.5573670000000 1.0
C      1  0.5663160000000  0.5439040000000  0.5588530000000 1.0
C      1  0.5795120000000  0.5006570000000  0.5588840000000 1.0
C      1  0.5670210000000  0.4582750000000  0.5545750000000 1.0
C      1  0.5346450000000  0.4273990000000  0.5578260000000 1.0
C      1  0.4905560000000  0.4201180000000  0.5585890000000 1.0
C      1  0.5860110000000  0.5259780000000  0.5490270000000 1.0
C      1  0.5867370000000  0.4763780000000  0.5462960000000 1.0
C      1  0.5594780000000  0.4325990000000  0.5457660000000 1.0
C      1  0.5148520000000  0.4098910000000  0.5480420000000 1.0
C      1  0.4637000000000  0.4158580000000  0.5501700000000 1.0
C      1  0.4252540000000  0.4478560000000  0.5519090000000 1.0
C      1  0.4087500000000  0.4958550000000  0.5515330000000 1.0
C      1  0.4181640000000  0.5427560000000  0.5506250000000 1.0
C      1  0.4631380000000  0.5904890000000  0.5460730000000 1.0
C      1  0.5153270000000  0.5926400000000  0.5473160000000 1.0
C      1  0.5605280000000  0.5694730000000  0.5490810000000 1.0
C      1  0.5895170000000  0.5554660000000  0.5116150000000 1.0
C      1  0.6054960000000  0.5026460000000  0.5103280000000 1.0
C      1  0.5865940000000  0.4457350000000  0.5079370000000 1.0
C      1  0.5420810000000  0.4079480000000  0.5076240000000 1.0
C      1  0.4857480000000  0.3985560000000  0.5109730000000 1.0
C      1  0.4324460000000  0.4202920000000  0.5127480000000 1.0
C      1  0.4014530000000  0.4665980000000  0.5143660000000 1.0
C      1  0.3953990000000  0.5215350000000  0.5117400000000 1.0
C      1  0.4215240000000  0.5700430000000  0.5154350000000 1.0
C      1  0.5038830000000  0.6119710000000  0.5091060000000 1.0
C      1  0.5515060000000  0.5953440000000  0.5097700000000 1.0
C      1  0.4219000000000  0.5108390000000  0.4664050000000 1.0
C      1  0.4108170000000  0.5655670000000  0.4653880000000 1.0
C      1  0.4753560000000  0.5853000000000  0.4728100000000 1.0
C      1  0.5332860000000  0.6123020000000  0.4617120000000 1.0
C      1  0.5632910000000  0.5576670000000  0.4684430000000 1.0
C      1  0.6153760000000  0.5223810000000  0.4627050000000 1.0
C      1  0.6082770000000  0.4577680000000  0.4631580000000 1.0
C      1  0.5600530000000  0.4104650000000  0.4593500000000 1.0
C      1  0.4999530000000  0.3830290000000  0.4631400000000 1.0
C      1  0.4545290000000  0.4308820000000  0.4696420000000 1.0
C      1  0.4001730000000  0.4516170000000  0.4643460000000 1.0
C      1  0.4940160000000  0.4498720000000  0.5567720000000 1.0
C      1  0.4681570000000  0.4608260000000  0.5682550000000 1.0
C      1  0.4539990000000  0.4849360000000  0.5547890000000 1.0
C      1  0.4518950000000  0.5133510000000  0.5666440000000 1.0
C      1  0.4659420000000  0.5377310000000  0.5527170000000 1.0
C      1  0.4909010000000  0.5529950000000  0.5638060000000 1.0
C      1  0.5193430000000  0.5467890000000  0.5534970000000 1.0
C      1  0.5419510000000  0.5299020000000  0.5683480000000 1.0
C      1  0.5517530000000  0.4999560000000  0.5701240000000 1.0
C      1  0.5422450000000  0.4739380000000  0.5563410000000 1.0
C      1  0.5224800000000  0.4531950000000  0.5683840000000 1.0
C      1  0.5149880000000  0.4021190000000  0.5210690000000 1.0
C      1  0.4591800000000  0.4081550000000  0.5237150000000 1.0
C      1  0.4157310000000  0.4422550000000  0.5262330000000 1.0
C      1  0.3980670000000  0.4947570000000  0.5257630000000 1.0
C      1  0.4068130000000  0.5459590000000  0.5249810000000 1.0
C      1  0.4409600000000  0.5785270000000  0.5363660000000 1.0
C      1  0.5260290000000  0.6039140000000  0.5229270000000 1.0
C      1  0.5699930000000  0.5763150000000  0.5232550000000 1.0
C      1  0.5976510000000  0.5287870000000  0.5235590000000 1.0
C      1  0.5967900000000  0.4739080000000  0.5204880000000 1.0
C      1  0.5647040000000  0.4264800000000  0.5188970000000 1.0
C      1  0.5521970000000  0.6028200000000  0.4822970000000 1.0
C      1  0.5896800000000  0.5577260000000  0.4842290000000 1.0
C      1  0.6182450000000  0.5034410000000  0.4852210000000 1.0
C      1  0.5952510000000  0.4396480000000  0.4820890000000 1.0
C      1  0.5456380000000  0.3982270000000  0.4816570000000 1.0
C      1  0.4820760000000  0.3906740000000  0.4846670000000 1.0
C      1  0.4306620000000  0.4192230000000  0.4850380000000 1.0
C      1  0.3957320000000  0.4686050000000  0.4871440000000 1.0
C      1  0.3922270000000  0.5208640000000  0.4827330000000 1.0
C      1  0.4242100000000  0.5776450000000  0.4884090000000 1.0
C      1  0.4907170000000  0.6092780000000  0.4864790000000 1.0
C      1  0.5781560000000  0.5447290000000  0.4451770000000 1.0
C      1  0.6096040000000  0.5006930000000  0.4442800000000 1.0
C      1  0.5875260000000  0.4514960000000  0.4428530000000 1.0
C      1  0.5391860000000  0.4030670000000  0.4405740000000 1.0
C      1  0.4840330000000  0.3989560000000  0.4443670000000 1.0
C      1  0.4370690000000  0.4306980000000  0.4439500000000 1.0
C      1  0.4031700000000  0.4741230000000  0.4467110000000 1.0
C      1  0.4117370000000  0.5252730000000  0.4420850000000 1.0
C      1  0.4332760000000  0.5735930000000  0.4484780000000 1.0
C      1  0.4884430000000  0.5961840000000  0.4460950000000 1.0
C      1  0.5442350000000  0.5942100000000  0.4413230000000 1.0
C      1  0.5375750000000  0.5304500000000  0.5072820000000 1.0
C      1  0.5449460000000  0.5025300000000  0.5093390000000 1.0
C      1  0.5298580000000  0.4837050000000  0.5286850000000 1.0
C      1  0.5170530000000  0.4610150000000  0.5128150000000 1.0
C      1  0.4930240000000  0.4539440000000  0.5253560000000 1.0
C      1  0.4694120000000  0.4631740000000  0.5109280000000 1.0
C      1  0.4611520000000  0.4883480000000  0.5235090000000 1.0
C      1  0.4503880000000  0.5136450000000  0.5089270000000 1.0
C      1  0.4715760000000  0.5316530000000  0.5225540000000 1.0
C      1  0.4910960000000  0.5500990000000  0.5098100000000 1.0
C      1  0.5173530000000  0.5440290000000  0.5227980000000 1.0
C      1  0.4975120000000  0.5157980000000  0.4666550000000 1.0
C      1  0.4873350000000  0.5057070000000  0.5200000000000 1.0
C      1  0.4988160000000  0.5021860000000  0.4924710000000 1.0
C      1  0.4997630000000  0.4993440000000  0.5660430000000 1.0
C      1  0.5021610000000  0.5003690000000  0.4421510000000 1.0
C      1  0.5068030000000  0.4990940000000  0.5406270000000 1.0
END
