TITL C-4170-3940-4 0.0401410510833469 125000 -1203.09692793358 0 0 172 (C1) n - 1
REM
REM in /rds/project/t2_vol4/rds-t2-cs072/BORA/CARBON/from-Arr/AIRSS/Generating-Clusters/GAP-ML-2020/Higher-Symm/SD-CG/HFTN-CG/C160-200
REM
REM
REM
REM
REM
REM ./C.cell (6b4489405718ea1b717e0baf1da4c2d9)
REM AIRSS Version 0.9.1 bugfix July 2018 build 013d7b7c2542+ Fri, 06 Jul 2018 19:26:36 +0100
REM compiler GCC version 9.3.0
REM options -cpp -mtune=generic -march=x86-64 -g -O0
REM seed 1952484944 -1421608046 1313585933 1917860675 1475086052 1137005108 961726208 913890486 1309995698 -313077845 2097265509 -144941403 832364097 1279764405 1899111375 -1353420490 71312733 242831389 1480392545 473305784 859899611 1038310011 -1980481297 1942342255 73599268 -106688063 1791780736 -2074798978 475031515 480069532 -244253249 -65075456 -982494615
REM
CELL 1.54180   50.00000   50.00000   50.00000   90.00000   90.00000   90.00000
LATT -1
SFAC C  
C      1  0.4350160000000  0.4906220000000  0.5102530000000 1.0
C      1  0.5291400000000  0.5788650000000  0.4360430000000 1.0
C      1  0.4666410000000  0.5204390000000  0.4041080000000 1.0
C      1  0.5834690000000  0.4605140000000  0.4496710000000 1.0
C      1  0.5936860000000  0.5116860000000  0.4642590000000 1.0
C      1  0.4309060000000  0.5387710000000  0.5516590000000 1.0
C      1  0.5717360000000  0.5112790000000  0.5090180000000 1.0
C      1  0.5391900000000  0.5361850000000  0.4801410000000 1.0
C      1  0.4831940000000  0.5255230000000  0.4923480000000 1.0
C      1  0.4492700000000  0.4509900000000  0.5235430000000 1.0
C      1  0.4816860000000  0.5805090000000  0.5762080000000 1.0
C      1  0.5302210000000  0.4607370000000  0.4419330000000 1.0
C      1  0.4549580000000  0.4615310000000  0.4771320000000 1.0
C      1  0.4084560000000  0.4468880000000  0.5465810000000 1.0
C      1  0.4361430000000  0.5010960000000  0.5911920000000 1.0
C      1  0.4644900000000  0.5481550000000  0.4097980000000 1.0
C      1  0.5699680000000  0.5538150000000  0.4452020000000 1.0
C      1  0.5645560000000  0.5007300000000  0.5377280000000 1.0
C      1  0.4505740000000  0.5068620000000  0.4251140000000 1.0
C      1  0.5383310000000  0.5158310000000  0.5462320000000 1.0
C      1  0.5514380000000  0.5429180000000  0.5578790000000 1.0
C      1  0.4422240000000  0.5939830000000  0.5090770000000 1.0
C      1  0.4622810000000  0.5955440000000  0.4596110000000 1.0
C      1  0.5076620000000  0.4861150000000  0.4047640000000 1.0
C      1  0.4736230000000  0.5055510000000  0.4511160000000 1.0
C      1  0.4881080000000  0.5974450000000  0.4485260000000 1.0
C      1  0.5577120000000  0.4465580000000  0.5708780000000 1.0
C      1  0.4979980000000  0.5569150000000  0.5358290000000 1.0
C      1  0.4372020000000  0.5304270000000  0.4754740000000 1.0
C      1  0.4041970000000  0.4344900000000  0.5203840000000 1.0
C      1  0.4641430000000  0.4596330000000  0.4094150000000 1.0
C      1  0.4927470000000  0.5509840000000  0.4818560000000 1.0
C      1  0.4457070000000  0.4015110000000  0.5095240000000 1.0
C      1  0.5506610000000  0.5112430000000  0.4037550000000 1.0
C      1  0.5693180000000  0.4302520000000  0.5109690000000 1.0
C      1  0.5757910000000  0.5109970000000  0.4176290000000 1.0
C      1  0.4677650000000  0.5965440000000  0.5550730000000 1.0
C      1  0.5948100000000  0.5479920000000  0.5426960000000 1.0
C      1  0.4848130000000  0.4804300000000  0.5052140000000 1.0
C      1  0.5267180000000  0.4253550000000  0.4859790000000 1.0
C      1  0.4445500000000  0.5532030000000  0.4306700000000 1.0
C      1  0.4540740000000  0.5862600000000  0.5334520000000 1.0
C      1  0.4093040000000  0.5310330000000  0.4871200000000 1.0
C      1  0.5751210000000  0.5241300000000  0.4449060000000 1.0
C      1  0.4260850000000  0.4131630000000  0.5271470000000 1.0
C      1  0.4715060000000  0.4905580000000  0.5481400000000 1.0
C      1  0.4463320000000  0.4555600000000  0.5895190000000 1.0
C      1  0.4630290000000  0.4204130000000  0.4401080000000 1.0
C      1  0.5807820000000  0.4540690000000  0.5570200000000 1.0
C      1  0.4621200000000  0.5064930000000  0.6038030000000 1.0
C      1  0.5151250000000  0.5091200000000  0.5633990000000 1.0
C      1  0.5749480000000  0.5692640000000  0.4692520000000 1.0
C      1  0.4068700000000  0.5378860000000  0.5354520000000 1.0
C      1  0.4576020000000  0.4868950000000  0.4920280000000 1.0
C      1  0.5341170000000  0.5330910000000  0.4147070000000 1.0
C      1  0.5224910000000  0.3973900000000  0.5272670000000 1.0
C      1  0.4397680000000  0.4143860000000  0.4853850000000 1.0
C      1  0.5052150000000  0.5958600000000  0.5695280000000 1.0
C      1  0.4935350000000  0.5110880000000  0.5154390000000 1.0
C      1  0.4719630000000  0.4605340000000  0.6024420000000 1.0
C      1  0.5653900000000  0.4379570000000  0.4612670000000 1.0
C      1  0.4934260000000  0.6092760000000  0.4942990000000 1.0
C      1  0.5470980000000  0.4007850000000  0.4828310000000 1.0
C      1  0.5815930000000  0.5048320000000  0.5615620000000 1.0
C      1  0.5069940000000  0.6059510000000  0.4681060000000 1.0
C      1  0.5139230000000  0.4844960000000  0.4365330000000 1.0
C      1  0.5466040000000  0.5578480000000  0.4284980000000 1.0
C      1  0.4812730000000  0.4562800000000  0.4643620000000 1.0
C      1  0.5801640000000  0.5582540000000  0.5206070000000 1.0
C      1  0.4050630000000  0.4699370000000  0.5629720000000 1.0
C      1  0.4434130000000  0.5591150000000  0.4784770000000 1.0
C      1  0.6007780000000  0.4744570000000  0.4922290000000 1.0
C      1  0.5332540000000  0.5962590000000  0.4586110000000 1.0
C      1  0.5457040000000  0.5147610000000  0.4597020000000 1.0
C      1  0.5434640000000  0.5162120000000  0.5003950000000 1.0
C      1  0.4468270000000  0.4793720000000  0.5338020000000 1.0
C      1  0.5351000000000  0.6055080000000  0.5215540000000 1.0
C      1  0.5315070000000  0.4385080000000  0.5629730000000 1.0
C      1  0.5001860000000  0.4736100000000  0.4815320000000 1.0
C      1  0.4823150000000  0.4861640000000  0.6093630000000 1.0
C      1  0.4622040000000  0.5339230000000  0.5929160000000 1.0
C      1  0.5787590000000  0.4802880000000  0.5750680000000 1.0
C      1  0.5055420000000  0.4397660000000  0.4203700000000 1.0
C      1  0.4851600000000  0.5509540000000  0.5833060000000 1.0
C      1  0.5356750000000  0.4188080000000  0.5409430000000 1.0
C      1  0.5812830000000  0.5337980000000  0.5620100000000 1.0
C      1  0.5176870000000  0.4448360000000  0.5899640000000 1.0
C      1  0.5338790000000  0.4018020000000  0.4563100000000 1.0
C      1  0.5285250000000  0.4702350000000  0.4879670000000 1.0
C      1  0.4371690000000  0.5282490000000  0.5785640000000 1.0
C      1  0.4259160000000  0.4750780000000  0.5844050000000 1.0
C      1  0.4939970000000  0.5127390000000  0.3977050000000 1.0
C      1  0.5304180000000  0.5843720000000  0.5675240000000 1.0
C      1  0.3965620000000  0.4467950000000  0.4682560000000 1.0
C      1  0.5570510000000  0.5924070000000  0.4751780000000 1.0
C      1  0.5216430000000  0.5517690000000  0.5195740000000 1.0
C      1  0.5481830000000  0.4204350000000  0.4410410000000 1.0
C      1  0.5777610000000  0.4676500000000  0.4225830000000 1.0
C      1  0.5144050000000  0.4592550000000  0.5426850000000 1.0
C      1  0.4904080000000  0.4814630000000  0.4540900000000 1.0
C      1  0.4093690000000  0.5498990000000  0.5079330000000 1.0
C      1  0.5339730000000  0.5575400000000  0.5775900000000 1.0
C      1  0.5724220000000  0.4833030000000  0.4984320000000 1.0
C      1  0.5441330000000  0.5886380000000  0.5430120000000 1.0
C      1  0.5290420000000  0.4690880000000  0.6004680000000 1.0
C      1  0.5972980000000  0.4820680000000  0.4650570000000 1.0
C      1  0.4930180000000  0.6090020000000  0.5462150000000 1.0
C      1  0.4999020000000  0.4835020000000  0.5535030000000 1.0
C      1  0.5375950000000  0.3870870000000  0.5057230000000 1.0
C      1  0.4908170000000  0.5591370000000  0.4085950000000 1.0
C      1  0.4750540000000  0.5182640000000  0.5396840000000 1.0
C      1  0.4577370000000  0.4070720000000  0.4647290000000 1.0
C      1  0.5701930000000  0.4197360000000  0.4847480000000 1.0
C      1  0.4998960000000  0.5740980000000  0.4332270000000 1.0
C      1  0.6085050000000  0.4580090000000  0.5118910000000 1.0
C      1  0.4072610000000  0.4652310000000  0.4506650000000 1.0
C      1  0.4352030000000  0.4331040000000  0.5466770000000 1.0
C      1  0.4954260000000  0.5250940000000  0.4454680000000 1.0
C      1  0.5619040000000  0.4731270000000  0.5250280000000 1.0
C      1  0.4920700000000  0.4597970000000  0.4048320000000 1.0
C      1  0.4510990000000  0.4348480000000  0.5703240000000 1.0
C      1  0.4264430000000  0.5714140000000  0.4992720000000 1.0
C      1  0.4320810000000  0.5278800000000  0.4369170000000 1.0
C      1  0.4754980000000  0.3990200000000  0.5073730000000 1.0
C      1  0.5142380000000  0.5441190000000  0.5931300000000 1.0
C      1  0.5197910000000  0.5545460000000  0.4906230000000 1.0
C      1  0.4903800000000  0.4415700000000  0.5910870000000 1.0
C      1  0.5513560000000  0.6017220000000  0.5001090000000 1.0
C      1  0.5232150000000  0.5208530000000  0.5207020000000 1.0
C      1  0.5374990000000  0.4488410000000  0.4699290000000 1.0
C      1  0.4659380000000  0.5973430000000  0.4894940000000 1.0
C      1  0.5112150000000  0.4915440000000  0.6072520000000 1.0
C      1  0.5410540000000  0.4334100000000  0.5159870000000 1.0
C      1  0.4692550000000  0.5613220000000  0.5238790000000 1.0
C      1  0.5226760000000  0.5134540000000  0.4414970000000 1.0
C      1  0.5853720000000  0.4494690000000  0.5278930000000 1.0
C      1  0.5349340000000  0.4396740000000  0.4220010000000 1.0
C      1  0.4776350000000  0.4528780000000  0.5193620000000 1.0
C      1  0.4816680000000  0.4003280000000  0.4788830000000 1.0
C      1  0.5059780000000  0.6118390000000  0.5205100000000 1.0
C      1  0.5510520000000  0.4628780000000  0.4119310000000 1.0
C      1  0.4907910000000  0.4305070000000  0.4453320000000 1.0
C      1  0.4387870000000  0.4438380000000  0.4937660000000 1.0
C      1  0.4088860000000  0.4904560000000  0.4675800000000 1.0
C      1  0.4614440000000  0.5124180000000  0.4782010000000 1.0
C      1  0.5471880000000  0.4923380000000  0.4823900000000 1.0
C      1  0.4950830000000  0.4070450000000  0.5263560000000 1.0
C      1  0.5376870000000  0.4857630000000  0.3998230000000 1.0
C      1  0.4788240000000  0.4318900000000  0.5669850000000 1.0
C      1  0.4433440000000  0.4793020000000  0.4158770000000 1.0
C      1  0.4544730000000  0.5380840000000  0.5345440000000 1.0
C      1  0.5339440000000  0.4619480000000  0.5187110000000 1.0
C      1  0.4107410000000  0.4819920000000  0.4950080000000 1.0
C      1  0.5051640000000  0.4117050000000  0.4649200000000 1.0
C      1  0.4699320000000  0.5648660000000  0.4939500000000 1.0
C      1  0.5556960000000  0.4689630000000  0.5894790000000 1.0
C      1  0.5905160000000  0.5262430000000  0.4888540000000 1.0
C      1  0.3912520000000  0.5153540000000  0.5420370000000 1.0
C      1  0.4267410000000  0.4598490000000  0.4290650000000 1.0
C      1  0.4489760000000  0.4401320000000  0.4248640000000 1.0
C      1  0.4472550000000  0.5725510000000  0.4524670000000 1.0
C      1  0.4079100000000  0.4510200000000  0.4950640000000 1.0
C      1  0.5170200000000  0.5155640000000  0.5931830000000 1.0
C      1  0.4941020000000  0.5346920000000  0.5555270000000 1.0
C      1  0.5085270000000  0.5374400000000  0.4005900000000 1.0
C      1  0.5860780000000  0.5540730000000  0.4917800000000 1.0
C      1  0.4925880000000  0.5510630000000  0.4532780000000 1.0
C      1  0.5918530000000  0.4895580000000  0.4131770000000 1.0
C      1  0.5515560000000  0.5619160000000  0.5331750000000 1.0
C      1  0.4920420000000  0.4360740000000  0.5384840000000 1.0
C      1  0.3909890000000  0.4926940000000  0.5529410000000 1.0
C      1  0.4140300000000  0.5184010000000  0.4602320000000 1.0
END
