TITL C-4174-6720-2 -0.00802705197440353 125000 -741.026790747707 0 0 105 (C1) n - 1
REM
REM in /rds/project/t2_vol4/rds-t2-cs072/BORA/CARBON/from-Arr/AIRSS/Generating-Clusters/GAP-ML-2020/Higher-Symm/SD-CG/HFTN-CG
REM
REM
REM
REM
REM
REM ./C.cell (b20cbc046b6831c77cfcea5457e17084)
REM AIRSS Version 0.9.1 bugfix July 2018 build 013d7b7c2542+ Fri, 06 Jul 2018 19:26:36 +0100
REM compiler GCC version 9.3.0
REM options -cpp -mtune=generic -march=x86-64 -g -O0
REM seed 1228786094 -124634515 -1081454719 190865611 -126659511 -778725719 2089631749 -1437015075 -2005255930 741794940 -1775928005 -803360813 1686103921 -2060977720 -823321273 -1999844033 399694619 705077576 -187750632 2047368361 376333230 -2115453388 -1810207748 -1437379812 -1083324182 1916460519 2079314231 -1369664067 1851845865 -1126589060 -1055099602 1832578731 -25906658
REM
CELL 1.54180   50.00000   50.00000   50.00000   90.00000   90.00000   90.00000
LATT -1
SFAC C  
C      1  0.4847700000000  0.4768960000000  0.6011070000000 1.0
C      1  0.4840500000000  0.5880740000000  0.5566340000000 1.0
C      1  0.4829510000000  0.5789230000000  0.4325050000000 1.0
C      1  0.4826240000000  0.4613830000000  0.4052030000000 1.0
C      1  0.4796460000000  0.3970100000000  0.5059740000000 1.0
C      1  0.5200200000000  0.4794560000000  0.3967910000000 1.0
C      1  0.5191650000000  0.5911830000000  0.4505380000000 1.0
C      1  0.5230740000000  0.5768820000000  0.5692810000000 1.0
C      1  0.5197410000000  0.4547060000000  0.5926960000000 1.0
C      1  0.5181000000000  0.3967300000000  0.4878420000000 1.0
C      1  0.4954880000000  0.5706440000000  0.5775680000000 1.0
C      1  0.4895490000000  0.5943710000000  0.4554740000000 1.0
C      1  0.4910180000000  0.4881630000000  0.3984140000000 1.0
C      1  0.4901760000000  0.3984880000000  0.4784530000000 1.0
C      1  0.4899000000000  0.4505560000000  0.5914900000000 1.0
C      1  0.5125440000000  0.5753400000000  0.4278120000000 1.0
C      1  0.5115960000000  0.5931680000000  0.5474770000000 1.0
C      1  0.5145910000000  0.4811750000000  0.6019530000000 1.0
C      1  0.5075500000000  0.3966380000000  0.5154770000000 1.0
C      1  0.5108240000000  0.4529420000000  0.4042190000000 1.0
C      1  0.5384070000000  0.5688530000000  0.5158740000000 1.0
C      1  0.5354090000000  0.5324390000000  0.4342340000000 1.0
C      1  0.5338340000000  0.4480710000000  0.4472120000000 1.0
C      1  0.5364590000000  0.4334550000000  0.5261970000000 1.0
C      1  0.5375720000000  0.5114600000000  0.5710200000000 1.0
C      1  0.4668290000000  0.5732550000000  0.4934680000000 1.0
C      1  0.4664660000000  0.5350950000000  0.5632820000000 1.0
C      1  0.4655860000000  0.4464740000000  0.5491750000000 1.0
C      1  0.4626940000000  0.4373390000000  0.4699140000000 1.0
C      1  0.4623030000000  0.5102310000000  0.4304100000000 1.0
C      1  0.4814430000000  0.5119210000000  0.4093680000000 1.0
C      1  0.4806780000000  0.4175450000000  0.4606700000000 1.0
C      1  0.4839620000000  0.4350550000000  0.5682910000000 1.0
C      1  0.4857320000000  0.5450340000000  0.5815530000000 1.0
C      1  0.4850080000000  0.5933730000000  0.4835920000000 1.0
C      1  0.5199990000000  0.5079270000000  0.5936410000000 1.0
C      1  0.5176550000000  0.4139660000000  0.5346160000000 1.0
C      1  0.5157360000000  0.4372520000000  0.4274280000000 1.0
C      1  0.5170960000000  0.5486750000000  0.4187750000000 1.0
C      1  0.5203520000000  0.5900080000000  0.5214170000000 1.0
C      1  0.5148370000000  0.4900150000000  0.4744810000000 1.0
C      1  0.5153370000000  0.4734560000000  0.5007380000000 1.0
C      1  0.5165590000000  0.4929270000000  0.5257180000000 1.0
C      1  0.5166390000000  0.5215280000000  0.5139880000000 1.0
C      1  0.5161370000000  0.5203580000000  0.4820540000000 1.0
C      1  0.4852820000000  0.4895600000000  0.5252150000000 1.0
C      1  0.4843220000000  0.4742450000000  0.4985610000000 1.0
C      1  0.4837670000000  0.4943080000000  0.4745230000000 1.0
C      1  0.4851500000000  0.5236300000000  0.4864590000000 1.0
C      1  0.4859440000000  0.5203600000000  0.5173390000000 1.0
C      1  0.4407360000000  0.4530570000000  0.5092690000000 1.0
C      1  0.4445780000000  0.4936500000000  0.5506950000000 1.0
C      1  0.4434140000000  0.5450200000000  0.5235320000000 1.0
C      1  0.4433710000000  0.5365330000000  0.4661180000000 1.0
C      1  0.4398580000000  0.4777060000000  0.4579170000000 1.0
C      1  0.5577880000000  0.4512970000000  0.4882860000000 1.0
C      1  0.5567930000000  0.4927300000000  0.4497790000000 1.0
C      1  0.5576870000000  0.5448160000000  0.4784880000000 1.0
C      1  0.5603300000000  0.5320410000000  0.5349270000000 1.0
C      1  0.5578880000000  0.4741300000000  0.5419310000000 1.0
C      1  0.5709230000000  0.4976330000000  0.4738900000000 1.0
C      1  0.5718020000000  0.4751520000000  0.4922850000000 1.0
C      1  0.5717600000000  0.4853590000000  0.5193670000000 1.0
C      1  0.5726520000000  0.5142360000000  0.5173850000000 1.0
C      1  0.5712990000000  0.5220180000000  0.4893130000000 1.0
C      1  0.4296790000000  0.4991460000000  0.5266770000000 1.0
C      1  0.4276660000000  0.4777410000000  0.5074100000000 1.0
C      1  0.4275470000000  0.4891560000000  0.4805150000000 1.0
C      1  0.4294010000000  0.5180240000000  0.4831290000000 1.0
C      1  0.4294870000000  0.5240380000000  0.5115810000000 1.0
C      1  0.4729410000000  0.5016550000000  0.5934580000000 1.0
C      1  0.4623060000000  0.5886560000000  0.5413500000000 1.0
C      1  0.4703370000000  0.5545550000000  0.4251110000000 1.0
C      1  0.4692100000000  0.4462650000000  0.4255730000000 1.0
C      1  0.4587780000000  0.4065560000000  0.5193520000000 1.0
C      1  0.5409640000000  0.4944700000000  0.4028680000000 1.0
C      1  0.5317110000000  0.5897330000000  0.4760190000000 1.0
C      1  0.5443100000000  0.5613580000000  0.5730040000000 1.0
C      1  0.5310580000000  0.4404440000000  0.5708150000000 1.0
C      1  0.5393570000000  0.4061550000000  0.4749070000000 1.0
C      1  0.5474140000000  0.4481950000000  0.5481890000000 1.0
C      1  0.5497170000000  0.5357040000000  0.5616970000000 1.0
C      1  0.5482520000000  0.5697760000000  0.4890080000000 1.0
C      1  0.5475660000000  0.5077150000000  0.4268190000000 1.0
C      1  0.5458810000000  0.4334130000000  0.4688750000000 1.0
C      1  0.4528070000000  0.4538070000000  0.4486920000000 1.0
C      1  0.4532700000000  0.5357570000000  0.4391150000000 1.0
C      1  0.4554420000000  0.5711820000000  0.5197450000000 1.0
C      1  0.4558770000000  0.5097790000000  0.5714920000000 1.0
C      1  0.4529230000000  0.4334360000000  0.5269640000000 1.0
C      1  0.5352500000000  0.5422600000000  0.5259170000000 1.0
C      1  0.5352590000000  0.5356720000000  0.4632390000000 1.0
C      1  0.5331930000000  0.4767040000000  0.4532810000000 1.0
C      1  0.5331250000000  0.4490640000000  0.5024630000000 1.0
C      1  0.5364480000000  0.4916010000000  0.5495040000000 1.0
C      1  0.4661260000000  0.5473020000000  0.4798210000000 1.0
C      1  0.4686610000000  0.5380670000000  0.5348750000000 1.0
C      1  0.4661160000000  0.4755250000000  0.5451280000000 1.0
C      1  0.4652940000000  0.4509860000000  0.4949240000000 1.0
C      1  0.4639170000000  0.4911050000000  0.4515080000000 1.0
C      1  0.5092640000000  0.4232530000000  0.5602820000000 1.0
C      1  0.4910320000000  0.5387770000000  0.4108440000000 1.0
C      1  0.4896170000000  0.4273500000000  0.4353480000000 1.0
C      1  0.5109910000000  0.5978910000000  0.4956650000000 1.0
C      1  0.4946010000000  0.5218020000000  0.5955360000000 1.0
END
