TITL C-4174-3857-1 -408.333275040241 125000 -1250.37675278823 0 0 179 (C1) n - 1
REM
REM in /rds/project/t2_vol4/rds-t2-cs072/BORA/CARBON/from-Arr/AIRSS/Generating-Clusters/GAP-ML-2020/Higher-Symm/SD-CG/HFTN-CG/C160-200
REM
REM
REM
REM
REM
REM ./C.cell (6b4489405718ea1b717e0baf1da4c2d9)
REM AIRSS Version 0.9.1 bugfix July 2018 build 013d7b7c2542+ Fri, 06 Jul 2018 19:26:36 +0100
REM compiler GCC version 9.3.0
REM options -cpp -mtune=generic -march=x86-64 -g -O0
REM seed -1538968835 2023286496 -766435853 856566872 685343652 -2072348033 3272059 -610994988 1322783129 -769702300 -569948930 -1834432268 627559609 -842121819 -1169486416 1101856415 945889982 1917419414 -1966091987 1231798745 -1650783252 1032052726 562586612 644519932 -2072945086 -781666781 1150083495 -419795654 -1287039778 1768706710 762626433 1891496613 227825647
REM
CELL 1.54180   50.00000   50.00000   50.00000   90.00000   90.00000   90.00000
LATT -1
SFAC C  
C      1  0.5821510000000  0.5557620000000  0.4634270000000 1.0
C      1  0.5765030000000  0.4882490000000  0.4334010000000 1.0
C      1  0.5801520000000  0.4320950000000  0.4837460000000 1.0
C      1  0.5701370000000  0.4687060000000  0.5613360000000 1.0
C      1  0.5692090000000  0.5451230000000  0.5556680000000 1.0
C      1  0.5583870000000  0.5721780000000  0.5558200000000 1.0
C      1  0.5616420000000  0.5653130000000  0.4453820000000 1.0
C      1  0.5612670000000  0.4691600000000  0.4180960000000 1.0
C      1  0.5644770000000  0.4099630000000  0.4967700000000 1.0
C      1  0.5574510000000  0.4730880000000  0.5867640000000 1.0
C      1  0.5449130000000  0.4605140000000  0.4680120000000 1.0
C      1  0.5580990000000  0.4570580000000  0.5366140000000 1.0
C      1  0.5530070000000  0.5208260000000  0.5543380000000 1.0
C      1  0.5898260000000  0.5573010000000  0.4912990000000 1.0
C      1  0.5433610000000  0.5155490000000  0.4561610000000 1.0
C      1  0.5373900000000  0.5229130000000  0.5035460000000 1.0
C      1  0.5458080000000  0.5057950000000  0.4824590000000 1.0
C      1  0.5421280000000  0.4769720000000  0.4919530000000 1.0
C      1  0.5605360000000  0.4793700000000  0.5158820000000 1.0
C      1  0.5461940000000  0.5050110000000  0.5263260000000 1.0
C      1  0.5986690000000  0.4957510000000  0.5302120000000 1.0
C      1  0.6009040000000  0.5231820000000  0.5231730000000 1.0
C      1  0.6029300000000  0.5146840000000  0.4743010000000 1.0
C      1  0.5983050000000  0.4871530000000  0.4785730000000 1.0
C      1  0.5914740000000  0.4775920000000  0.5065150000000 1.0
C      1  0.5392700000000  0.6012000000000  0.5239080000000 1.0
C      1  0.5357770000000  0.5491670000000  0.4102940000000 1.0
C      1  0.5379840000000  0.4292260000000  0.4222710000000 1.0
C      1  0.5415140000000  0.4032760000000  0.5391010000000 1.0
C      1  0.5351940000000  0.5095770000000  0.6067620000000 1.0
C      1  0.5078080000000  0.5572450000000  0.4821150000000 1.0
C      1  0.5037070000000  0.4985020000000  0.4438350000000 1.0
C      1  0.5086990000000  0.4427680000000  0.4835270000000 1.0
C      1  0.5135250000000  0.4698100000000  0.5477570000000 1.0
C      1  0.5128120000000  0.5396820000000  0.5454230000000 1.0
C      1  0.4164730000000  0.4921250000000  0.4406080000000 1.0
C      1  0.4196640000000  0.4447740000000  0.4872340000000 1.0
C      1  0.4200940000000  0.4750260000000  0.5371910000000 1.0
C      1  0.4130320000000  0.5534570000000  0.5484950000000 1.0
C      1  0.4197780000000  0.5426480000000  0.4752870000000 1.0
C      1  0.4683620000000  0.5487730000000  0.5015070000000 1.0
C      1  0.4631100000000  0.5173500000000  0.4524820000000 1.0
C      1  0.4665010000000  0.4577760000000  0.4665660000000 1.0
C      1  0.4716760000000  0.4573170000000  0.5263180000000 1.0
C      1  0.4727430000000  0.5129560000000  0.5443440000000 1.0
C      1  0.4802940000000  0.5571690000000  0.3997610000000 1.0
C      1  0.4804250000000  0.4197650000000  0.4124680000000 1.0
C      1  0.4848670000000  0.3923350000000  0.5462970000000 1.0
C      1  0.4768140000000  0.5117770000000  0.6132150000000 1.0
C      1  0.4834350000000  0.6194480000000  0.5258050000000 1.0
C      1  0.5339940000000  0.3978560000000  0.4628030000000 1.0
C      1  0.5330080000000  0.4347770000000  0.5835580000000 1.0
C      1  0.5293840000000  0.5605250000000  0.5905280000000 1.0
C      1  0.5345710000000  0.5995790000000  0.4702160000000 1.0
C      1  0.5319970000000  0.5000930000000  0.3938580000000 1.0
C      1  0.4908360000000  0.5783730000000  0.4160880000000 1.0
C      1  0.4912060000000  0.4410080000000  0.3966940000000 1.0
C      1  0.4943660000000  0.3845420000000  0.5208860000000 1.0
C      1  0.4869820000000  0.4853900000000  0.6140730000000 1.0
C      1  0.4931730000000  0.6107880000000  0.5515570000000 1.0
C      1  0.5591310000000  0.5454570000000  0.4249210000000 1.0
C      1  0.5613100000000  0.4434160000000  0.4300080000000 1.0
C      1  0.5650110000000  0.4116540000000  0.5252530000000 1.0
C      1  0.5590660000000  0.5003060000000  0.5942870000000 1.0
C      1  0.5627080000000  0.5854000000000  0.5305300000000 1.0
C      1  0.4514870000000  0.4553340000000  0.4191110000000 1.0
C      1  0.4552080000000  0.4110320000000  0.5159980000000 1.0
C      1  0.4518820000000  0.4886880000000  0.5816690000000 1.0
C      1  0.4463220000000  0.5980680000000  0.5479980000000 1.0
C      1  0.4515430000000  0.5621620000000  0.4353140000000 1.0
C      1  0.4036620000000  0.4939810000000  0.4691720000000 1.0
C      1  0.4047670000000  0.4723950000000  0.4902180000000 1.0
C      1  0.4033130000000  0.4850190000000  0.5160020000000 1.0
C      1  0.3961640000000  0.5364490000000  0.5318570000000 1.0
C      1  0.4025530000000  0.5194390000000  0.4817800000000 1.0
C      1  0.5263710000000  0.6061120000000  0.4959360000000 1.0
C      1  0.5225050000000  0.5256330000000  0.3981000000000 1.0
C      1  0.5245140000000  0.4094010000000  0.4398360000000 1.0
C      1  0.5288870000000  0.4154850000000  0.5647690000000 1.0
C      1  0.5224340000000  0.5373040000000  0.6026470000000 1.0
C      1  0.4732950000000  0.5951990000000  0.4827800000000 1.0
C      1  0.4727430000000  0.5085830000000  0.4045930000000 1.0
C      1  0.4752900000000  0.4103410000000  0.4606510000000 1.0
C      1  0.4808400000000  0.4356220000000  0.5695610000000 1.0
C      1  0.4756700000000  0.5489730000000  0.5808280000000 1.0
C      1  0.5714770000000  0.4484130000000  0.4589920000000 1.0
C      1  0.5775240000000  0.4365570000000  0.5282320000000 1.0
C      1  0.5739130000000  0.5101750000000  0.5716400000000 1.0
C      1  0.5820110000000  0.5676650000000  0.5171510000000 1.0
C      1  0.5687650000000  0.5181370000000  0.4377620000000 1.0
C      1  0.4762270000000  0.5616120000000  0.5274940000000 1.0
C      1  0.4744340000000  0.5461930000000  0.4510110000000 1.0
C      1  0.4745040000000  0.4642100000000  0.4382240000000 1.0
C      1  0.4789380000000  0.4316110000000  0.5133300000000 1.0
C      1  0.4784070000000  0.4921710000000  0.5653620000000 1.0
C      1  0.5873860000000  0.4905150000000  0.5559720000000 1.0
C      1  0.5883350000000  0.5458730000000  0.5351890000000 1.0
C      1  0.5899970000000  0.5297230000000  0.4543120000000 1.0
C      1  0.5872660000000  0.4741050000000  0.4560840000000 1.0
C      1  0.5908960000000  0.4469510000000  0.5053310000000 1.0
C      1  0.5007590000000  0.5425590000000  0.4358890000000 1.0
C      1  0.5014540000000  0.4487800000000  0.4362430000000 1.0
C      1  0.5066740000000  0.4251320000000  0.5278020000000 1.0
C      1  0.5028450000000  0.5049050000000  0.5796420000000 1.0
C      1  0.4991040000000  0.5803710000000  0.5226780000000 1.0
C      1  0.4836780000000  0.5219950000000  0.4978670000000 1.0
C      1  0.4647940000000  0.5061650000000  0.4804640000000 1.0
C      1  0.4786040000000  0.4801500000000  0.4806420000000 1.0
C      1  0.4872020000000  0.4757660000000  0.5086470000000 1.0
C      1  0.4900820000000  0.5031680000000  0.5213840000000 1.0
C      1  0.5166930000000  0.4572130000000  0.4601760000000 1.0
C      1  0.5247220000000  0.4504920000000  0.5300850000000 1.0
C      1  0.5220390000000  0.5163720000000  0.5586440000000 1.0
C      1  0.5174910000000  0.5652300000000  0.5068540000000 1.0
C      1  0.5150650000000  0.5223940000000  0.4531900000000 1.0
C      1  0.5097200000000  0.5285350000000  0.4827290000000 1.0
C      1  0.5042880000000  0.4822850000000  0.4658290000000 1.0
C      1  0.5160140000000  0.4621200000000  0.5048050000000 1.0
C      1  0.5182410000000  0.4971090000000  0.5369660000000 1.0
C      1  0.5267960000000  0.5437970000000  0.5207280000000 1.0
C      1  0.5333910000000  0.4603700000000  0.5941920000000 1.0
C      1  0.5339570000000  0.5777800000000  0.5691320000000 1.0
C      1  0.5380870000000  0.5823760000000  0.4483600000000 1.0
C      1  0.5369890000000  0.4741350000000  0.4026970000000 1.0
C      1  0.5391130000000  0.3979500000000  0.4899370000000 1.0
C      1  0.4533330000000  0.5512370000000  0.4080700000000 1.0
C      1  0.4537030000000  0.4262960000000  0.4215850000000 1.0
C      1  0.4580600000000  0.4019270000000  0.5439180000000 1.0
C      1  0.4515810000000  0.5124080000000  0.5990010000000 1.0
C      1  0.4559610000000  0.6119460000000  0.5247680000000 1.0
C      1  0.4320410000000  0.4916100000000  0.5564290000000 1.0
C      1  0.4266800000000  0.5776890000000  0.5382270000000 1.0
C      1  0.4279670000000  0.5496100000000  0.4496350000000 1.0
C      1  0.4294460000000  0.4670130000000  0.4370990000000 1.0
C      1  0.4323110000000  0.4327470000000  0.5103730000000 1.0
C      1  0.4485620000000  0.4172100000000  0.4475640000000 1.0
C      1  0.4550060000000  0.4223090000000  0.5625160000000 1.0
C      1  0.4478980000000  0.5363350000000  0.5854760000000 1.0
C      1  0.4496110000000  0.5972450000000  0.5021560000000 1.0
C      1  0.4463600000000  0.5238280000000  0.4062810000000 1.0
C      1  0.4797560000000  0.5631080000000  0.4777110000000 1.0
C      1  0.4771570000000  0.4963860000000  0.4340230000000 1.0
C      1  0.4812900000000  0.4346320000000  0.4819060000000 1.0
C      1  0.4853400000000  0.4640430000000  0.5530760000000 1.0
C      1  0.4838830000000  0.5421570000000  0.5488570000000 1.0
C      1  0.4725580000000  0.4858650000000  0.3865690000000 1.0
C      1  0.4727990000000  0.3856670000000  0.4759650000000 1.0
C      1  0.4752830000000  0.4442990000000  0.5961130000000 1.0
C      1  0.4751650000000  0.5778220000000  0.5831430000000 1.0
C      1  0.4699190000000  0.6041860000000  0.4550350000000 1.0
C      1  0.4700420000000  0.4602770000000  0.3932470000000 1.0
C      1  0.4720520000000  0.3865350000000  0.5027140000000 1.0
C      1  0.4669840000000  0.4686140000000  0.6025520000000 1.0
C      1  0.4703150000000  0.5979670000000  0.5659820000000 1.0
C      1  0.4690400000000  0.5881760000000  0.4333320000000 1.0
C      1  0.4418700000000  0.5160150000000  0.5437330000000 1.0
C      1  0.4367190000000  0.5482050000000  0.4997240000000 1.0
C      1  0.4344460000000  0.5224450000000  0.4430920000000 1.0
C      1  0.4364630000000  0.4528790000000  0.4618690000000 1.0
C      1  0.4367040000000  0.4513860000000  0.5321670000000 1.0
C      1  0.5175960000000  0.5679600000000  0.4272820000000 1.0
C      1  0.5184340000000  0.4491350000000  0.4095890000000 1.0
C      1  0.5214130000000  0.3989810000000  0.5170060000000 1.0
C      1  0.5152230000000  0.4865090000000  0.6020800000000 1.0
C      1  0.5180450000000  0.5946060000000  0.5463450000000 1.0
C      1  0.4240490000000  0.5118660000000  0.4198330000000 1.0
C      1  0.4270360000000  0.4267640000000  0.4626020000000 1.0
C      1  0.4356210000000  0.4395690000000  0.5579190000000 1.0
C      1  0.4313110000000  0.5364110000000  0.5626750000000 1.0
C      1  0.4318630000000  0.5761350000000  0.5102940000000 1.0
C      1  0.4943370000000  0.5316630000000  0.4054350000000 1.0
C      1  0.4956170000000  0.4170290000000  0.4374830000000 1.0
C      1  0.5002610000000  0.4156080000000  0.5565500000000 1.0
C      1  0.4939920000000  0.5293860000000  0.5972480000000 1.0
C      1  0.4960710000000  0.6045810000000  0.5035290000000 1.0
C      1  0.6033200000000  0.5319310000000  0.4965450000000 1.0
C      1  0.4022890000000  0.5158340000000  0.5125290000000 1.0
C      1  0.4423450000000  0.5025390000000  0.4965280000000 1.0
C      1  0.4319230000000  0.5221570000000  0.5154160000000 1.0
END
