TITL C-4179-6884-6 150.777650802489 125000 -338.767356474096 0 0 52 (C1) n - 1
REM
REM in /rds/project/t2_vol4/rds-t2-cs072/BORA/CARBON/from-Arr/AIRSS/Generating-Clusters/GAP-ML-2020/Higher-Symm/SD-CG/HFTN-CG
REM
REM
REM
REM
REM
REM ./C.cell (b20cbc046b6831c77cfcea5457e17084)
REM AIRSS Version 0.9.1 bugfix July 2018 build 013d7b7c2542+ Fri, 06 Jul 2018 19:26:36 +0100
REM compiler GCC version 9.3.0
REM options -cpp -mtune=generic -march=x86-64 -g -O0
REM seed 1365654871 1207663852 1846354588 -1478406340 -1534163671 543649447 949165293 1314783217 -933039335 651004333 -631512155 389649674 627263539 -1010601463 1822829778 1437171086 -1977691889 582171336 828686479 183193667 -1883026152 -284468749 87300106 1508564647 1803099875 -717334874 727577028 -1840266684 1337126040 1371968304 -965441662 -1103676484 -1638005958
REM
CELL 1.54180   50.00000   50.00000   50.00000   90.00000   90.00000   90.00000
LATT -1
SFAC C  
C      1  0.4685960000000  0.4952740000000  0.4940870000000 1.0
C      1  0.4901550000000  0.4854280000000  0.4764700000000 1.0
C      1  0.5018050000000  0.4583670000000  0.4848130000000 1.0
C      1  0.5263370000000  0.5106820000000  0.4992300000000 1.0
C      1  0.4618990000000  0.5220470000000  0.4825080000000 1.0
C      1  0.5357080000000  0.4864100000000  0.5120130000000 1.0
C      1  0.5082000000000  0.5079060000000  0.4743340000000 1.0
C      1  0.4847510000000  0.5019540000000  0.5192710000000 1.0
C      1  0.4961920000000  0.4773590000000  0.5276580000000 1.0
C      1  0.4917860000000  0.5314080000000  0.4824310000000 1.0
C      1  0.5008920000000  0.5244550000000  0.5097780000000 1.0
C      1  0.5148380000000  0.4634470000000  0.5105630000000 1.0
C      1  0.4872290000000  0.4627550000000  0.5509200000000 1.0
C      1  0.4441230000000  0.5604970000000  0.5099820000000 1.0
C      1  0.5461440000000  0.4951130000000  0.4527770000000 1.0
C      1  0.5169580000000  0.5304470000000  0.5543830000000 1.0
C      1  0.4880740000000  0.5385670000000  0.4361910000000 1.0
C      1  0.5143280000000  0.4548790000000  0.4575410000000 1.0
C      1  0.5558180000000  0.4560840000000  0.4800680000000 1.0
C      1  0.4531210000000  0.4534100000000  0.5184150000000 1.0
C      1  0.5465110000000  0.5496220000000  0.5125160000000 1.0
C      1  0.4528160000000  0.5136380000000  0.4556080000000 1.0
C      1  0.5389610000000  0.5129820000000  0.5501540000000 1.0
C      1  0.4492980000000  0.4947820000000  0.5457890000000 1.0
C      1  0.5138810000000  0.5423950000000  0.4457700000000 1.0
C      1  0.5559510000000  0.4454790000000  0.5073390000000 1.0
C      1  0.4436150000000  0.5165530000000  0.5296340000000 1.0
C      1  0.4855100000000  0.4503630000000  0.4484680000000 1.0
C      1  0.5088140000000  0.4541240000000  0.5644360000000 1.0
C      1  0.4896170000000  0.5356540000000  0.5506230000000 1.0
C      1  0.4699300000000  0.5622710000000  0.5135270000000 1.0
C      1  0.5323860000000  0.5560710000000  0.4896570000000 1.0
C      1  0.4546630000000  0.4501710000000  0.4915320000000 1.0
C      1  0.5405930000000  0.4864580000000  0.5412310000000 1.0
C      1  0.4482880000000  0.4851330000000  0.4560130000000 1.0
C      1  0.5538980000000  0.5178540000000  0.4655980000000 1.0
C      1  0.4706020000000  0.5144710000000  0.5423760000000 1.0
C      1  0.5104330000000  0.5529690000000  0.4734590000000 1.0
C      1  0.5603650000000  0.4733230000000  0.5010680000000 1.0
C      1  0.5333060000000  0.4593630000000  0.5507970000000 1.0
C      1  0.4745270000000  0.4761070000000  0.4519870000000 1.0
C      1  0.5261010000000  0.5161430000000  0.4519680000000 1.0
C      1  0.4779270000000  0.4423110000000  0.4768920000000 1.0
C      1  0.5338600000000  0.4442660000000  0.5246130000000 1.0
C      1  0.4916400000000  0.5500010000000  0.5249120000000 1.0
C      1  0.4455330000000  0.5324200000000  0.5050370000000 1.0
C      1  0.5476960000000  0.5288760000000  0.4915800000000 1.0
C      1  0.4470670000000  0.4771180000000  0.4846630000000 1.0
C      1  0.4646720000000  0.5288150000000  0.4356750000000 1.0
C      1  0.4598830000000  0.4677680000000  0.5404780000000 1.0
C      1  0.5392130000000  0.4674570000000  0.4590920000000 1.0
C      1  0.5393880000000  0.5383350000000  0.5377600000000 1.0
END
