TITL C-4167-3884-2 27.7857230083697 125000 -1079.9367631291 0 0 161 (Cs) n - 1
REM
REM in /rds/project/t2_vol4/rds-t2-cs072/BORA/CARBON/from-Arr/AIRSS/Generating-Clusters/GAP-ML-2020/Higher-Symm/SD-CG/HFTN-CG/C160-200
REM
REM
REM
REM
REM
REM ./C.cell (6b4489405718ea1b717e0baf1da4c2d9)
REM AIRSS Version 0.9.1 bugfix July 2018 build 013d7b7c2542+ Fri, 06 Jul 2018 19:26:36 +0100
REM compiler GCC version 9.3.0
REM options -cpp -mtune=generic -march=x86-64 -g -O0
REM seed -230746186 106181001 -1164758286 -1131905300 2141870110 -1378681734 -1035628853 500220759 -537958813 1300476104 -1963014094 -410669712 18808173 1307347704 -872441016 -2097491128 -855649470 1365705707 -37995601 -1044508188 1778827250 1955333372 1334805263 -1962159658 1019519600 -1478022742 -261951185 -1201250424 912229106 -1725066709 -2034701724 1312040647 107036208
REM
CELL 1.54180   50.00000   50.00000   50.00000   90.00000   90.00000   90.00000
LATT -1
SFAC C  
C      1  0.5043200000000  0.4629950000000  0.4415210000000 1.0
C      1  0.4458220000000  0.4998400000000  0.4685830000000 1.0
C      1  0.4592560000000  0.4370560000000  0.5016470000000 1.0
C      1  0.5010880000000  0.5334730000000  0.4484700000000 1.0
C      1  0.4936600000000  0.4660420000000  0.5540410000000 1.0
C      1  0.5011420000000  0.5404190000000  0.5594310000000 1.0
C      1  0.5623090000000  0.4993620000000  0.4612300000000 1.0
C      1  0.5602980000000  0.5056850000000  0.5361270000000 1.0
C      1  0.4382500000000  0.4949480000000  0.5374100000000 1.0
C      1  0.5378490000000  0.5608590000000  0.5041580000000 1.0
C      1  0.5338850000000  0.4427110000000  0.4963800000000 1.0
C      1  0.4662770000000  0.5546880000000  0.5050800000000 1.0
C      1  0.4668290000000  0.4992210000000  0.4484680000000 1.0
C      1  0.5009280000000  0.4379930000000  0.4612270000000 1.0
C      1  0.4394330000000  0.4624620000000  0.5041530000000 1.0
C      1  0.5373070000000  0.4959760000000  0.4415220000000 1.0
C      1  0.4598780000000  0.4991620000000  0.5594290000000 1.0
C      1  0.5342570000000  0.5066300000000  0.5540430000000 1.0
C      1  0.5004720000000  0.5544790000000  0.4685860000000 1.0
C      1  0.5053620000000  0.5620470000000  0.5374140000000 1.0
C      1  0.4946020000000  0.4400010000000  0.5361230000000 1.0
C      1  0.5632520000000  0.5410310000000  0.5016530000000 1.0
C      1  0.4456180000000  0.5340330000000  0.5050790000000 1.0
C      1  0.5575820000000  0.4664040000000  0.4963810000000 1.0
C      1  0.4116520000000  0.5524190000000  0.5437540000000 1.0
C      1  0.5435960000000  0.4220850000000  0.5570220000000 1.0
C      1  0.5650680000000  0.5401160000000  0.4125990000000 1.0
C      1  0.5878210000000  0.4326730000000  0.5408930000000 1.0
C      1  0.5800760000000  0.5638070000000  0.4578370000000 1.0
C      1  0.4114780000000  0.4347650000000  0.4596200000000 1.0
C      1  0.4650410000000  0.5922960000000  0.5661890000000 1.0
C      1  0.4577630000000  0.4204430000000  0.4372920000000 1.0
C      1  0.5412280000000  0.5784420000000  0.4457520000000 1.0
C      1  0.4455940000000  0.4592270000000  0.4228380000000 1.0
C      1  0.4347720000000  0.5438420000000  0.5758630000000 1.0
C      1  0.5643670000000  0.4566790000000  0.5832160000000 1.0
C      1  0.5676070000000  0.4124640000000  0.5408920000000 1.0
C      1  0.4080080000000  0.5352730000000  0.5661860000000 1.0
C      1  0.5410870000000  0.5547020000000  0.4228420000000 1.0
C      1  0.4478950000000  0.5886560000000  0.5437560000000 1.0
C      1  0.5655540000000  0.5888110000000  0.4596280000000 1.0
C      1  0.4364790000000  0.4202390000000  0.4578300000000 1.0
C      1  0.5782030000000  0.4566860000000  0.5570240000000 1.0
C      1  0.4218530000000  0.4590900000000  0.4457460000000 1.0
C      1  0.5798680000000  0.5425250000000  0.4372990000000 1.0
C      1  0.4601760000000  0.4352440000000  0.4125940000000 1.0
C      1  0.5436040000000  0.4359200000000  0.5832150000000 1.0
C      1  0.4564660000000  0.5655330000000  0.5758640000000 1.0
C      1  0.4040560000000  0.4420970000000  0.4862620000000 1.0
C      1  0.4974030000000  0.3944230000000  0.4455150000000 1.0
C      1  0.4483150000000  0.5087360000000  0.4116530000000 1.0
C      1  0.6066070000000  0.5564490000000  0.4975620000000 1.0
C      1  0.5954550000000  0.4427130000000  0.5147280000000 1.0
C      1  0.4093400000000  0.5523520000000  0.4934260000000 1.0
C      1  0.4917290000000  0.5907660000000  0.4489860000000 1.0
C      1  0.5016640000000  0.3962550000000  0.5534850000000 1.0
C      1  0.4910610000000  0.5984230000000  0.5576720000000 1.0
C      1  0.5573850000000  0.5134060000000  0.4061170000000 1.0
C      1  0.5570230000000  0.4846820000000  0.5892240000000 1.0
C      1  0.4425560000000  0.5060260000000  0.6016740000000 1.0
C      1  0.4438300000000  0.3937040000000  0.4975540000000 1.0
C      1  0.4095380000000  0.5085910000000  0.4489810000000 1.0
C      1  0.4868870000000  0.4429220000000  0.4061130000000 1.0
C      1  0.5582220000000  0.5962330000000  0.4862700000000 1.0
C      1  0.4479650000000  0.5909700000000  0.4934280000000 1.0
C      1  0.5575680000000  0.4048330000000  0.5147260000000 1.0
C      1  0.6058800000000  0.5028790000000  0.4455200000000 1.0
C      1  0.4018750000000  0.5092550000000  0.5576680000000 1.0
C      1  0.6040420000000  0.4986130000000  0.5534900000000 1.0
C      1  0.4915780000000  0.5519910000000  0.4116550000000 1.0
C      1  0.4942800000000  0.5577400000000  0.6016770000000 1.0
C      1  0.5156030000000  0.4432690000000  0.5892220000000 1.0
C      1  0.4737780000000  0.5465450000000  0.4345560000000 1.0
C      1  0.4264950000000  0.4694940000000  0.5506310000000 1.0
C      1  0.5500740000000  0.4280470000000  0.4717650000000 1.0
C      1  0.5293800000000  0.4494950000000  0.4284830000000 1.0
C      1  0.5299240000000  0.5504030000000  0.5727000000000 1.0
C      1  0.4706080000000  0.4503220000000  0.5710330000000 1.0
C      1  0.5726190000000  0.5318890000000  0.5502980000000 1.0
C      1  0.5734900000000  0.4696270000000  0.4501440000000 1.0
C      1  0.4324200000000  0.5263740000000  0.4558340000000 1.0
C      1  0.4533390000000  0.5680470000000  0.4757500000000 1.0
C      1  0.4472470000000  0.4263440000000  0.5304390000000 1.0
C      1  0.5519210000000  0.5742970000000  0.5292050000000 1.0
C      1  0.5508020000000  0.4709130000000  0.4284840000000 1.0
C      1  0.4683940000000  0.4276850000000  0.5502930000000 1.0
C      1  0.4322630000000  0.5469750000000  0.4757490000000 1.0
C      1  0.4537640000000  0.5265340000000  0.4345550000000 1.0
C      1  0.5499800000000  0.5296780000000  0.5710370000000 1.0
C      1  0.4498870000000  0.4703820000000  0.5726960000000 1.0
C      1  0.5308170000000  0.5737960000000  0.5506360000000 1.0
C      1  0.4739410000000  0.5678880000000  0.4558360000000 1.0
C      1  0.5306610000000  0.4268070000000  0.4501420000000 1.0
C      1  0.5722450000000  0.4502140000000  0.4717660000000 1.0
C      1  0.4259920000000  0.4483920000000  0.5291990000000 1.0
C      1  0.5739640000000  0.5530380000000  0.5304460000000 1.0
C      1  0.4791790000000  0.4140180000000  0.4573790000000 1.0
C      1  0.4626480000000  0.4840090000000  0.4216310000000 1.0
C      1  0.4146190000000  0.4690900000000  0.4881280000000 1.0
C      1  0.5165250000000  0.5807850000000  0.4630910000000 1.0
C      1  0.5179490000000  0.4177800000000  0.5400340000000 1.0
C      1  0.4899770000000  0.5871980000000  0.5306310000000 1.0
C      1  0.5304360000000  0.5120980000000  0.4168870000000 1.0
C      1  0.5316970000000  0.4877850000000  0.5758780000000 1.0
C      1  0.4558380000000  0.5224490000000  0.5805050000000 1.0
C      1  0.5866140000000  0.5443780000000  0.4797400000000 1.0
C      1  0.5827480000000  0.4682060000000  0.5140910000000 1.0
C      1  0.4168710000000  0.5369650000000  0.5183090000000 1.0
C      1  0.4195130000000  0.4837920000000  0.4630860000000 1.0
C      1  0.4882000000000  0.4698710000000  0.4168850000000 1.0
C      1  0.4559060000000  0.4136960000000  0.4797340000000 1.0
C      1  0.5862880000000  0.5211070000000  0.4573840000000 1.0
C      1  0.4131020000000  0.5103380000000  0.5306270000000 1.0
C      1  0.5825150000000  0.4823330000000  0.5400370000000 1.0
C      1  0.5163020000000  0.5376520000000  0.4216340000000 1.0
C      1  0.4778550000000  0.5444620000000  0.5805060000000 1.0
C      1  0.5125040000000  0.4685970000000  0.5758770000000 1.0
C      1  0.5312270000000  0.5856760000000  0.4881340000000 1.0
C      1  0.4633500000000  0.5834350000000  0.5183110000000 1.0
C      1  0.5320770000000  0.4175450000000  0.5140880000000 1.0
C      1  0.4288080000000  0.4073860000000  0.5156680000000 1.0
C      1  0.5114770000000  0.4305770000000  0.4128940000000 1.0
C      1  0.4028390000000  0.5071790000000  0.4222160000000 1.0
C      1  0.5706410000000  0.5899970000000  0.5109650000000 1.0
C      1  0.5689530000000  0.4112180000000  0.4894150000000 1.0
C      1  0.4210120000000  0.5978590000000  0.4940100000000 1.0
C      1  0.4932420000000  0.5784710000000  0.4037740000000 1.0
C      1  0.4904380000000  0.4316420000000  0.5858190000000 1.0
C      1  0.5154000000000  0.5697930000000  0.5904740000000 1.0
C      1  0.5919350000000  0.4842930000000  0.4314220000000 1.0
C      1  0.5918950000000  0.5169780000000  0.5688140000000 1.0
C      1  0.4101010000000  0.4851790000000  0.5696560000000 1.0
C      1  0.4102890000000  0.4296760000000  0.5109560000000 1.0
C      1  0.4218350000000  0.5070780000000  0.4037710000000 1.0
C      1  0.5159930000000  0.4083650000000  0.4314180000000 1.0
C      1  0.5929270000000  0.5714730000000  0.5156770000000 1.0
C      1  0.4024570000000  0.5793070000000  0.4940090000000 1.0
C      1  0.5890700000000  0.4313300000000  0.4894160000000 1.0
C      1  0.5697250000000  0.4888140000000  0.4128970000000 1.0
C      1  0.4305000000000  0.4849090000000  0.5904700000000 1.0
C      1  0.5686550000000  0.5098450000000  0.5858230000000 1.0
C      1  0.4931430000000  0.5974660000000  0.4222210000000 1.0
C      1  0.5151350000000  0.5901920000000  0.5696610000000 1.0
C      1  0.4833010000000  0.4084050000000  0.5688080000000 1.0
C      1  0.4869100000000  0.4422530000000  0.5080120000000 1.0
C      1  0.5138090000000  0.5482250000000  0.5136390000000 1.0
C      1  0.5062330000000  0.5141510000000  0.5467500000000 1.0
C      1  0.5132170000000  0.4870820000000  0.4549980000000 1.0
C      1  0.4931220000000  0.5071820000000  0.4605770000000 1.0
C      1  0.4924070000000  0.5429890000000  0.4954170000000 1.0
C      1  0.4861450000000  0.4940670000000  0.5467490000000 1.0
C      1  0.5531820000000  0.4946780000000  0.4882760000000 1.0
C      1  0.5056120000000  0.4471180000000  0.4882730000000 1.0
C      1  0.4573130000000  0.5079010000000  0.4954150000000 1.0
C      1  0.4520710000000  0.4864990000000  0.5136360000000 1.0
C      1  0.5580490000000  0.5133780000000  0.5080160000000 1.0
C      1  0.4323380000000  0.5679720000000  0.5560310000000 1.0
C      1  0.5529600000000  0.4473270000000  0.5471050000000 1.0
C      1  0.5533740000000  0.5517410000000  0.4494750000000 1.0
C      1  0.4485510000000  0.4469380000000  0.4494690000000 1.0
C      1  0.4847370000000  0.5155660000000  0.4879940000000 1.0
END
