TITL C-4180-7027-10 36.9986701123185 125000 -130.144060070128 0 0 21 (C2) n - 1
REM
REM in /rds/project/t2_vol4/rds-t2-cs072/BORA/CARBON/from-Arr/AIRSS/Generating-Clusters/GAP-ML-2020/Higher-Symm/SD-CG/HFTN-CG
REM
REM
REM
REM
REM
REM ./C.cell (b20cbc046b6831c77cfcea5457e17084)
REM AIRSS Version 0.9.1 bugfix July 2018 build 013d7b7c2542+ Fri, 06 Jul 2018 19:26:36 +0100
REM compiler GCC version 9.3.0
REM options -cpp -mtune=generic -march=x86-64 -g -O0
REM seed -1044473671 -479115804 87929455 1110039712 1878208933 -1557559410 140520478 -1366546444 -1590691781 1841424345 -1010322166 -767295572 -2108822564 880076674 139747625 606588153 -2049382089 675989549 -1246082444 125327880 1860546876 467043763 -827775107 280260720 -76088726 1915738400 -404724323 1390297694 143185902 -323116543 -97852991 1303713175 1113131141
REM
CELL 1.54180   50.00000   50.00000   50.00000   90.00000   90.00000   90.00000
LATT -1
SFAC C  
C      1  0.4637420000000  0.4894500000000  0.5394970000000 1.0
C      1  0.5342270000000  0.4594270000000  0.4843740000000 1.0
C      1  0.4617560000000  0.5110120000000  0.4605460000000 1.0
C      1  0.5373800000000  0.5367360000000  0.5108200000000 1.0
C      1  0.4962880000000  0.4212580000000  0.4907280000000 1.0
C      1  0.4968980000000  0.5059730000000  0.4197440000000 1.0
C      1  0.5014110000000  0.5770790000000  0.5069190000000 1.0
C      1  0.5017450000000  0.4923360000000  0.5778710000000 1.0
C      1  0.4951870000000  0.4306480000000  0.5145290000000 1.0
C      1  0.4976870000000  0.4816570000000  0.4279800000000 1.0
C      1  0.4981860000000  0.5678170000000  0.4832610000000 1.0
C      1  0.5034130000000  0.5165800000000  0.5695550000000 1.0
C      1  0.5155860000000  0.5228360000000  0.5036610000000 1.0
C      1  0.4847160000000  0.4948570000000  0.5237220000000 1.0
C      1  0.5138090000000  0.4745680000000  0.4929340000000 1.0
C      1  0.4833760000000  0.5043520000000  0.4749080000000 1.0
C      1  0.4908920000000  0.4950530000000  0.5509470000000 1.0
C      1  0.5075870000000  0.4475780000000  0.4890380000000 1.0
C      1  0.4877120000000  0.5038460000000  0.4473330000000 1.0
C      1  0.5112310000000  0.5501380000000  0.5079080000000 1.0
C      1  0.4993180000000  0.4991550000000  0.4988080000000 1.0
END
