TITL C-4183-3991-4 -260.436565761652 125000 -1351.99943597636 0 0 195 (C1) n - 1
REM
REM in /rds/project/t2_vol4/rds-t2-cs072/BORA/CARBON/from-Arr/AIRSS/Generating-Clusters/GAP-ML-2020/Higher-Symm/SD-CG/HFTN-CG/C160-200
REM
REM
REM
REM
REM
REM ./C.cell (6b4489405718ea1b717e0baf1da4c2d9)
REM AIRSS Version 0.9.1 bugfix July 2018 build 013d7b7c2542+ Fri, 06 Jul 2018 19:26:36 +0100
REM compiler GCC version 9.3.0
REM options -cpp -mtune=generic -march=x86-64 -g -O0
REM seed 1500738425 231038234 1876171593 2044265197 1235774260 1138777860 376279545 1471448959 -1100289027 1853457714 616421037 1768518460 -1741441049 1175504876 362963087 -1429773038 -721131109 1397008425 -496276006 1675138087 -1182724397 899198121 -2109661302 273182263 -1385624015 -840420932 -659916478 1235751177 -771799610 1997564007 396594265 1799032604 1961801563
REM
CELL 1.54180   50.00000   50.00000   50.00000   90.00000   90.00000   90.00000
LATT -1
SFAC C  
C      1  0.3972000000000  0.5206450000000  0.5601160000000 1.0
C      1  0.3914370000000  0.5370420000000  0.4588880000000 1.0
C      1  0.3919520000000  0.4393720000000  0.4738270000000 1.0
C      1  0.5931200000000  0.5142480000000  0.5741430000000 1.0
C      1  0.6048820000000  0.5391220000000  0.4496420000000 1.0
C      1  0.6095380000000  0.4427070000000  0.4740080000000 1.0
C      1  0.4021660000000  0.4905290000000  0.5645270000000 1.0
C      1  0.3927340000000  0.4584650000000  0.4507360000000 1.0
C      1  0.3941140000000  0.5532820000000  0.4852330000000 1.0
C      1  0.5921420000000  0.4845040000000  0.5746530000000 1.0
C      1  0.6078370000000  0.4609150000000  0.4500770000000 1.0
C      1  0.6024390000000  0.5573300000000  0.4751910000000 1.0
C      1  0.4833630000000  0.4832010000000  0.4719520000000 1.0
C      1  0.4841510000000  0.4851980000000  0.5224910000000 1.0
C      1  0.4842270000000  0.5287030000000  0.4980840000000 1.0
C      1  0.5161560000000  0.4835510000000  0.4725060000000 1.0
C      1  0.5168420000000  0.4848250000000  0.5227910000000 1.0
C      1  0.5174590000000  0.5282480000000  0.4979250000000 1.0
C      1  0.4833670000000  0.5129170000000  0.4735150000000 1.0
C      1  0.4852990000000  0.5143610000000  0.5234950000000 1.0
C      1  0.4840630000000  0.4695490000000  0.4976210000000 1.0
C      1  0.5157210000000  0.5129050000000  0.4733450000000 1.0
C      1  0.5170000000000  0.5138430000000  0.5236500000000 1.0
C      1  0.5169180000000  0.4697740000000  0.4978300000000 1.0
C      1  0.5512000000000  0.5565840000000  0.4131700000000 1.0
C      1  0.5776410000000  0.4080980000000  0.4913270000000 1.0
C      1  0.5531130000000  0.5375010000000  0.5957830000000 1.0
C      1  0.4427540000000  0.5597680000000  0.4164920000000 1.0
C      1  0.4250670000000  0.4058740000000  0.4903070000000 1.0
C      1  0.4514180000000  0.5449630000000  0.5893200000000 1.0
C      1  0.5755400000000  0.4299860000000  0.4331630000000 1.0
C      1  0.5724700000000  0.5935180000000  0.4664850000000 1.0
C      1  0.5586930000000  0.4750260000000  0.6057530000000 1.0
C      1  0.4261880000000  0.4289850000000  0.4334830000000 1.0
C      1  0.4247060000000  0.5916440000000  0.4729100000000 1.0
C      1  0.4358320000000  0.4812890000000  0.6003600000000 1.0
C      1  0.4702650000000  0.5541540000000  0.5009360000000 1.0
C      1  0.4697010000000  0.4715970000000  0.4485250000000 1.0
C      1  0.4723580000000  0.4709120000000  0.5443080000000 1.0
C      1  0.5313890000000  0.5536230000000  0.4996050000000 1.0
C      1  0.5297730000000  0.4722980000000  0.4496190000000 1.0
C      1  0.5269540000000  0.4698060000000  0.5451170000000 1.0
C      1  0.4729700000000  0.4431780000000  0.4996230000000 1.0
C      1  0.4716220000000  0.5266880000000  0.4512940000000 1.0
C      1  0.4743510000000  0.5280650000000  0.5467320000000 1.0
C      1  0.5285520000000  0.4437320000000  0.4995130000000 1.0
C      1  0.5264720000000  0.5264340000000  0.4505940000000 1.0
C      1  0.5279780000000  0.5271390000000  0.5472250000000 1.0
C      1  0.5552260000000  0.5776750000000  0.5573670000000 1.0
C      1  0.5498770000000  0.5109440000000  0.4001690000000 1.0
C      1  0.5522590000000  0.4068590000000  0.5378840000000 1.0
C      1  0.4502180000000  0.5791050000000  0.5571080000000 1.0
C      1  0.4433950000000  0.5162170000000  0.4014080000000 1.0
C      1  0.4490590000000  0.4072020000000  0.5387620000000 1.0
C      1  0.5497510000000  0.4213230000000  0.5620560000000 1.0
C      1  0.5530720000000  0.4826900000000  0.4021150000000 1.0
C      1  0.5556180000000  0.5897730000000  0.5312520000000 1.0
C      1  0.4445870000000  0.4236530000000  0.5622430000000 1.0
C      1  0.4424500000000  0.4878020000000  0.4005710000000 1.0
C      1  0.4457630000000  0.5898600000000  0.5312010000000 1.0
C      1  0.5095630000000  0.4393580000000  0.5927300000000 1.0
C      1  0.5269760000000  0.5959920000000  0.5226720000000 1.0
C      1  0.5257700000000  0.4676960000000  0.4018590000000 1.0
C      1  0.4817180000000  0.4422850000000  0.5946490000000 1.0
C      1  0.4731450000000  0.5977230000000  0.5191180000000 1.0
C      1  0.4699080000000  0.4792150000000  0.3983580000000 1.0
C      1  0.5335320000000  0.5584840000000  0.5966270000000 1.0
C      1  0.5151580000000  0.3894220000000  0.5031920000000 1.0
C      1  0.5256350000000  0.5519640000000  0.4028760000000 1.0
C      1  0.4719690000000  0.5629910000000  0.5955050000000 1.0
C      1  0.4869210000000  0.3902650000000  0.5044410000000 1.0
C      1  0.4679990000000  0.5556500000000  0.4048570000000 1.0
C      1  0.3958520000000  0.4817290000000  0.4692160000000 1.0
C      1  0.3976930000000  0.4864890000000  0.5366390000000 1.0
C      1  0.3966190000000  0.5281410000000  0.5011220000000 1.0
C      1  0.6035970000000  0.4843720000000  0.4673850000000 1.0
C      1  0.5997410000000  0.4833240000000  0.5474130000000 1.0
C      1  0.6047150000000  0.5340260000000  0.4910010000000 1.0
C      1  0.3957630000000  0.5119180000000  0.4741780000000 1.0
C      1  0.3967850000000  0.5156420000000  0.5301230000000 1.0
C      1  0.3951800000000  0.4620120000000  0.4913700000000 1.0
C      1  0.6031420000000  0.5152600000000  0.4675120000000 1.0
C      1  0.6005720000000  0.5122960000000  0.5467120000000 1.0
C      1  0.6061250000000  0.4660460000000  0.4910970000000 1.0
C      1  0.4733110000000  0.4383530000000  0.4467990000000 1.0
C      1  0.4833850000000  0.4839520000000  0.5686720000000 1.0
C      1  0.4713930000000  0.5742270000000  0.4762290000000 1.0
C      1  0.5304170000000  0.4397860000000  0.4476390000000 1.0
C      1  0.5154980000000  0.4828960000000  0.5692380000000 1.0
C      1  0.5275280000000  0.5742810000000  0.4754690000000 1.0
C      1  0.4830550000000  0.5565780000000  0.4534330000000 1.0
C      1  0.4839000000000  0.5138090000000  0.5713460000000 1.0
C      1  0.4850510000000  0.4275160000000  0.4740600000000 1.0
C      1  0.5142670000000  0.5562490000000  0.4530490000000 1.0
C      1  0.5172960000000  0.5126810000000  0.5721800000000 1.0
C      1  0.5172690000000  0.4278320000000  0.4734690000000 1.0
C      1  0.4079130000000  0.5443090000000  0.5675150000000 1.0
C      1  0.4011330000000  0.5360770000000  0.4332130000000 1.0
C      1  0.4012570000000  0.4153080000000  0.4798080000000 1.0
C      1  0.5774410000000  0.5370630000000  0.5815760000000 1.0
C      1  0.5932690000000  0.5356950000000  0.4253020000000 1.0
C      1  0.6013070000000  0.4184520000000  0.4809250000000 1.0
C      1  0.4206120000000  0.4723710000000  0.5785670000000 1.0
C      1  0.4127230000000  0.4529230000000  0.4303070000000 1.0
C      1  0.4112060000000  0.5765250000000  0.4916200000000 1.0
C      1  0.5737450000000  0.4648740000000  0.5848330000000 1.0
C      1  0.5882590000000  0.4540780000000  0.4299110000000 1.0
C      1  0.5855620000000  0.5789860000000  0.4857960000000 1.0
C      1  0.5768880000000  0.5133440000000  0.5282220000000 1.0
C      1  0.5725230000000  0.5139260000000  0.4752100000000 1.0
C      1  0.5775540000000  0.4685830000000  0.5014050000000 1.0
C      1  0.4280500000000  0.5121460000000  0.5262180000000 1.0
C      1  0.4274310000000  0.5127590000000  0.4750850000000 1.0
C      1  0.4240190000000  0.4667170000000  0.4992080000000 1.0
C      1  0.5764620000000  0.4824700000000  0.5280960000000 1.0
C      1  0.5728820000000  0.4844980000000  0.4749790000000 1.0
C      1  0.5777890000000  0.5275910000000  0.5019120000000 1.0
C      1  0.4247170000000  0.4822300000000  0.5246570000000 1.0
C      1  0.4272340000000  0.4833470000000  0.4738550000000 1.0
C      1  0.4273890000000  0.5266360000000  0.5007130000000 1.0
C      1  0.5559840000000  0.4625240000000  0.5395180000000 1.0
C      1  0.5591630000000  0.5491350000000  0.5116370000000 1.0
C      1  0.5564220000000  0.4851840000000  0.4484010000000 1.0
C      1  0.4434710000000  0.4628630000000  0.5375370000000 1.0
C      1  0.4433930000000  0.5490550000000  0.5130590000000 1.0
C      1  0.4426810000000  0.4843480000000  0.4471960000000 1.0
C      1  0.5570830000000  0.5339500000000  0.5391950000000 1.0
C      1  0.5580980000000  0.4467530000000  0.5116530000000 1.0
C      1  0.5547220000000  0.5169210000000  0.4496030000000 1.0
C      1  0.4457880000000  0.5334090000000  0.5402740000000 1.0
C      1  0.4434380000000  0.4454670000000  0.5103320000000 1.0
C      1  0.4434470000000  0.5171630000000  0.4494590000000 1.0
C      1  0.4836760000000  0.5147970000000  0.4268400000000 1.0
C      1  0.4855730000000  0.4283960000000  0.5222250000000 1.0
C      1  0.4860740000000  0.5554330000000  0.5490390000000 1.0
C      1  0.5137600000000  0.5137930000000  0.4263400000000 1.0
C      1  0.5153450000000  0.4286660000000  0.5212840000000 1.0
C      1  0.5162360000000  0.5542590000000  0.5491270000000 1.0
C      1  0.4832600000000  0.4837920000000  0.4247710000000 1.0
C      1  0.4857090000000  0.5688770000000  0.5218060000000 1.0
C      1  0.4839630000000  0.4441880000000  0.5476500000000 1.0
C      1  0.5139730000000  0.4830090000000  0.4258200000000 1.0
C      1  0.5163000000000  0.5680650000000  0.5218910000000 1.0
C      1  0.5136450000000  0.4432020000000  0.5471420000000 1.0
C      1  0.4858950000000  0.5961520000000  0.4910990000000 1.0
C      1  0.4917750000000  0.4357200000000  0.4243850000000 1.0
C      1  0.4816430000000  0.4721170000000  0.5968470000000 1.0
C      1  0.5140250000000  0.5956360000000  0.4925760000000 1.0
C      1  0.5171370000000  0.4410140000000  0.4200480000000 1.0
C      1  0.5138740000000  0.4695120000000  0.5967950000000 1.0
C      1  0.4736370000000  0.4006030000000  0.4809770000000 1.0
C      1  0.4817820000000  0.5714570000000  0.4261260000000 1.0
C      1  0.4867450000000  0.5426730000000  0.6103320000000 1.0
C      1  0.5290560000000  0.4008650000000  0.4807980000000 1.0
C      1  0.5136010000000  0.5694340000000  0.4249970000000 1.0
C      1  0.5146180000000  0.5410570000000  0.6108430000000 1.0
C      1  0.4894870000000  0.4893610000000  0.3797030000000 1.0
C      1  0.4703870000000  0.4305250000000  0.5716380000000 1.0
C      1  0.4865660000000  0.6162190000000  0.5345080000000 1.0
C      1  0.5103760000000  0.4717700000000  0.3790700000000 1.0
C      1  0.5200730000000  0.4227540000000  0.5686650000000 1.0
C      1  0.5099660000000  0.6076620000000  0.5443610000000 1.0
C      1  0.4721970000000  0.5274580000000  0.4004340000000 1.0
C      1  0.4780000000000  0.5772380000000  0.5700050000000 1.0
C      1  0.4789080000000  0.4006360000000  0.5317780000000 1.0
C      1  0.5215940000000  0.5233300000000  0.3986200000000 1.0
C      1  0.5282190000000  0.5739010000000  0.5712790000000 1.0
C      1  0.5247470000000  0.3996390000000  0.5292250000000 1.0
C      1  0.4346790000000  0.4169240000000  0.5158190000000 1.0
C      1  0.4358820000000  0.5522910000000  0.5652360000000 1.0
C      1  0.4288170000000  0.5327820000000  0.4237140000000 1.0
C      1  0.5675620000000  0.4185200000000  0.5167340000000 1.0
C      1  0.5693960000000  0.5531320000000  0.5591800000000 1.0
C      1  0.5655170000000  0.5301290000000  0.4195560000000 1.0
C      1  0.4286230000000  0.5743190000000  0.5147560000000 1.0
C      1  0.4315460000000  0.4499350000000  0.5607880000000 1.0
C      1  0.4281520000000  0.4758590000000  0.4224140000000 1.0
C      1  0.5715030000000  0.5757020000000  0.5119120000000 1.0
C      1  0.5641680000000  0.4461620000000  0.5635950000000 1.0
C      1  0.5703850000000  0.4753590000000  0.4229710000000 1.0
C      1  0.4471340000000  0.4030680000000  0.4706120000000 1.0
C      1  0.4687930000000  0.5208000000000  0.5971550000000 1.0
C      1  0.4530280000000  0.5815400000000  0.4329480000000 1.0
C      1  0.5557220000000  0.4041840000000  0.4715890000000 1.0
C      1  0.5306330000000  0.5167920000000  0.6004730000000 1.0
C      1  0.5419660000000  0.5790630000000  0.4297210000000 1.0
C      1  0.4482420000000  0.5868710000000  0.4601640000000 1.0
C      1  0.4601490000000  0.4918020000000  0.6061930000000 1.0
C      1  0.4475380000000  0.4205640000000  0.4471490000000 1.0
C      1  0.5484550000000  0.5868210000000  0.4562170000000 1.0
C      1  0.5348750000000  0.4865260000000  0.6109990000000 1.0
C      1  0.5552570000000  0.4217700000000  0.4484390000000 1.0
C      1  0.4952980000000  0.5163630000000  0.3848160000000 1.0
C      1  0.5050240000000  0.5924990000000  0.5678250000000 1.0
C      1  0.5048660000000  0.3996760000000  0.5509270000000 1.0
END
