TITL C-42643-9956-2 0.0548629575898722 125000 -208.830116961141 0 0 32 (C3) n - 1
REM
REM in /rds/project/t2_vol4/rds-t2-cs072/BORA/CARBON/from-Arr/AIRSS/Generating-Clusters/GAP-ML-2020/Higher-Symm/SD-CG/HFTN-CG
REM
REM
REM
REM
REM
REM ./C.cell (b20cbc046b6831c77cfcea5457e17084)
REM AIRSS Version 0.9.1 bugfix July 2018 build 013d7b7c2542+ Fri, 06 Jul 2018 19:26:36 +0100
REM compiler GCC version 9.3.0
REM options -cpp -mtune=generic -march=x86-64 -g -O0
REM seed 1879517162 465650852 -1643194744 -1153019322 -1442291993 1484130500 -1454117803 528398681 -1251386564 -1629348210 -172896804 -2091041522 1637984424 668151955 -1652208731 2111569832 -821218705 -1728260724 710048247 1677145480 1747383199 2048159433 1711838170 623859137 -1057634257 -1716706995 -218379310 -1658343223 1921030919 -1173972513 -1678903862 -1985966981 520489367
REM
CELL 1.54180   50.00000   50.00000   50.00000   90.00000   90.00000   90.00000
LATT -1
SFAC C  
C      1  0.5159690000000  0.5402260000000  0.5537220000000 1.0
C      1  0.5159690000000  0.5265600000000  0.4418150000000 1.0
C      1  0.5159720000000  0.4364780000000  0.5096040000000 1.0
C      1  0.4668910000000  0.4829800000000  0.4804950000000 1.0
C      1  0.4668910000000  0.4917630000000  0.5280040000000 1.0
C      1  0.4668900000000  0.5285160000000  0.4966430000000 1.0
C      1  0.4790740000000  0.4355720000000  0.4752350000000 1.0
C      1  0.4790720000000  0.5109120000000  0.5716910000000 1.0
C      1  0.4790700000000  0.5567750000000  0.4582160000000 1.0
C      1  0.4832790000000  0.4669410000000  0.5290280000000 1.0
C      1  0.4832770000000  0.5418150000000  0.5176280000000 1.0
C      1  0.4832780000000  0.4945050000000  0.4584850000000 1.0
C      1  0.5118800000000  0.5393970000000  0.5249710000000 1.0
C      1  0.5118800000000  0.5020740000000  0.4569080000000 1.0
C      1  0.5118820000000  0.4617920000000  0.5232620000000 1.0
C      1  0.5341590000000  0.4775350000000  0.5172040000000 1.0
C      1  0.5341570000000  0.5262800000000  0.5143670000000 1.0
C      1  0.5341580000000  0.4994510000000  0.4735700000000 1.0
C      1  0.4629600000000  0.5388730000000  0.5358790000000 1.0
C      1  0.4629610000000  0.5117800000000  0.4519070000000 1.0
C      1  0.4629630000000  0.4526050000000  0.5173560000000 1.0
C      1  0.4648820000000  0.5122990000000  0.5472620000000 1.0
C      1  0.4648800000000  0.5349250000000  0.4692300000000 1.0
C      1  0.4648830000000  0.4560350000000  0.4886510000000 1.0
C      1  0.5487870000000  0.4793090000000  0.4908580000000 1.0
C      1  0.5487860000000  0.5025780000000  0.5260040000000 1.0
C      1  0.5487860000000  0.5213800000000  0.4882790000000 1.0
C      1  0.5008770000000  0.5232100000000  0.5654390000000 1.0
C      1  0.5008750000000  0.5452140000000  0.4506920000000 1.0
C      1  0.5008790000000  0.4348380000000  0.4890100000000 1.0
C      1  0.4629300000000  0.5010860000000  0.5017140000000 1.0
C      1  0.5650320000000  0.5010900000000  0.5017140000000 1.0
END
