TITL C-42647-8039-1 -0.0904183704177085 125000 -695.368219679709 0 0 99 (C3) n - 1
REM
REM in /rds/project/t2_vol4/rds-t2-cs072/BORA/CARBON/from-Arr/AIRSS/Generating-Clusters/GAP-ML-2020/Higher-Symm/SD-CG/HFTN-CG
REM
REM
REM
REM
REM
REM ./C.cell (b20cbc046b6831c77cfcea5457e17084)
REM AIRSS Version 0.9.1 bugfix July 2018 build 013d7b7c2542+ Fri, 06 Jul 2018 19:26:36 +0100
REM compiler GCC version 9.3.0
REM options -cpp -mtune=generic -march=x86-64 -g -O0
REM seed -1676793094 1622117348 -915122707 328089161 -1256405624 -1732954089 -173003922 -1045021677 -415021480 1109047310 -1046756554 -982025539 800577391 -1680902807 1660230378 -1112368757 91807032 770494400 -2135944815 1705986414 -1391030642 870957993 2133571779 -823602258 63524563 -578633364 2027438932 940692268 1599653074 -1905045036 -784868081 1117561354 1545359454
REM
CELL 1.54180   50.00000   50.00000   50.00000   90.00000   90.00000   90.00000
LATT -1
SFAC C  
C      1  0.5025420000000  0.5158970000000  0.5314970000000 1.0
C      1  0.4849580000000  0.4942460000000  0.5314940000000 1.0
C      1  0.5125000000000  0.4898440000000  0.5314930000000 1.0
C      1  0.4960230000000  0.5161330000000  0.4671120000000 1.0
C      1  0.5159560000000  0.4953850000000  0.4671090000000 1.0
C      1  0.4880210000000  0.4884960000000  0.4671080000000 1.0
C      1  0.4437970000000  0.5380260000000  0.4672180000000 1.0
C      1  0.4951740000000  0.4323200000000  0.4672030000000 1.0
C      1  0.5610290000000  0.5296670000000  0.4672170000000 1.0
C      1  0.5497660000000  0.5414930000000  0.5376540000000 1.0
C      1  0.5110550000000  0.4361470000000  0.5376390000000 1.0
C      1  0.4391790000000  0.5223440000000  0.5376510000000 1.0
C      1  0.4713270000000  0.4276500000000  0.5054590000000 1.0
C      1  0.5769930000000  0.5113420000000  0.5054710000000 1.0
C      1  0.4516800000000  0.5610060000000  0.5054780000000 1.0
C      1  0.5366110000000  0.4264820000000  0.4986010000000 1.0
C      1  0.4180250000000  0.5050530000000  0.4986120000000 1.0
C      1  0.5453630000000  0.5684660000000  0.4986200000000 1.0
C      1  0.5603940000000  0.5167460000000  0.5489490000000 1.0
C      1  0.4552940000000  0.5439190000000  0.5489520000000 1.0
C      1  0.4843120000000  0.4393140000000  0.5489380000000 1.0
C      1  0.4347750000000  0.5149830000000  0.4539640000000 1.0
C      1  0.5455820000000  0.5490050000000  0.4539690000000 1.0
C      1  0.5196430000000  0.4360320000000  0.4539530000000 1.0
C      1  0.5297670000000  0.4763040000000  0.5116310000000 1.0
C      1  0.5056370000000  0.5376240000000  0.5116390000000 1.0
C      1  0.4645960000000  0.4860670000000  0.5116320000000 1.0
C      1  0.4778100000000  0.4737390000000  0.4880080000000 1.0
C      1  0.4883510000000  0.5323500000000  0.4880170000000 1.0
C      1  0.5338390000000  0.4939160000000  0.4880110000000 1.0
C      1  0.4088190000000  0.5140610000000  0.5429300000000 1.0
C      1  0.5334080000000  0.4139960000000  0.5429160000000 1.0
C      1  0.5577730000000  0.5719250000000  0.5429380000000 1.0
C      1  0.5780440000000  0.5073600000000  0.4608330000000 1.0
C      1  0.4673470000000  0.4287400000000  0.4608220000000 1.0
C      1  0.4546080000000  0.5639170000000  0.4608410000000 1.0
C      1  0.4789890000000  0.5464930000000  0.4197280000000 1.0
C      1  0.4702510000000  0.4585740000000  0.4197160000000 1.0
C      1  0.5507600000000  0.4949670000000  0.4197210000000 1.0
C      1  0.5233740000000  0.5466650000000  0.5792540000000 1.0
C      1  0.5287360000000  0.4564080000000  0.5792410000000 1.0
C      1  0.4478900000000  0.4968930000000  0.5792470000000 1.0
C      1  0.4516170000000  0.4298110000000  0.4853500000000 1.0
C      1  0.5849780000000  0.4931960000000  0.4853590000000 1.0
C      1  0.4634050000000  0.5769980000000  0.4853710000000 1.0
C      1  0.5433200000000  0.4087970000000  0.5185520000000 1.0
C      1  0.3993580000000  0.5080820000000  0.5185660000000 1.0
C      1  0.5573220000000  0.5831140000000  0.5185770000000 1.0
C      1  0.4932920000000  0.5665680000000  0.5221730000000 1.0
C      1  0.4457020000000  0.4609020000000  0.5221580000000 1.0
C      1  0.5610060000000  0.4725210000000  0.5221600000000 1.0
C      1  0.5087970000000  0.5791600000000  0.4707330000000 1.0
C      1  0.5641520000000  0.4528080000000  0.4707160000000 1.0
C      1  0.4270510000000  0.4680450000000  0.4707180000000 1.0
C      1  0.4954990000000  0.5551610000000  0.5722230000000 1.0
C      1  0.4544710000000  0.4685070000000  0.5722110000000 1.0
C      1  0.5500300000000  0.4763020000000  0.5722120000000 1.0
C      1  0.5075450000000  0.5550990000000  0.4253840000000 1.0
C      1  0.5439350000000  0.4659320000000  0.4253710000000 1.0
C      1  0.4485200000000  0.4790010000000  0.4253730000000 1.0
C      1  0.5353360000000  0.5692450000000  0.4719140000000 1.0
C      1  0.4223670000000  0.4959850000000  0.4719040000000 1.0
C      1  0.5422970000000  0.4347820000000  0.4718950000000 1.0
C      1  0.4646040000000  0.5615950000000  0.5296990000000 1.0
C      1  0.5710440000000  0.4998500000000  0.5296900000000 1.0
C      1  0.4643510000000  0.4385430000000  0.5296810000000 1.0
C      1  0.5573550000000  0.4608410000000  0.5486220000000 1.0
C      1  0.5052290000000  0.5692400000000  0.5486380000000 1.0
C      1  0.4374160000000  0.4698980000000  0.5486240000000 1.0
C      1  0.4363380000000  0.4615310000000  0.4449290000000 1.0
C      1  0.4985090000000  0.5743790000000  0.4449450000000 1.0
C      1  0.5651530000000  0.4641130000000  0.4449290000000 1.0
C      1  0.4640230000000  0.5250860000000  0.4149570000000 1.0
C      1  0.4962740000000  0.4563180000000  0.4149470000000 1.0
C      1  0.5397030000000  0.5186320000000  0.4149560000000 1.0
C      1  0.5355060000000  0.5241630000000  0.5882440000000 1.0
C      1  0.5031840000000  0.4571510000000  0.5882350000000 1.0
C      1  0.4613110000000  0.5186490000000  0.5882440000000 1.0
C      1  0.5370600000000  0.5419890000000  0.5097400000000 1.0
C      1  0.4451050000000  0.5110990000000  0.5097350000000 1.0
C      1  0.5178340000000  0.4469090000000  0.5097260000000 1.0
C      1  0.4564420000000  0.5333620000000  0.4938770000000 1.0
C      1  0.5506710000000  0.5210430000000  0.4938750000000 1.0
C      1  0.4928870000000  0.4455980000000  0.4938640000000 1.0
C      1  0.5326480000000  0.5422550000000  0.4281170000000 1.0
C      1  0.4470910000000  0.5071620000000  0.4281120000000 1.0
C      1  0.5202610000000  0.4506140000000  0.4281040000000 1.0
C      1  0.4698350000000  0.5409600000000  0.5737010000000 1.0
C      1  0.5505640000000  0.5056280000000  0.5736960000000 1.0
C      1  0.4796010000000  0.4533800000000  0.5736890000000 1.0
C      1  0.4708840000000  0.5679290000000  0.4391370000000 1.0
C      1  0.4557370000000  0.4408330000000  0.4391190000000 1.0
C      1  0.5733790000000  0.4912640000000  0.4391260000000 1.0
C      1  0.5336100000000  0.5608870000000  0.5550150000000 1.0
C      1  0.5359310000000  0.4404380000000  0.5549980000000 1.0
C      1  0.4304590000000  0.4986520000000  0.5550070000000 1.0
C      1  0.5751540000000  0.4678890000000  0.4930990000000 1.0
C      1  0.4346130000000  0.4509720000000  0.4930960000000 1.0
C      1  0.4902330000000  0.5811420000000  0.4931150000000 1.0
END
