TITL C-42629-8430-3 -129.458169999543 125000 -666.242973818903 0 0 96 (Oh) n - 1
REM
REM in /rds/project/t2_vol4/rds-t2-cs072/BORA/CARBON/from-Arr/AIRSS/Generating-Clusters/GAP-ML-2020/Higher-Symm/SD-CG/HFTN-CG
REM
REM
REM
REM
REM
REM ./C.cell (b20cbc046b6831c77cfcea5457e17084)
REM AIRSS Version 0.9.1 bugfix July 2018 build 013d7b7c2542+ Fri, 06 Jul 2018 19:26:36 +0100
REM compiler GCC version 9.3.0
REM options -cpp -mtune=generic -march=x86-64 -g -O0
REM seed -2087474846 -1220889229 293513266 -741035455 379835722 -2071962400 -1673980943 1764397552 -1874893531 1429446630 497742774 1056498331 -1210700356 557162027 -1675585313 665400921 -86743350 90642733 1412067684 -1562530725 1057118629 -376663378 963513325 462053556 1211917019 1524975633 -589399491 -2092098031 636750394 -1075278944 -2121507211 2139994576 2143979938
REM
CELL 1.54180   50.00000   50.00000   50.00000   90.00000   90.00000   90.00000
LATT -1
SFAC C  
C      1  0.4327720000000  0.4733240000000  0.5470080000000 1.0
C      1  0.4733270000000  0.5470120000000  0.4327740000000 1.0
C      1  0.5470100000000  0.4327740000000  0.4733240000000 1.0
C      1  0.5672280000000  0.4733290000000  0.4529900000000 1.0
C      1  0.5672270000000  0.5266710000000  0.5470110000000 1.0
C      1  0.4327730000000  0.5266750000000  0.4529910000000 1.0
C      1  0.5266720000000  0.5470070000000  0.5672300000000 1.0
C      1  0.5266740000000  0.4529940000000  0.4327700000000 1.0
C      1  0.4733260000000  0.4529870000000  0.5672250000000 1.0
C      1  0.4529910000000  0.4327710000000  0.5266700000000 1.0
C      1  0.4529900000000  0.5672290000000  0.4733290000000 1.0
C      1  0.5470090000000  0.5672270000000  0.5266770000000 1.0
C      1  0.5470100000000  0.4733300000000  0.4327720000000 1.0
C      1  0.4327720000000  0.5470100000000  0.4733280000000 1.0
C      1  0.4733270000000  0.4327700000000  0.5470060000000 1.0
C      1  0.4529900000000  0.4733230000000  0.5672260000000 1.0
C      1  0.5470090000000  0.5266700000000  0.5672290000000 1.0
C      1  0.4529910000000  0.5266760000000  0.4327730000000 1.0
C      1  0.5672270000000  0.5470090000000  0.5266760000000 1.0
C      1  0.4327720000000  0.4529890000000  0.5266700000000 1.0
C      1  0.5672280000000  0.4529920000000  0.4733250000000 1.0
C      1  0.5266740000000  0.4327750000000  0.4529880000000 1.0
C      1  0.4733270000000  0.5672300000000  0.4529930000000 1.0
C      1  0.5266720000000  0.5672260000000  0.5470130000000 1.0
C      1  0.4529910000000  0.4327730000000  0.4733230000000 1.0
C      1  0.4327730000000  0.4733290000000  0.4529890000000 1.0
C      1  0.4733280000000  0.4529930000000  0.4327700000000 1.0
C      1  0.5470100000000  0.4327710000000  0.5266710000000 1.0
C      1  0.5470090000000  0.5672290000000  0.4733300000000 1.0
C      1  0.4529900000000  0.5672260000000  0.5266760000000 1.0
C      1  0.5672270000000  0.4733250000000  0.5470090000000 1.0
C      1  0.5672280000000  0.5266760000000  0.4529920000000 1.0
C      1  0.4327720000000  0.5266710000000  0.5470100000000 1.0
C      1  0.5266730000000  0.4529880000000  0.5672260000000 1.0
C      1  0.5266740000000  0.5470130000000  0.4327750000000 1.0
C      1  0.4733260000000  0.5470060000000  0.5672300000000 1.0
C      1  0.4733280000000  0.4327740000000  0.4529870000000 1.0
C      1  0.4529910000000  0.4733300000000  0.4327710000000 1.0
C      1  0.4327730000000  0.4529910000000  0.4733240000000 1.0
C      1  0.5266730000000  0.4327700000000  0.5470070000000 1.0
C      1  0.4733260000000  0.5672250000000  0.5470120000000 1.0
C      1  0.5266730000000  0.5672300000000  0.4529940000000 1.0
C      1  0.5470090000000  0.4733240000000  0.5672270000000 1.0
C      1  0.4529900000000  0.5266700000000  0.5672280000000 1.0
C      1  0.5470100000000  0.5266770000000  0.4327740000000 1.0
C      1  0.5672280000000  0.4529900000000  0.5266720000000 1.0
C      1  0.4327720000000  0.5470080000000  0.5266750000000 1.0
C      1  0.5672280000000  0.5470110000000  0.4733300000000 1.0
C      1  0.5429290000000  0.4787810000000  0.4999990000000 1.0
C      1  0.4787800000000  0.4999980000000  0.5429290000000 1.0
C      1  0.5000000000000  0.5429300000000  0.4787830000000 1.0
C      1  0.4570710000000  0.4787800000000  0.4999990000000 1.0
C      1  0.4570700000000  0.5212190000000  0.5000010000000 1.0
C      1  0.5429290000000  0.5212200000000  0.5000010000000 1.0
C      1  0.5212200000000  0.5000020000000  0.4570710000000 1.0
C      1  0.5212190000000  0.4999980000000  0.5429300000000 1.0
C      1  0.4787810000000  0.5000020000000  0.4570700000000 1.0
C      1  0.5000000000000  0.5429280000000  0.5212210000000 1.0
C      1  0.5000000000000  0.4570720000000  0.4787790000000 1.0
C      1  0.5000000000000  0.4570700000000  0.5212170000000 1.0
C      1  0.5000000000000  0.4787790000000  0.5429280000000 1.0
C      1  0.5429300000000  0.5000010000000  0.4787810000000 1.0
C      1  0.4787800000000  0.5429290000000  0.5000020000000 1.0
C      1  0.5000010000000  0.4787830000000  0.4570700000000 1.0
C      1  0.5000000000000  0.5212210000000  0.4570720000000 1.0
C      1  0.4999990000000  0.5212170000000  0.5429300000000 1.0
C      1  0.4570700000000  0.4999990000000  0.5212190000000 1.0
C      1  0.5429290000000  0.4999990000000  0.5212200000000 1.0
C      1  0.4570710000000  0.5000010000000  0.4787800000000 1.0
C      1  0.5212190000000  0.5429300000000  0.5000020000000 1.0
C      1  0.4787810000000  0.4570700000000  0.4999980000000 1.0
C      1  0.5212200000000  0.4570710000000  0.4999980000000 1.0
C      1  0.5363360000000  0.4999970000000  0.5696490000000 1.0
C      1  0.4999990000000  0.5696470000000  0.5363400000000 1.0
C      1  0.5696480000000  0.5363380000000  0.5000020000000 1.0
C      1  0.4636640000000  0.5000030000000  0.4303510000000 1.0
C      1  0.4636620000000  0.4999970000000  0.5696480000000 1.0
C      1  0.5363380000000  0.5000030000000  0.4303520000000 1.0
C      1  0.5000000000000  0.5696500000000  0.4636660000000 1.0
C      1  0.5000000000000  0.4303500000000  0.5363340000000 1.0
C      1  0.5000010000000  0.4303530000000  0.4636600000000 1.0
C      1  0.4303510000000  0.5363370000000  0.5000010000000 1.0
C      1  0.4303520000000  0.4636620000000  0.4999980000000 1.0
C      1  0.5696490000000  0.4636630000000  0.4999990000000 1.0
C      1  0.5696480000000  0.4999990000000  0.5363380000000 1.0
C      1  0.5363370000000  0.5696490000000  0.5000040000000 1.0
C      1  0.4999990000000  0.5363340000000  0.5696500000000 1.0
C      1  0.4303520000000  0.5000010000000  0.4636620000000 1.0
C      1  0.5696490000000  0.5000020000000  0.4636640000000 1.0
C      1  0.4303510000000  0.4999980000000  0.5363360000000 1.0
C      1  0.4636620000000  0.5696480000000  0.5000030000000 1.0
C      1  0.5363380000000  0.4303520000000  0.4999970000000 1.0
C      1  0.4636630000000  0.4303510000000  0.4999960000000 1.0
C      1  0.5000000000000  0.5363400000000  0.4303530000000 1.0
C      1  0.5000010000000  0.4636660000000  0.4303500000000 1.0
C      1  0.5000000000000  0.4636600000000  0.5696470000000 1.0
END
