TITL C-42653-8130-12 -6.80661995620596 125000 -595.809263026298 0 0 84 (C2v) n - 1
REM
REM in /rds/project/t2_vol4/rds-t2-cs072/BORA/CARBON/from-Arr/AIRSS/Generating-Clusters/GAP-ML-2020/Higher-Symm/SD-CG/HFTN-CG
REM
REM
REM
REM
REM
REM ./C.cell (b20cbc046b6831c77cfcea5457e17084)
REM AIRSS Version 0.9.1 bugfix July 2018 build 013d7b7c2542+ Fri, 06 Jul 2018 19:26:36 +0100
REM compiler GCC version 9.3.0
REM options -cpp -mtune=generic -march=x86-64 -g -O0
REM seed -70182276 463321584 -1887454598 -888026998 -1426085065 338153505 -1875210874 1705155889 1158951833 1667662744 773709622 -574685515 -1605870470 -2023670531 -1625137460 1138564924 451863077 713664652 185096975 -731551159 940579480 -321107579 -454147815 -879013237 -753368801 -1825193263 -646499844 -458295347 1781199733 208362928 533196961 1579521208 -767181120
REM
CELL 1.54180   50.00000   50.00000   50.00000   90.00000   90.00000   90.00000
LATT -1
SFAC C  
C      1  0.4854640000000  0.4966390000000  0.4759100000000 1.0
C      1  0.4767670000000  0.4770860000000  0.4927560000000 1.0
C      1  0.4858040000000  0.4808210000000  0.5184060000000 1.0
C      1  0.4753620000000  0.5041300000000  0.5295830000000 1.0
C      1  0.4858070000000  0.5234870000000  0.5124520000000 1.0
C      1  0.4767700000000  0.5200590000000  0.4867590000000 1.0
C      1  0.5145290000000  0.4966370000000  0.4759060000000 1.0
C      1  0.5232270000000  0.4770820000000  0.4927490000000 1.0
C      1  0.5141980000000  0.4808180000000  0.5184020000000 1.0
C      1  0.5246470000000  0.5041260000000  0.5295760000000 1.0
C      1  0.5142000000000  0.5234850000000  0.5124480000000 1.0
C      1  0.5232300000000  0.5200550000000  0.4867520000000 1.0
C      1  0.4142930000000  0.4892100000000  0.5254570000000 1.0
C      1  0.4142950000000  0.5173580000000  0.5215290000000 1.0
C      1  0.4141160000000  0.5281450000000  0.4955490000000 1.0
C      1  0.4148660000000  0.5105190000000  0.4737990000000 1.0
C      1  0.4148640000000  0.4827210000000  0.4776780000000 1.0
C      1  0.4141120000000  0.4717230000000  0.5034220000000 1.0
C      1  0.5857120000000  0.4891950000000  0.5254330000000 1.0
C      1  0.5857140000000  0.5173430000000  0.5215050000000 1.0
C      1  0.5858880000000  0.5281300000000  0.4955240000000 1.0
C      1  0.5851290000000  0.5105050000000  0.4737740000000 1.0
C      1  0.5851270000000  0.4827060000000  0.4776540000000 1.0
C      1  0.5858840000000  0.4717080000000  0.5033980000000 1.0
C      1  0.4344620000000  0.5179490000000  0.4548550000000 1.0
C      1  0.4344580000000  0.4703860000000  0.4614920000000 1.0
C      1  0.4340720000000  0.4514090000000  0.5061050000000 1.0
C      1  0.4348440000000  0.4810530000000  0.5430660000000 1.0
C      1  0.4348470000000  0.5300210000000  0.5362330000000 1.0
C      1  0.4340790000000  0.5484150000000  0.4925680000000 1.0
C      1  0.5655280000000  0.5179380000000  0.4548360000000 1.0
C      1  0.5655250000000  0.4703750000000  0.4614730000000 1.0
C      1  0.5659210000000  0.4513970000000  0.5060860000000 1.0
C      1  0.5651650000000  0.4810420000000  0.5430480000000 1.0
C      1  0.5651680000000  0.5300100000000  0.5362140000000 1.0
C      1  0.5659280000000  0.5484040000000  0.4925490000000 1.0
C      1  0.5144810000000  0.4288080000000  0.5250240000000 1.0
C      1  0.5144200000000  0.4852130000000  0.5754130000000 1.0
C      1  0.5146040000000  0.5582150000000  0.5498620000000 1.0
C      1  0.5144740000000  0.5702160000000  0.4754950000000 1.0
C      1  0.5144470000000  0.5138430000000  0.4255760000000 1.0
C      1  0.5144150000000  0.4434740000000  0.4510020000000 1.0
C      1  0.4855140000000  0.4288110000000  0.5250280000000 1.0
C      1  0.4855990000000  0.4852160000000  0.5754170000000 1.0
C      1  0.4854200000000  0.5582170000000  0.5498660000000 1.0
C      1  0.4855310000000  0.5702190000000  0.4754990000000 1.0
C      1  0.4855340000000  0.5138460000000  0.4255810000000 1.0
C      1  0.4855610000000  0.4434760000000  0.4510060000000 1.0
C      1  0.4854130000000  0.4576600000000  0.5638980000000 1.0
C      1  0.4856020000000  0.5348670000000  0.5684880000000 1.0
C      1  0.4855240000000  0.5753230000000  0.5045830000000 1.0
C      1  0.4855680000000  0.5409540000000  0.4374030000000 1.0
C      1  0.4855310000000  0.4663120000000  0.4322140000000 1.0
C      1  0.4855220000000  0.4257580000000  0.4956580000000 1.0
C      1  0.5145980000000  0.4576570000000  0.5638940000000 1.0
C      1  0.5144230000000  0.5348650000000  0.5684840000000 1.0
C      1  0.5144900000000  0.5753210000000  0.5045790000000 1.0
C      1  0.5144220000000  0.5409510000000  0.4373990000000 1.0
C      1  0.5144440000000  0.4663100000000  0.4322100000000 1.0
C      1  0.5144640000000  0.4257560000000  0.4956540000000 1.0
C      1  0.5553070000000  0.4476650000000  0.4782910000000 1.0
C      1  0.5553880000000  0.4547040000000  0.5337080000000 1.0
C      1  0.5492050000000  0.5067530000000  0.5484140000000 1.0
C      1  0.5553940000000  0.5527870000000  0.5200210000000 1.0
C      1  0.5553140000000  0.5443860000000  0.4647940000000 1.0
C      1  0.5553070000000  0.4921440000000  0.4437290000000 1.0
C      1  0.4446770000000  0.4476740000000  0.4783070000000 1.0
C      1  0.4446140000000  0.4547130000000  0.5337240000000 1.0
C      1  0.4508100000000  0.5067610000000  0.5484280000000 1.0
C      1  0.4446210000000  0.5527960000000  0.5200370000000 1.0
C      1  0.4446840000000  0.5443950000000  0.4648100000000 1.0
C      1  0.4446750000000  0.4921540000000  0.4437450000000 1.0
C      1  0.4693590000000  0.4900270000000  0.4285200000000 1.0
C      1  0.4695440000000  0.4342010000000  0.4730850000000 1.0
C      1  0.4691630000000  0.4429610000000  0.5443150000000 1.0
C      1  0.4710330000000  0.5097570000000  0.5699080000000 1.0
C      1  0.4691710000000  0.5669960000000  0.5270060000000 1.0
C      1  0.4695520000000  0.5559210000000  0.4560990000000 1.0
C      1  0.5306190000000  0.4900220000000  0.4285110000000 1.0
C      1  0.5304370000000  0.4341950000000  0.4730760000000 1.0
C      1  0.5308400000000  0.4429560000000  0.5443060000000 1.0
C      1  0.5289880000000  0.5097520000000  0.5698990000000 1.0
C      1  0.5308480000000  0.5669900000000  0.5269970000000 1.0
C      1  0.5304450000000  0.5559160000000  0.4560910000000 1.0
END
