TITL C-42648-8128-4 -4.45596896306564 125000 -545.061006922114 0 0 80 (C1) n - 1
REM
REM in /rds/project/t2_vol4/rds-t2-cs072/BORA/CARBON/from-Arr/AIRSS/Generating-Clusters/GAP-ML-2020/Higher-Symm/SD-CG/HFTN-CG
REM
REM
REM
REM
REM
REM ./C.cell (b20cbc046b6831c77cfcea5457e17084)
REM AIRSS Version 0.9.1 bugfix July 2018 build 013d7b7c2542+ Fri, 06 Jul 2018 19:26:36 +0100
REM compiler GCC version 9.3.0
REM options -cpp -mtune=generic -march=x86-64 -g -O0
REM seed -312993717 1448286261 -762173775 -1096658178 1054318069 -189356486 2053879831 -1460442495 -1038985533 1426558881 -1069302166 -1689258840 243072167 -1596448286 1352210886 -268419399 -1361992249 -1655407893 1529090782 1077965643 -85832436 -1305911016 -215983073 -285303283 -1099866386 -318639609 1647582491 1994584755 -1654221036 1663590078 1500546130 -899619061 1679572172
REM
CELL 1.54180   50.00000   50.00000   50.00000   90.00000   90.00000   90.00000
LATT -1
SFAC C  
C      1  0.4319730000000  0.5424450000000  0.4703400000000 1.0
C      1  0.5276410000000  0.5486000000000  0.4394990000000 1.0
C      1  0.5608710000000  0.5625280000000  0.5215760000000 1.0
C      1  0.4765290000000  0.5433490000000  0.5509360000000 1.0
C      1  0.4363730000000  0.5448230000000  0.5209560000000 1.0
C      1  0.5270500000000  0.5396400000000  0.5531290000000 1.0
C      1  0.5617220000000  0.5520480000000  0.4709100000000 1.0
C      1  0.4751010000000  0.5483350000000  0.4437500000000 1.0
C      1  0.4749380000000  0.5148460000000  0.5556300000000 1.0
C      1  0.4280900000000  0.5162150000000  0.4683320000000 1.0
C      1  0.5281960000000  0.5201620000000  0.4403960000000 1.0
C      1  0.5607400000000  0.5169350000000  0.5311350000000 1.0
C      1  0.4749440000000  0.5194390000000  0.4433760000000 1.0
C      1  0.4404550000000  0.5153700000000  0.5200180000000 1.0
C      1  0.5241500000000  0.5111020000000  0.5589680000000 1.0
C      1  0.5635690000000  0.5236820000000  0.4743370000000 1.0
C      1  0.5082990000000  0.4238590000000  0.4734670000000 1.0
C      1  0.5385710000000  0.4318780000000  0.5112010000000 1.0
C      1  0.4751010000000  0.4267270000000  0.5376430000000 1.0
C      1  0.4624490000000  0.4267890000000  0.4913300000000 1.0
C      1  0.5208730000000  0.4256090000000  0.5321840000000 1.0
C      1  0.5333260000000  0.4334810000000  0.4834420000000 1.0
C      1  0.4892640000000  0.4159650000000  0.4937740000000 1.0
C      1  0.4550490000000  0.4313530000000  0.5183900000000 1.0
C      1  0.5362870000000  0.5142500000000  0.5147480000000 1.0
C      1  0.4853970000000  0.5002720000000  0.5309630000000 1.0
C      1  0.4767610000000  0.4924110000000  0.4849180000000 1.0
C      1  0.5180260000000  0.5099910000000  0.4686060000000 1.0
C      1  0.5379090000000  0.5195000000000  0.4880120000000 1.0
C      1  0.4885420000000  0.5162030000000  0.4700370000000 1.0
C      1  0.4689500000000  0.5111340000000  0.5083770000000 1.0
C      1  0.5153050000000  0.4995060000000  0.5314600000000 1.0
C      1  0.4488310000000  0.4585880000000  0.5219470000000 1.0
C      1  0.4715730000000  0.4468640000000  0.4482100000000 1.0
C      1  0.5432840000000  0.4626370000000  0.4811600000000 1.0
C      1  0.5152420000000  0.4510730000000  0.5501860000000 1.0
C      1  0.4529820000000  0.4444860000000  0.4702380000000 1.0
C      1  0.4843280000000  0.4521360000000  0.5521290000000 1.0
C      1  0.5461660000000  0.4610940000000  0.5128180000000 1.0
C      1  0.4963990000000  0.4351610000000  0.4516010000000 1.0
C      1  0.5647740000000  0.4997150000000  0.4575500000000 1.0
C      1  0.5433890000000  0.4899430000000  0.5653440000000 1.0
C      1  0.4400450000000  0.4998240000000  0.5473770000000 1.0
C      1  0.4588590000000  0.4949890000000  0.4396060000000 1.0
C      1  0.5639860000000  0.4927760000000  0.5456500000000 1.0
C      1  0.5454480000000  0.4983680000000  0.4364980000000 1.0
C      1  0.4370690000000  0.4917660000000  0.4596330000000 1.0
C      1  0.4588840000000  0.4947720000000  0.5677330000000 1.0
C      1  0.5709220000000  0.4744690000000  0.5226600000000 1.0
C      1  0.4763950000000  0.4707340000000  0.5747020000000 1.0
C      1  0.4357870000000  0.4671500000000  0.4766510000000 1.0
C      1  0.5248470000000  0.4763290000000  0.4387660000000 1.0
C      1  0.5695510000000  0.4770270000000  0.4745830000000 1.0
C      1  0.4750370000000  0.4721740000000  0.4342120000000 1.0
C      1  0.4258620000000  0.4908660000000  0.5238370000000 1.0
C      1  0.5257500000000  0.4670440000000  0.5733920000000 1.0
C      1  0.4345150000000  0.5574450000000  0.4958890000000 1.0
C      1  0.5522330000000  0.5662660000000  0.4958970000000 1.0
C      1  0.5036000000000  0.5520180000000  0.5423710000000 1.0
C      1  0.5021190000000  0.5594740000000  0.4492660000000 1.0
C      1  0.4540800000000  0.5554480000000  0.5403470000000 1.0
C      1  0.4543520000000  0.5592120000000  0.4591240000000 1.0
C      1  0.5518810000000  0.5613800000000  0.4464260000000 1.0
C      1  0.5524700000000  0.5432240000000  0.5393230000000 1.0
C      1  0.5203360000000  0.4787140000000  0.4690810000000 1.0
C      1  0.5211590000000  0.4703120000000  0.5264510000000 1.0
C      1  0.4763220000000  0.4706450000000  0.5285940000000 1.0
C      1  0.4953480000000  0.4717010000000  0.4838410000000 1.0
C      1  0.5240210000000  0.5722540000000  0.4964820000000 1.0
C      1  0.5045990000000  0.5665260000000  0.5172840000000 1.0
C      1  0.4568270000000  0.5728470000000  0.4850080000000 1.0
C      1  0.5045180000000  0.5709920000000  0.4751500000000 1.0
C      1  0.4302390000000  0.4703280000000  0.5048580000000 1.0
C      1  0.5012070000000  0.4753770000000  0.4268410000000 1.0
C      1  0.5843740000000  0.4804610000000  0.4990720000000 1.0
C      1  0.5014230000000  0.4739040000000  0.5864770000000 1.0
C      1  0.4763270000000  0.5341950000000  0.4912300000000 1.0
C      1  0.4835390000000  0.5635310000000  0.4956790000000 1.0
C      1  0.4975260000000  0.4622560000000  0.5095940000000 1.0
C      1  0.4964020000000  0.4151170000000  0.5230810000000 1.0
END
