TITL C-42656-9632-5 0.0329265867910325 125000 -445.390257174667 0 0 66 (C1) n - 1
REM
REM in /rds/project/t2_vol4/rds-t2-cs072/BORA/CARBON/from-Arr/AIRSS/Generating-Clusters/GAP-ML-2020/Higher-Symm/SD-CG/HFTN-CG
REM
REM
REM
REM
REM
REM ./C.cell (b20cbc046b6831c77cfcea5457e17084)
REM AIRSS Version 0.9.1 bugfix July 2018 build 013d7b7c2542+ Fri, 06 Jul 2018 19:26:36 +0100
REM compiler GCC version 9.3.0
REM options -cpp -mtune=generic -march=x86-64 -g -O0
REM seed -197689125 -31986020 -1893968003 1761062407 2003779461 -1155048245 -735291246 -1124904141 1831285677 -352231782 -720886949 1557002375 -1036591146 -1593400387 1455922990 -758503785 -1557825089 -1865770411 1434797539 -1971238156 -1350020823 -1457810938 -2101750867 -1534548048 -2003739974 2025704906 1161156146 -1695491813 1616096769 -771479363 -972411085 -1840971079 -1620455285
REM
CELL 1.54180   50.00000   50.00000   50.00000   90.00000   90.00000   90.00000
LATT -1
SFAC C  
C      1  0.4281710000000  0.4684380000000  0.4825000000000 1.0
C      1  0.4272260000000  0.4906170000000  0.4632010000000 1.0
C      1  0.4220400000000  0.5184230000000  0.4698590000000 1.0
C      1  0.4209670000000  0.5341930000000  0.5130620000000 1.0
C      1  0.4252810000000  0.5169230000000  0.5361100000000 1.0
C      1  0.4270400000000  0.4874300000000  0.5354970000000 1.0
C      1  0.4279540000000  0.4673050000000  0.5129080000000 1.0
C      1  0.5507450000000  0.4824640000000  0.5582300000000 1.0
C      1  0.5542890000000  0.4582350000000  0.5137600000000 1.0
C      1  0.5385920000000  0.4480960000000  0.4635950000000 1.0
C      1  0.5514850000000  0.4942680000000  0.4416940000000 1.0
C      1  0.5470210000000  0.5364410000000  0.4668230000000 1.0
C      1  0.5468970000000  0.5507580000000  0.5064580000000 1.0
C      1  0.5477300000000  0.5321050000000  0.5521930000000 1.0
C      1  0.4484100000000  0.5273670000000  0.5494120000000 1.0
C      1  0.4497770000000  0.4815260000000  0.5527080000000 1.0
C      1  0.4502820000000  0.4498580000000  0.5197640000000 1.0
C      1  0.4513280000000  0.4532190000000  0.4739540000000 1.0
C      1  0.4512760000000  0.4904850000000  0.4473960000000 1.0
C      1  0.4451400000000  0.5339820000000  0.4631480000000 1.0
C      1  0.4442260000000  0.5505410000000  0.5092010000000 1.0
C      1  0.5073660000000  0.5317650000000  0.5210580000000 1.0
C      1  0.5002230000000  0.5037210000000  0.5285100000000 1.0
C      1  0.5109140000000  0.4758470000000  0.5256040000000 1.0
C      1  0.5109580000000  0.4644390000000  0.4984640000000 1.0
C      1  0.5062580000000  0.4825700000000  0.4765730000000 1.0
C      1  0.4994380000000  0.5100310000000  0.4784000000000 1.0
C      1  0.5054550000000  0.5364060000000  0.4916720000000 1.0
C      1  0.4630360000000  0.5058160000000  0.5619540000000 1.0
C      1  0.4648650000000  0.4585150000000  0.5436150000000 1.0
C      1  0.4646550000000  0.4406740000000  0.4962560000000 1.0
C      1  0.4664400000000  0.4664560000000  0.4524750000000 1.0
C      1  0.4622910000000  0.5172240000000  0.4456980000000 1.0
C      1  0.4562250000000  0.5525860000000  0.4826430000000 1.0
C      1  0.4601680000000  0.5490860000000  0.5341310000000 1.0
C      1  0.5171790000000  0.4480810000000  0.5524440000000 1.0
C      1  0.5158300000000  0.4242090000000  0.4969840000000 1.0
C      1  0.5177330000000  0.4541320000000  0.4463540000000 1.0
C      1  0.5131890000000  0.5246150000000  0.4360790000000 1.0
C      1  0.5062110000000  0.5738480000000  0.4751320000000 1.0
C      1  0.5108360000000  0.5656190000000  0.5421440000000 1.0
C      1  0.5134480000000  0.5077940000000  0.5729340000000 1.0
C      1  0.5400440000000  0.5078790000000  0.5631270000000 1.0
C      1  0.5387950000000  0.4648600000000  0.5392380000000 1.0
C      1  0.5358870000000  0.4461770000000  0.4932480000000 1.0
C      1  0.5437830000000  0.4691060000000  0.4451550000000 1.0
C      1  0.5393050000000  0.5195600000000  0.4449230000000 1.0
C      1  0.5280050000000  0.5549800000000  0.4819970000000 1.0
C      1  0.5334420000000  0.5478370000000  0.5331960000000 1.0
C      1  0.4927690000000  0.4385860000000  0.4959070000000 1.0
C      1  0.4946570000000  0.4678970000000  0.4537140000000 1.0
C      1  0.4903110000000  0.5189050000000  0.4481560000000 1.0
C      1  0.4845430000000  0.5577190000000  0.4817510000000 1.0
C      1  0.4883890000000  0.5515410000000  0.5360110000000 1.0
C      1  0.4912940000000  0.5059320000000  0.5589210000000 1.0
C      1  0.4933430000000  0.4582910000000  0.5446030000000 1.0
C      1  0.4569570000000  0.5028790000000  0.5009850000000 1.0
C      1  0.5688940000000  0.5045640000000  0.5008090000000 1.0
C      1  0.5978640000000  0.4696460000000  0.4911940000000 1.0
C      1  0.5589090000000  0.5278710000000  0.4927840000000 1.0
C      1  0.4047310000000  0.5239170000000  0.4919180000000 1.0
C      1  0.4821000000000  0.5010890000000  0.5025470000000 1.0
C      1  0.5743860000000  0.4780350000000  0.5034530000000 1.0
C      1  0.6193200000000  0.4609130000000  0.4813620000000 1.0
C      1  0.3539780000000  0.5084790000000  0.4961840000000 1.0
C      1  0.3781920000000  0.5155840000000  0.4943790000000 1.0
END
