TITL C-42640-8622-3 -323.07357663665 125000 -1117.96379589659 0 0 162 (D2) n - 1
REM
REM in /rds/project/t2_vol4/rds-t2-cs072/BORA/CARBON/from-Arr/AIRSS/Generating-Clusters/GAP-ML-2020/Higher-Symm/SD-CG/HFTN-CG
REM
REM
REM
REM
REM
REM ./C.cell (b20cbc046b6831c77cfcea5457e17084)
REM AIRSS Version 0.9.1 bugfix July 2018 build 013d7b7c2542+ Fri, 06 Jul 2018 19:26:36 +0100
REM compiler GCC version 9.3.0
REM options -cpp -mtune=generic -march=x86-64 -g -O0
REM seed 736179606 -642589373 -1147032638 -53257895 -748056348 -1813529165 1866921263 -741489392 -527199091 -418444506 597739220 194411507 1247241185 -74023353 -538599468 -1502236874 -1304212075 -48660703 860763404 1865367293 21648194 -1545406318 2083325810 -1769394197 -979204049 -683912962 -616401585 -27011865 -838501315 1251824933 -1751719635 -1932206229 -1825028270
REM
CELL 1.54180   50.00000   50.00000   50.00000   90.00000   90.00000   90.00000
LATT -1
SFAC C  
C      1  0.4841610000000  0.4640520000000  0.4943280000000 1.0
C      1  0.5158370000000  0.4640510000000  0.5056720000000 1.0
C      1  0.5158390000000  0.5360870000000  0.4943280000000 1.0
C      1  0.4841630000000  0.5360880000000  0.5056720000000 1.0
C      1  0.5211410000000  0.4252500000000  0.5845380000000 1.0
C      1  0.4788560000000  0.4252520000000  0.4154610000000 1.0
C      1  0.4788590000000  0.5748880000000  0.5845390000000 1.0
C      1  0.5211440000000  0.5748870000000  0.4154620000000 1.0
C      1  0.4367600000000  0.4936100000000  0.5128740000000 1.0
C      1  0.5632390000000  0.4936070000000  0.4871260000000 1.0
C      1  0.5632400000000  0.5065290000000  0.5128740000000 1.0
C      1  0.4367610000000  0.5065320000000  0.4871260000000 1.0
C      1  0.5219910000000  0.5077190000000  0.4849390000000 1.0
C      1  0.4780090000000  0.5077200000000  0.5150610000000 1.0
C      1  0.4780090000000  0.4924200000000  0.4849390000000 1.0
C      1  0.5219910000000  0.4924190000000  0.5150610000000 1.0
C      1  0.5611130000000  0.5357330000000  0.5173630000000 1.0
C      1  0.4388890000000  0.5357360000000  0.4826370000000 1.0
C      1  0.4388870000000  0.4644050000000  0.5173630000000 1.0
C      1  0.5611110000000  0.4644030000000  0.4826370000000 1.0
C      1  0.5972470000000  0.4870360000000  0.5491490000000 1.0
C      1  0.4027520000000  0.4870400000000  0.4508510000000 1.0
C      1  0.4027530000000  0.5131030000000  0.5491500000000 1.0
C      1  0.5972480000000  0.5130980000000  0.4508500000000 1.0
C      1  0.4788480000000  0.5840430000000  0.5233670000000 1.0
C      1  0.5211560000000  0.5840420000000  0.4766330000000 1.0
C      1  0.5211520000000  0.4160950000000  0.5233670000000 1.0
C      1  0.4788440000000  0.4160960000000  0.4766330000000 1.0
C      1  0.5645840000000  0.5556510000000  0.4488580000000 1.0
C      1  0.4354190000000  0.5556540000000  0.5511420000000 1.0
C      1  0.4354160000000  0.4444880000000  0.4488580000000 1.0
C      1  0.5645810000000  0.4444840000000  0.5511420000000 1.0
C      1  0.4918530000000  0.4504920000000  0.4097890000000 1.0
C      1  0.5081450000000  0.4504910000000  0.5902110000000 1.0
C      1  0.5081470000000  0.5496470000000  0.4097890000000 1.0
C      1  0.4918550000000  0.5496480000000  0.5902110000000 1.0
C      1  0.4867960000000  0.4928580000000  0.5969290000000 1.0
C      1  0.5132030000000  0.4928580000000  0.4030710000000 1.0
C      1  0.5132040000000  0.5072800000000  0.5969290000000 1.0
C      1  0.4867960000000  0.5072810000000  0.4030720000000 1.0
C      1  0.4971510000000  0.4039530000000  0.5141010000000 1.0
C      1  0.5028440000000  0.4039530000000  0.4858990000000 1.0
C      1  0.5028490000000  0.5961860000000  0.5141010000000 1.0
C      1  0.4971560000000  0.5961860000000  0.4858990000000 1.0
C      1  0.6099380000000  0.4855520000000  0.5226440000000 1.0
C      1  0.3900620000000  0.4855570000000  0.4773560000000 1.0
C      1  0.3900620000000  0.5145870000000  0.5226440000000 1.0
C      1  0.6099380000000  0.5145820000000  0.4773550000000 1.0
C      1  0.6049770000000  0.5323120000000  0.4990650000000 1.0
C      1  0.3950240000000  0.5323180000000  0.5009350000000 1.0
C      1  0.3950230000000  0.4678260000000  0.4990660000000 1.0
C      1  0.6049760000000  0.4678210000000  0.5009340000000 1.0
C      1  0.4680640000000  0.4572910000000  0.5173450000000 1.0
C      1  0.5319340000000  0.4572890000000  0.4826550000000 1.0
C      1  0.5319360000000  0.5428480000000  0.5173450000000 1.0
C      1  0.4680660000000  0.5428490000000  0.4826550000000 1.0
C      1  0.4876620000000  0.5486720000000  0.4609340000000 1.0
C      1  0.5123410000000  0.5486720000000  0.5390660000000 1.0
C      1  0.5123380000000  0.4514660000000  0.4609340000000 1.0
C      1  0.4876590000000  0.4514670000000  0.5390660000000 1.0
C      1  0.4844280000000  0.4443780000000  0.4707780000000 1.0
C      1  0.5155690000000  0.4443770000000  0.5292220000000 1.0
C      1  0.5155720000000  0.5557610000000  0.4707780000000 1.0
C      1  0.4844310000000  0.5557620000000  0.5292220000000 1.0
C      1  0.5016250000000  0.5824580000000  0.5719280000000 1.0
C      1  0.4983790000000  0.5824580000000  0.4280720000000 1.0
C      1  0.4983750000000  0.4176810000000  0.5719280000000 1.0
C      1  0.5016210000000  0.4176810000000  0.4280720000000 1.0
C      1  0.4631210000000  0.5503410000000  0.4222630000000 1.0
C      1  0.5368820000000  0.5503390000000  0.5777370000000 1.0
C      1  0.5368790000000  0.4497980000000  0.4222630000000 1.0
C      1  0.4631180000000  0.4498000000000  0.5777370000000 1.0
C      1  0.4722780000000  0.4091020000000  0.5291750000000 1.0
C      1  0.5277180000000  0.4091010000000  0.4708250000000 1.0
C      1  0.5277230000000  0.5910360000000  0.5291750000000 1.0
C      1  0.4722820000000  0.5910380000000  0.4708260000000 1.0
C      1  0.5808570000000  0.4467070000000  0.5004280000000 1.0
C      1  0.4191400000000  0.4467110000000  0.4995710000000 1.0
C      1  0.4191430000000  0.5534310000000  0.5004290000000 1.0
C      1  0.5808600000000  0.5534270000000  0.4995710000000 1.0
C      1  0.4378590000000  0.4862860000000  0.4226080000000 1.0
C      1  0.5621400000000  0.4862830000000  0.5773920000000 1.0
C      1  0.5621410000000  0.5138530000000  0.4226070000000 1.0
C      1  0.4378600000000  0.5138560000000  0.5773930000000 1.0
C      1  0.3891070000000  0.4846640000000  0.5214660000000 1.0
C      1  0.6108930000000  0.4846590000000  0.4785340000000 1.0
C      1  0.6108930000000  0.5154750000000  0.5214660000000 1.0
C      1  0.3891070000000  0.5154800000000  0.4785340000000 1.0
C      1  0.4671190000000  0.5093440000000  0.5833400000000 1.0
C      1  0.5328810000000  0.5093430000000  0.4166600000000 1.0
C      1  0.5328810000000  0.4907940000000  0.5833390000000 1.0
C      1  0.4671190000000  0.4907960000000  0.4166610000000 1.0
C      1  0.4962120000000  0.4765960000000  0.5516080000000 1.0
C      1  0.5037870000000  0.4765960000000  0.4483920000000 1.0
C      1  0.5037880000000  0.5235420000000  0.5516080000000 1.0
C      1  0.4962130000000  0.5235420000000  0.4483920000000 1.0
C      1  0.4541050000000  0.5044090000000  0.5314570000000 1.0
C      1  0.5458960000000  0.5044070000000  0.4685430000000 1.0
C      1  0.5458960000000  0.4957290000000  0.5314570000000 1.0
C      1  0.4541040000000  0.4957320000000  0.4685430000000 1.0
C      1  0.5777100000000  0.5768100000000  0.5202960000000 1.0
C      1  0.4222930000000  0.5768130000000  0.4797050000000 1.0
C      1  0.4222900000000  0.4233290000000  0.5202960000000 1.0
C      1  0.5777070000000  0.4233250000000  0.4797040000000 1.0
C      1  0.4774130000000  0.5722240000000  0.4435980000000 1.0
C      1  0.5225910000000  0.5722230000000  0.5564030000000 1.0
C      1  0.5225870000000  0.4279150000000  0.4435970000000 1.0
C      1  0.4774100000000  0.4279160000000  0.5564030000000 1.0
C      1  0.4659890000000  0.4511740000000  0.4483590000000 1.0
C      1  0.5340090000000  0.4511720000000  0.5516410000000 1.0
C      1  0.5340110000000  0.5489650000000  0.4483590000000 1.0
C      1  0.4659910000000  0.5489670000000  0.5516410000000 1.0
C      1  0.5494910000000  0.4932580000000  0.4376650000000 1.0
C      1  0.4505080000000  0.4932600000000  0.5623350000000 1.0
C      1  0.4505090000000  0.5068810000000  0.4376650000000 1.0
C      1  0.5494920000000  0.5068780000000  0.5623350000000 1.0
C      1  0.5484360000000  0.4150950000000  0.5135530000000 1.0
C      1  0.4515600000000  0.4150970000000  0.4864470000000 1.0
C      1  0.4515640000000  0.5850440000000  0.5135540000000 1.0
C      1  0.5484400000000  0.5850420000000  0.4864470000000 1.0
C      1  0.4475030000000  0.5897940000000  0.4858530000000 1.0
C      1  0.5525010000000  0.5897910000000  0.5141480000000 1.0
C      1  0.5524970000000  0.4103450000000  0.4858520000000 1.0
C      1  0.4474990000000  0.4103480000000  0.5141480000000 1.0
C      1  0.5876640000000  0.5668840000000  0.5431350000000 1.0
C      1  0.4123390000000  0.5668880000000  0.4568650000000 1.0
C      1  0.4123360000000  0.4332550000000  0.5431350000000 1.0
C      1  0.5876610000000  0.4332510000000  0.4568650000000 1.0
C      1  0.5679290000000  0.5666610000000  0.4762380000000 1.0
C      1  0.4320740000000  0.5666640000000  0.5237620000000 1.0
C      1  0.4320710000000  0.4334780000000  0.4762380000000 1.0
C      1  0.5679260000000  0.4334750000000  0.5237610000000 1.0
C      1  0.5449660000000  0.5697870000000  0.4309610000000 1.0
C      1  0.4550370000000  0.5697890000000  0.5690390000000 1.0
C      1  0.4550340000000  0.4303520000000  0.4309610000000 1.0
C      1  0.5449630000000  0.4303490000000  0.5690390000000 1.0
C      1  0.5781570000000  0.4601950000000  0.4514700000000 1.0
C      1  0.4218410000000  0.4601990000000  0.5485290000000 1.0
C      1  0.4218430000000  0.5399440000000  0.4514710000000 1.0
C      1  0.5781590000000  0.5399400000000  0.5485290000000 1.0
C      1  0.5570630000000  0.5342770000000  0.5675810000000 1.0
C      1  0.4429380000000  0.5342800000000  0.4324190000000 1.0
C      1  0.4429370000000  0.4658620000000  0.5675810000000 1.0
C      1  0.5570610000000  0.4658590000000  0.4324190000000 1.0
C      1  0.5976260000000  0.5167530000000  0.5473340000000 1.0
C      1  0.4023750000000  0.5167580000000  0.4526660000000 1.0
C      1  0.4023750000000  0.4833850000000  0.5473350000000 1.0
C      1  0.5976250000000  0.4833810000000  0.4526650000000 1.0
C      1  0.5192080000000  0.5312180000000  0.4301450000000 1.0
C      1  0.4807930000000  0.5312180000000  0.5698550000000 1.0
C      1  0.4807910000000  0.4689210000000  0.4301450000000 1.0
C      1  0.5192070000000  0.4689200000000  0.5698550000000 1.0
C      1  0.5781140000000  0.4693000000000  0.5620740000000 1.0
C      1  0.4218850000000  0.4693040000000  0.4379260000000 1.0
C      1  0.4218860000000  0.5308380000000  0.5620740000000 1.0
C      1  0.5781150000000  0.5308350000000  0.4379260000000 1.0
C      1  0.4830470000000  0.5375470000000  0.4051340000000 1.0
C      1  0.5169550000000  0.5375460000000  0.5948660000000 1.0
C      1  0.5169530000000  0.4625920000000  0.4051340000000 1.0
C      1  0.4830450000000  0.4625920000000  0.5948660000000 1.0
C      1  0.5000000000000  0.5000690000000  0.5338600000000 1.0
C      1  0.5000000000000  0.5000690000000  0.4661400000000 1.0
END
