TITL C-42629-8430-10 -0.105379329402432 125000 -395.93073673924 0 0 55 (C1) n - 1
REM
REM in /rds/project/t2_vol4/rds-t2-cs072/BORA/CARBON/from-Arr/AIRSS/Generating-Clusters/GAP-ML-2020/Higher-Symm/SD-CG/HFTN-CG
REM
REM
REM
REM
REM
REM ./C.cell (b20cbc046b6831c77cfcea5457e17084)
REM AIRSS Version 0.9.1 bugfix July 2018 build 013d7b7c2542+ Fri, 06 Jul 2018 19:26:36 +0100
REM compiler GCC version 9.3.0
REM options -cpp -mtune=generic -march=x86-64 -g -O0
REM seed -1088211026 -1399199147 214236256 -320979612 1903811545 1597264397 -515874583 -2105770810 -526285189 -569227798 -742337090 1501871614 1014365634 1055728655 720484030 -534020394 -2056799776 1535758697 -1646069927 1818058740 507358984 -943993043 -65813813 -1511970300 -1611483599 1161481898 927502027 -1629835516 1001065154 1186414610 946588215 305146230 606655396
REM
CELL 1.54180   50.00000   50.00000   50.00000   90.00000   90.00000   90.00000
LATT -1
SFAC C  
C      1  0.4731170000000  0.4888110000000  0.4398890000000 1.0
C      1  0.4796200000000  0.4820680000000  0.5579720000000 1.0
C      1  0.5420350000000  0.4944020000000  0.4510790000000 1.0
C      1  0.5476600000000  0.4955400000000  0.5508520000000 1.0
C      1  0.5617370000000  0.4940940000000  0.4722370000000 1.0
C      1  0.5653460000000  0.4956150000000  0.5281350000000 1.0
C      1  0.4667780000000  0.5289080000000  0.5494950000000 1.0
C      1  0.4644730000000  0.5364560000000  0.4504700000000 1.0
C      1  0.4748730000000  0.4630840000000  0.4533770000000 1.0
C      1  0.4868930000000  0.4563860000000  0.5455050000000 1.0
C      1  0.5622320000000  0.5214230000000  0.5143180000000 1.0
C      1  0.5609500000000  0.5206090000000  0.4859370000000 1.0
C      1  0.5426020000000  0.5374420000000  0.4725280000000 1.0
C      1  0.5445700000000  0.5381110000000  0.5293200000000 1.0
C      1  0.4743480000000  0.5598930000000  0.5160170000000 1.0
C      1  0.4742110000000  0.5619920000000  0.4879480000000 1.0
C      1  0.5127240000000  0.4790650000000  0.4981320000000 1.0
C      1  0.5181680000000  0.5001490000000  0.5130340000000 1.0
C      1  0.5244830000000  0.5551190000000  0.4867080000000 1.0
C      1  0.5250780000000  0.5549810000000  0.5162940000000 1.0
C      1  0.4991550000000  0.5584260000000  0.4733210000000 1.0
C      1  0.4995390000000  0.5565080000000  0.5300110000000 1.0
C      1  0.4793100000000  0.4467780000000  0.5188530000000 1.0
C      1  0.5018950000000  0.4533150000000  0.4999570000000 1.0
C      1  0.5754570000000  0.4747310000000  0.5129720000000 1.0
C      1  0.5718620000000  0.4728720000000  0.4875080000000 1.0
C      1  0.5085930000000  0.5239510000000  0.4379590000000 1.0
C      1  0.5118600000000  0.5218150000000  0.5637230000000 1.0
C      1  0.4371140000000  0.5250940000000  0.5143490000000 1.0
C      1  0.4359320000000  0.5286180000000  0.4861790000000 1.0
C      1  0.4549420000000  0.5096710000000  0.4471320000000 1.0
C      1  0.4594990000000  0.5008940000000  0.5487950000000 1.0
C      1  0.5377780000000  0.5224670000000  0.5524810000000 1.0
C      1  0.5340580000000  0.5219790000000  0.4498130000000 1.0
C      1  0.4559250000000  0.4527870000000  0.5042510000000 1.0
C      1  0.4554620000000  0.4588170000000  0.4745250000000 1.0
C      1  0.5249000000000  0.4184740000000  0.5151780000000 1.0
C      1  0.5209910000000  0.4154650000000  0.4888680000000 1.0
C      1  0.4533220000000  0.5479140000000  0.4742060000000 1.0
C      1  0.4543220000000  0.5432740000000  0.5283000000000 1.0
C      1  0.5042940000000  0.4937910000000  0.5673260000000 1.0
C      1  0.4996090000000  0.4969090000000  0.4333820000000 1.0
C      1  0.4362510000000  0.5052020000000  0.4687150000000 1.0
C      1  0.4402850000000  0.4982030000000  0.5265350000000 1.0
C      1  0.4932850000000  0.5392440000000  0.5526080000000 1.0
C      1  0.4919390000000  0.5436370000000  0.4491130000000 1.0
C      1  0.5268180000000  0.4771530000000  0.5606470000000 1.0
C      1  0.5192240000000  0.4774800000000  0.4420590000000 1.0
C      1  0.5037910000000  0.4543840000000  0.4532880000000 1.0
C      1  0.5155880000000  0.4514640000000  0.5507580000000 1.0
C      1  0.4376590000000  0.4757610000000  0.5089980000000 1.0
C      1  0.4360240000000  0.4800240000000  0.4800920000000 1.0
C      1  0.5096420000000  0.4377400000000  0.4769260000000 1.0
C      1  0.5272110000000  0.4286860000000  0.5387090000000 1.0
C      1  0.4969210000000  0.5016270000000  0.4986160000000 1.0
END
