TITL C-42654-8200-5 -0.0124006580168797 125000 -396.885918815973 0 0 60 (Ci) n - 1
REM
REM in /rds/project/t2_vol4/rds-t2-cs072/BORA/CARBON/from-Arr/AIRSS/Generating-Clusters/GAP-ML-2020/Higher-Symm/SD-CG/HFTN-CG
REM
REM
REM
REM
REM
REM ./C.cell (b20cbc046b6831c77cfcea5457e17084)
REM AIRSS Version 0.9.1 bugfix July 2018 build 013d7b7c2542+ Fri, 06 Jul 2018 19:26:36 +0100
REM compiler GCC version 9.3.0
REM options -cpp -mtune=generic -march=x86-64 -g -O0
REM seed -148139397 -874602640 -1287656991 -968038041 1938731941 989226248 -1983242182 773999266 742799701 -980470691 -1912727745 -200773178 714178168 -975306974 -724192265 -1935124287 706811741 1998553577 573225028 -802935252 -1992238242 1927154882 -370010080 1339192832 -1133912741 1528152137 1019650783 -746792258 1355846917 -1877384735 -755591588 308962238 112898345
REM
CELL 1.54180   50.00000   50.00000   50.00000   90.00000   90.00000   90.00000
LATT -1
SFAC C  
C      1  0.4533550000000  0.5067360000000  0.5502310000000 1.0
C      1  0.4842810000000  0.5376370000000  0.4534910000000 1.0
C      1  0.5160090000000  0.5351000000000  0.5413850000000 1.0
C      1  0.5466450000000  0.4932640000000  0.4497690000000 1.0
C      1  0.5157190000000  0.4623630000000  0.5465090000000 1.0
C      1  0.4839910000000  0.4649000000000  0.4586150000000 1.0
C      1  0.4802100000000  0.5184210000000  0.5104720000000 1.0
C      1  0.5043380000000  0.5235060000000  0.4941880000000 1.0
C      1  0.5275010000000  0.5070140000000  0.5039140000000 1.0
C      1  0.5197900000000  0.4815790000000  0.4895280000000 1.0
C      1  0.4956620000000  0.4764940000000  0.5058120000000 1.0
C      1  0.4724990000000  0.4929860000000  0.4960860000000 1.0
C      1  0.4469280000000  0.4988000000000  0.4562870000000 1.0
C      1  0.4518070000000  0.5381050000000  0.5500000000000 1.0
C      1  0.5132900000000  0.5450290000000  0.4500150000000 1.0
C      1  0.5530720000000  0.5012000000000  0.5437130000000 1.0
C      1  0.5481930000000  0.4618950000000  0.4500000000000 1.0
C      1  0.4867100000000  0.4549710000000  0.5499850000000 1.0
C      1  0.5678350000000  0.4966440000000  0.5199730000000 1.0
C      1  0.5436410000000  0.4446600000000  0.4740690000000 1.0
C      1  0.4710660000000  0.4496420000000  0.5258190000000 1.0
C      1  0.4321650000000  0.5033560000000  0.4800270000000 1.0
C      1  0.4563590000000  0.5553400000000  0.5259310000000 1.0
C      1  0.5289340000000  0.5503580000000  0.4741810000000 1.0
C      1  0.4470890000000  0.5137270000000  0.4326180000000 1.0
C      1  0.4758020000000  0.5497410000000  0.5597800000000 1.0
C      1  0.5266830000000  0.5310780000000  0.4298060000000 1.0
C      1  0.5529110000000  0.4862730000000  0.5673820000000 1.0
C      1  0.5241980000000  0.4502590000000  0.4402200000000 1.0
C      1  0.4733170000000  0.4689220000000  0.5701940000000 1.0
C      1  0.4432780000000  0.4863240000000  0.5023060000000 1.0
C      1  0.4603640000000  0.5398060000000  0.5028070000000 1.0
C      1  0.5125800000000  0.5516830000000  0.4970510000000 1.0
C      1  0.5567220000000  0.5136760000000  0.4976940000000 1.0
C      1  0.5396360000000  0.4601940000000  0.4971930000000 1.0
C      1  0.4874200000000  0.4483170000000  0.5029490000000 1.0
C      1  0.5055370000000  0.4708410000000  0.4428690000000 1.0
C      1  0.4593220000000  0.4898080000000  0.5746930000000 1.0
C      1  0.4660560000000  0.5306370000000  0.4307230000000 1.0
C      1  0.4944630000000  0.5291590000000  0.5571310000000 1.0
C      1  0.5406780000000  0.5101920000000  0.4253070000000 1.0
C      1  0.5339440000000  0.4693630000000  0.5692770000000 1.0
C      1  0.4823610000000  0.5648600000000  0.5352890000000 1.0
C      1  0.5537320000000  0.5351020000000  0.4766420000000 1.0
C      1  0.5577220000000  0.4694560000000  0.5182140000000 1.0
C      1  0.5176390000000  0.4351400000000  0.4647110000000 1.0
C      1  0.4462680000000  0.4648980000000  0.5233580000000 1.0
C      1  0.4422780000000  0.5305440000000  0.4817860000000 1.0
C      1  0.5075370000000  0.5570210000000  0.5241940000000 1.0
C      1  0.5613760000000  0.5101400000000  0.4693280000000 1.0
C      1  0.5356560000000  0.4543540000000  0.5258060000000 1.0
C      1  0.4924630000000  0.4429790000000  0.4758060000000 1.0
C      1  0.4386240000000  0.4898600000000  0.5306720000000 1.0
C      1  0.4643440000000  0.5456460000000  0.4741940000000 1.0
C      1  0.4738340000000  0.4914380000000  0.4671260000000 1.0
C      1  0.4824310000000  0.5088700000000  0.5391410000000 1.0
C      1  0.4970750000000  0.5125220000000  0.4663350000000 1.0
C      1  0.5261660000000  0.5085620000000  0.5328740000000 1.0
C      1  0.5175690000000  0.4911300000000  0.4608590000000 1.0
C      1  0.5029250000000  0.4874780000000  0.5336650000000 1.0
END
