TITL C-42643-9956-8 42.4916083044003 125000 -583.720958140348 0 0 84 (C1) n - 1
REM
REM in /rds/project/t2_vol4/rds-t2-cs072/BORA/CARBON/from-Arr/AIRSS/Generating-Clusters/GAP-ML-2020/Higher-Symm/SD-CG/HFTN-CG
REM
REM
REM
REM
REM
REM ./C.cell (b20cbc046b6831c77cfcea5457e17084)
REM AIRSS Version 0.9.1 bugfix July 2018 build 013d7b7c2542+ Fri, 06 Jul 2018 19:26:36 +0100
REM compiler GCC version 9.3.0
REM options -cpp -mtune=generic -march=x86-64 -g -O0
REM seed 1917346353 1007518099 -1900688772 404743654 1399035811 1221775159 -2095761399 1021963496 1857349206 2023256461 1860948877 -976811490 111340705 -45510137 2129081915 -1818706578 -1302966483 -1062163100 -1489275173 469702041 544785389 1218716608 -1340355056 1774018793 791178903 1042757705 1704783092 2045019437 -902351152 -1170278478 28100971 320762585 1903142096
REM
CELL 1.54180   50.00000   50.00000   50.00000   90.00000   90.00000   90.00000
LATT -1
SFAC C  
C      1  0.5648880000000  0.4990160000000  0.5515270000000 1.0
C      1  0.5547570000000  0.4502810000000  0.5411120000000 1.0
C      1  0.5742800000000  0.4544120000000  0.4928820000000 1.0
C      1  0.5615840000000  0.4803940000000  0.4518750000000 1.0
C      1  0.5544350000000  0.5380720000000  0.4441980000000 1.0
C      1  0.5646560000000  0.5452650000000  0.4893040000000 1.0
C      1  0.5605360000000  0.5479870000000  0.5399970000000 1.0
C      1  0.4503130000000  0.5543180000000  0.4780350000000 1.0
C      1  0.4509280000000  0.5500840000000  0.5296540000000 1.0
C      1  0.4517250000000  0.5097830000000  0.5597910000000 1.0
C      1  0.4519570000000  0.4585840000000  0.5445790000000 1.0
C      1  0.4462180000000  0.4373340000000  0.4979740000000 1.0
C      1  0.4485960000000  0.4629300000000  0.4536560000000 1.0
C      1  0.4494850000000  0.5163500000000  0.4446140000000 1.0
C      1  0.4342330000000  0.4510320000000  0.4753620000000 1.0
C      1  0.4375830000000  0.4898790000000  0.4496740000000 1.0
C      1  0.4361270000000  0.5354340000000  0.4614540000000 1.0
C      1  0.4382560000000  0.5517760000000  0.5040240000000 1.0
C      1  0.4375100000000  0.5300360000000  0.5451050000000 1.0
C      1  0.4398120000000  0.4843760000000  0.5519810000000 1.0
C      1  0.4360690000000  0.4487270000000  0.5225030000000 1.0
C      1  0.4923940000000  0.5313710000000  0.5161820000000 1.0
C      1  0.4922060000000  0.5063900000000  0.5331480000000 1.0
C      1  0.4902970000000  0.4793820000000  0.5211230000000 1.0
C      1  0.4766830000000  0.4809880000000  0.4968990000000 1.0
C      1  0.4903050000000  0.4823320000000  0.4723530000000 1.0
C      1  0.4912870000000  0.5113460000000  0.4653020000000 1.0
C      1  0.4924190000000  0.5330130000000  0.4865110000000 1.0
C      1  0.4158060000000  0.4706180000000  0.4863620000000 1.0
C      1  0.4169570000000  0.4938690000000  0.4700200000000 1.0
C      1  0.4161540000000  0.5212170000000  0.4773510000000 1.0
C      1  0.4167580000000  0.5318190000000  0.5034800000000 1.0
C      1  0.4169580000000  0.5179650000000  0.5283660000000 1.0
C      1  0.4182840000000  0.4901520000000  0.5332510000000 1.0
C      1  0.4168040000000  0.4689620000000  0.5146080000000 1.0
C      1  0.5721760000000  0.5231360000000  0.5386760000000 1.0
C      1  0.5719550000000  0.4730330000000  0.5433620000000 1.0
C      1  0.5746140000000  0.4561640000000  0.5216670000000 1.0
C      1  0.5781240000000  0.4757030000000  0.4737360000000 1.0
C      1  0.5752300000000  0.5014880000000  0.4640370000000 1.0
C      1  0.5700030000000  0.5292680000000  0.4659130000000 1.0
C      1  0.5725590000000  0.5403900000000  0.5156220000000 1.0
C      1  0.5242250000000  0.5325340000000  0.4868340000000 1.0
C      1  0.5234140000000  0.5293730000000  0.5169270000000 1.0
C      1  0.5242820000000  0.5034940000000  0.5316760000000 1.0
C      1  0.5214050000000  0.4763060000000  0.5192390000000 1.0
C      1  0.5336990000000  0.4718700000000  0.4946290000000 1.0
C      1  0.5215710000000  0.4826630000000  0.4715850000000 1.0
C      1  0.5224530000000  0.5117080000000  0.4651470000000 1.0
C      1  0.4865090000000  0.4345860000000  0.4714800000000 1.0
C      1  0.4929000000000  0.4640020000000  0.4284540000000 1.0
C      1  0.4878250000000  0.5496540000000  0.4446900000000 1.0
C      1  0.4957100000000  0.5798910000000  0.4848500000000 1.0
C      1  0.4887230000000  0.5445260000000  0.5591640000000 1.0
C      1  0.5016790000000  0.5043550000000  0.5806320000000 1.0
C      1  0.4874430000000  0.4321770000000  0.5215850000000 1.0
C      1  0.4731810000000  0.4316290000000  0.4966300000000 1.0
C      1  0.4781740000000  0.4579490000000  0.4524540000000 1.0
C      1  0.4769410000000  0.5226550000000  0.4423650000000 1.0
C      1  0.4795920000000  0.5589810000000  0.4732830000000 1.0
C      1  0.4787330000000  0.5516080000000  0.5329690000000 1.0
C      1  0.4805280000000  0.5154540000000  0.5631540000000 1.0
C      1  0.4809920000000  0.4542640000000  0.5412180000000 1.0
C      1  0.5149040000000  0.4295040000000  0.5209860000000 1.0
C      1  0.5134920000000  0.4282500000000  0.4721080000000 1.0
C      1  0.5163440000000  0.4773500000000  0.4250140000000 1.0
C      1  0.5145420000000  0.5491810000000  0.4397150000000 1.0
C      1  0.5197460000000  0.5783550000000  0.4976050000000 1.0
C      1  0.5162030000000  0.5455900000000  0.5621000000000 1.0
C      1  0.5151330000000  0.4808300000000  0.5718880000000 1.0
C      1  0.5304660000000  0.5222540000000  0.4361210000000 1.0
C      1  0.5383830000000  0.5587570000000  0.4817370000000 1.0
C      1  0.5325400000000  0.5549950000000  0.5393280000000 1.0
C      1  0.5365500000000  0.5005010000000  0.5593850000000 1.0
C      1  0.5266570000000  0.4501070000000  0.5384380000000 1.0
C      1  0.5478210000000  0.4446420000000  0.4870410000000 1.0
C      1  0.5347960000000  0.4680250000000  0.4482830000000 1.0
C      1  0.5256460000000  0.5776500000000  0.5238760000000 1.0
C      1  0.5243390000000  0.5221790000000  0.5751740000000 1.0
C      1  0.5062140000000  0.4583270000000  0.5584930000000 1.0
C      1  0.5280380000000  0.4252190000000  0.4970440000000 1.0
C      1  0.5359230000000  0.4414690000000  0.4597990000000 1.0
C      1  0.5229370000000  0.5026350000000  0.4173810000000 1.0
C      1  0.5374250000000  0.5598250000000  0.4522490000000 1.0
END
