TITL C-42638-8598-2 -0.0151665798349258 125000 -220.72019668795 0 0 33 (C1) n - 1
REM
REM in /rds/project/t2_vol4/rds-t2-cs072/BORA/CARBON/from-Arr/AIRSS/Generating-Clusters/GAP-ML-2020/Higher-Symm/SD-CG/HFTN-CG
REM
REM
REM
REM
REM
REM ./C.cell (b20cbc046b6831c77cfcea5457e17084)
REM AIRSS Version 0.9.1 bugfix July 2018 build 013d7b7c2542+ Fri, 06 Jul 2018 19:26:36 +0100
REM compiler GCC version 9.3.0
REM options -cpp -mtune=generic -march=x86-64 -g -O0
REM seed -809868001 33915969 -2021509651 -1097072191 2025842222 -998970704 420298632 708691828 1404310094 -374282040 -1789683117 -1724483707 -1485270068 -1576259982 -2082944233 879456392 1278683899 -1535665483 1203365263 1507490746 -593474211 306140511 -1933255032 -1707816393 1939015083 -415861403 -1738932683 1513051056 -655976469 -1942346915 -2009236156 -562815927 8557233
REM
CELL 1.54180   50.00000   50.00000   50.00000   90.00000   90.00000   90.00000
LATT -1
SFAC C  
C      1  0.5217420000000  0.5390980000000  0.4566000000000 1.0
C      1  0.4781050000000  0.5362480000000  0.5447900000000 1.0
C      1  0.4563400000000  0.5136570000000  0.5050740000000 1.0
C      1  0.5438780000000  0.5135480000000  0.4951240000000 1.0
C      1  0.4859390000000  0.5026640000000  0.4453830000000 1.0
C      1  0.5156960000000  0.5008690000000  0.5557870000000 1.0
C      1  0.5527680000000  0.4536840000000  0.5183360000000 1.0
C      1  0.4478940000000  0.4534740000000  0.4795820000000 1.0
C      1  0.4996530000000  0.4782150000000  0.5612010000000 1.0
C      1  0.5025750000000  0.4809690000000  0.4391570000000 1.0
C      1  0.5229030000000  0.5375150000000  0.5274090000000 1.0
C      1  0.4764340000000  0.5396510000000  0.4732350000000 1.0
C      1  0.5185500000000  0.4643150000000  0.4500890000000 1.0
C      1  0.4876010000000  0.4642640000000  0.5439960000000 1.0
C      1  0.4766330000000  0.4655400000000  0.5176260000000 1.0
C      1  0.5281680000000  0.4656250000000  0.4775090000000 1.0
C      1  0.4598420000000  0.4988220000000  0.4583380000000 1.0
C      1  0.5414750000000  0.4971650000000  0.5422210000000 1.0
C      1  0.4489930000000  0.4744070000000  0.4642190000000 1.0
C      1  0.5517440000000  0.4721480000000  0.5362650000000 1.0
C      1  0.4628340000000  0.4488730000000  0.5005150000000 1.0
C      1  0.5406120000000  0.4492830000000  0.4958270000000 1.0
C      1  0.5044210000000  0.5279350000000  0.5471240000000 1.0
C      1  0.4957360000000  0.5302000000000  0.4538700000000 1.0
C      1  0.5433050000000  0.5185290000000  0.5229250000000 1.0
C      1  0.4565910000000  0.5202120000000  0.4773430000000 1.0
C      1  0.5314220000000  0.5377590000000  0.4818120000000 1.0
C      1  0.4687850000000  0.5363000000000  0.5192840000000 1.0
C      1  0.4782620000000  0.4920350000000  0.5067660000000 1.0
C      1  0.5244300000000  0.4910780000000  0.4907000000000 1.0
C      1  0.4856200000000  0.5496090000000  0.4987510000000 1.0
C      1  0.5141860000000  0.5495060000000  0.5025910000000 1.0
C      1  0.4994190000000  0.5013710000000  0.4932960000000 1.0
END
