TITL C-42648-8128-6 0.138821905213293 125000 -420.739281827391 0 0 62 (C3h) n - 1
REM
REM in /rds/project/t2_vol4/rds-t2-cs072/BORA/CARBON/from-Arr/AIRSS/Generating-Clusters/GAP-ML-2020/Higher-Symm/SD-CG/HFTN-CG
REM
REM
REM
REM
REM
REM ./C.cell (b20cbc046b6831c77cfcea5457e17084)
REM AIRSS Version 0.9.1 bugfix July 2018 build 013d7b7c2542+ Fri, 06 Jul 2018 19:26:36 +0100
REM compiler GCC version 9.3.0
REM options -cpp -mtune=generic -march=x86-64 -g -O0
REM seed -1744917424 2028627854 -1416153719 -732275236 -1020745525 -585715574 -643332363 -74944653 -660499181 152575826 -57104122 -1020101181 -1362695400 -1129052752 274395531 320965077 981591890 968347604 -679491067 -1710593218 385963114 381025859 1835972489 -1038544962 -491137041 -751364970 -149214641 -220784279 340961976 -2008667974 -35508539 -302879702 -2045935769
REM
CELL 1.54180   50.00000   50.00000   50.00000   90.00000   90.00000   90.00000
LATT -1
SFAC C  
C      1  0.5508150000000  0.5275470000000  0.5199410000000 1.0
C      1  0.4925730000000  0.5275270000000  0.4462200000000 1.0
C      1  0.4578530000000  0.5284330000000  0.5335170000000 1.0
C      1  0.5503580000000  0.4737600000000  0.5203170000000 1.0
C      1  0.4921150000000  0.4737410000000  0.4465950000000 1.0
C      1  0.4573950000000  0.4746460000000  0.5338930000000 1.0
C      1  0.5401500000000  0.5559590000000  0.4719240000000 1.0
C      1  0.4568610000000  0.5567200000000  0.4793730000000 1.0
C      1  0.5049610000000  0.5567890000000  0.5477800000000 1.0
C      1  0.5392050000000  0.4448650000000  0.4727000000000 1.0
C      1  0.4559160000000  0.4456260000000  0.4801490000000 1.0
C      1  0.5040160000000  0.4456950000000  0.5485570000000 1.0
C      1  0.4620860000000  0.5591440000000  0.5308800000000 1.0
C      1  0.5469940000000  0.5583280000000  0.5174980000000 1.0
C      1  0.4929460000000  0.5583210000000  0.4506550000000 1.0
C      1  0.4611050000000  0.4438340000000  0.5316860000000 1.0
C      1  0.5460130000000  0.4430170000000  0.5183040000000 1.0
C      1  0.4919650000000  0.4430100000000  0.4514610000000 1.0
C      1  0.4833920000000  0.5728850000000  0.5401810000000 1.0
C      1  0.5446550000000  0.5720430000000  0.4943530000000 1.0
C      1  0.4743330000000  0.5724310000000  0.4642080000000 1.0
C      1  0.4821750000000  0.4298630000000  0.5411810000000 1.0
C      1  0.5434380000000  0.4290220000000  0.4953530000000 1.0
C      1  0.4731160000000  0.4294090000000  0.4652080000000 1.0
C      1  0.4466130000000  0.4891840000000  0.5593890000000 1.0
C      1  0.5780980000000  0.4877680000000  0.5168630000000 1.0
C      1  0.4755210000000  0.4879940000000  0.4242540000000 1.0
C      1  0.4468280000000  0.5144380000000  0.5592130000000 1.0
C      1  0.5783130000000  0.5130220000000  0.5166870000000 1.0
C      1  0.4757360000000  0.5132480000000  0.4240770000000 1.0
C      1  0.4569810000000  0.5278940000000  0.4743800000000 1.0
C      1  0.5000350000000  0.5280580000000  0.5502620000000 1.0
C      1  0.5442210000000  0.5271570000000  0.4750390000000 1.0
C      1  0.4565260000000  0.4743730000000  0.4747540000000 1.0
C      1  0.4995800000000  0.4745370000000  0.5506360000000 1.0
C      1  0.5437660000000  0.4736350000000  0.4754130000000 1.0
C      1  0.5422940000000  0.5308710000000  0.5490270000000 1.0
C      1  0.5220800000000  0.5302750000000  0.4390490000000 1.0
C      1  0.4369450000000  0.5315060000000  0.5115380000000 1.0
C      1  0.5417840000000  0.4709880000000  0.5494450000000 1.0
C      1  0.5215700000000  0.4703920000000  0.4394680000000 1.0
C      1  0.4364360000000  0.4716230000000  0.5119570000000 1.0
C      1  0.5223910000000  0.5151460000000  0.5618860000000 1.0
C      1  0.5428670000000  0.5141890000000  0.4499060000000 1.0
C      1  0.4356520000000  0.5153690000000  0.4881570000000 1.0
C      1  0.5221530000000  0.4872280000000  0.5620810000000 1.0
C      1  0.5426300000000  0.4862710000000  0.4501020000000 1.0
C      1  0.4354150000000  0.4874510000000  0.4883520000000 1.0
C      1  0.4456960000000  0.4444480000000  0.5069790000000 1.0
C      1  0.5323340000000  0.4439700000000  0.5439990000000 1.0
C      1  0.5210700000000  0.4434120000000  0.4504590000000 1.0
C      1  0.4466660000000  0.5584460000000  0.5061820000000 1.0
C      1  0.5333040000000  0.5579680000000  0.5432020000000 1.0
C      1  0.5220400000000  0.5574100000000  0.4496630000000 1.0
C      1  0.5300540000000  0.5159320000000  0.4997130000000 1.0
C      1  0.4852170000000  0.5161360000000  0.4743500000000 1.0
C      1  0.4856730000000  0.5164920000000  0.5258600000000 1.0
C      1  0.5297940000000  0.4854430000000  0.4999260000000 1.0
C      1  0.4849580000000  0.4856480000000  0.4745630000000 1.0
C      1  0.4854130000000  0.4860040000000  0.5260730000000 1.0
C      1  0.5003900000000  0.5250860000000  0.4999120000000 1.0
C      1  0.4999790000000  0.4767990000000  0.5002490000000 1.0
END
