TITL C-42655-8321-7 51.730974407489 125000 -612.309703651538 0 0 83 (C1) n - 1
REM
REM in /rds/project/t2_vol4/rds-t2-cs072/BORA/CARBON/from-Arr/AIRSS/Generating-Clusters/GAP-ML-2020/Higher-Symm/SD-CG/HFTN-CG
REM
REM
REM
REM
REM
REM ./C.cell (b20cbc046b6831c77cfcea5457e17084)
REM AIRSS Version 0.9.1 bugfix July 2018 build 013d7b7c2542+ Fri, 06 Jul 2018 19:26:36 +0100
REM compiler GCC version 9.3.0
REM options -cpp -mtune=generic -march=x86-64 -g -O0
REM seed -1224356125 -1312239497 766949397 -191572637 1004014910 1574152537 1845892612 1022461358 -1937642969 2056837508 1966305800 -127762557 1845632567 1736412043 -1458365254 49288414 955746528 238941766 145810121 -1167543450 921668306 451029609 -942776542 -1375001980 2082138911 -55524633 -1909719131 962592949 -90130125 -1881105575 -1921694207 861262546 737100324
REM
CELL 1.54180   50.00000   50.00000   50.00000   90.00000   90.00000   90.00000
LATT -1
SFAC C  
C      1  0.4566700000000  0.4657640000000  0.4415370000000 1.0
C      1  0.5513280000000  0.4807340000000  0.4410100000000 1.0
C      1  0.4912920000000  0.5550770000000  0.4411270000000 1.0
C      1  0.4624360000000  0.5698510000000  0.5062830000000 1.0
C      1  0.4603450000000  0.4331520000000  0.5059360000000 1.0
C      1  0.5777760000000  0.4972630000000  0.5065320000000 1.0
C      1  0.4724550000000  0.5084220000000  0.4260990000000 1.0
C      1  0.5068110000000  0.4730530000000  0.4263550000000 1.0
C      1  0.5205000000000  0.5205870000000  0.4257950000000 1.0
C      1  0.5195160000000  0.5697390000000  0.5202190000000 1.0
C      1  0.4325980000000  0.4832790000000  0.5211650000000 1.0
C      1  0.5520230000000  0.4457920000000  0.5179440000000 1.0
C      1  0.5221780000000  0.5094270000000  0.4946020000000 1.0
C      1  0.4820940000000  0.5170580000000  0.4914670000000 1.0
C      1  0.4940070000000  0.4728300000000  0.5001970000000 1.0
C      1  0.4461290000000  0.5107300000000  0.4380490000000 1.0
C      1  0.5181960000000  0.4484910000000  0.4365270000000 1.0
C      1  0.5358790000000  0.5417940000000  0.4374480000000 1.0
C      1  0.5580580000000  0.5412310000000  0.4553520000000 1.0
C      1  0.4354770000000  0.5301760000000  0.4557530000000 1.0
C      1  0.5067650000000  0.4287760000000  0.4536770000000 1.0
C      1  0.5455740000000  0.5376340000000  0.5482540000000 1.0
C      1  0.4430960000000  0.5226330000000  0.5488430000000 1.0
C      1  0.5085320000000  0.4418080000000  0.5396330000000 1.0
C      1  0.5525450000000  0.5594920000000  0.4770460000000 1.0
C      1  0.4222080000000  0.5161820000000  0.4773660000000 1.0
C      1  0.5263330000000  0.4231310000000  0.4740950000000 1.0
C      1  0.5567390000000  0.5107170000000  0.5503890000000 1.0
C      1  0.4588670000000  0.5473880000000  0.5513720000000 1.0
C      1  0.4887180000000  0.4564490000000  0.5259870000000 1.0
C      1  0.5371110000000  0.4698460000000  0.5603160000000 1.0
C      1  0.5030070000000  0.5542460000000  0.5642510000000 1.0
C      1  0.4609870000000  0.4787220000000  0.5641680000000 1.0
C      1  0.4838720000000  0.4214200000000  0.4931450000000 1.0
C      1  0.5747480000000  0.5235450000000  0.4948430000000 1.0
C      1  0.4411650000000  0.5543890000000  0.4942080000000 1.0
C      1  0.5187880000000  0.4820680000000  0.4923630000000 1.0
C      1  0.5051620000000  0.5191540000000  0.4744980000000 1.0
C      1  0.4744380000000  0.4904690000000  0.4907380000000 1.0
C      1  0.5276540000000  0.4305040000000  0.5215670000000 1.0
C      1  0.5443710000000  0.5546330000000  0.5250660000000 1.0
C      1  0.4305120000000  0.5122880000000  0.5251220000000 1.0
C      1  0.4472030000000  0.4679090000000  0.5407870000000 1.0
C      1  0.5549190000000  0.4661220000000  0.5377340000000 1.0
C      1  0.4992450000000  0.5684790000000  0.5397980000000 1.0
C      1  0.4822660000000  0.5758250000000  0.4861980000000 1.0
C      1  0.4445310000000  0.4473560000000  0.4865720000000 1.0
C      1  0.5742650000000  0.4771730000000  0.4858440000000 1.0
C      1  0.4470700000000  0.5537930000000  0.4662540000000 1.0
C      1  0.4806820000000  0.4274360000000  0.4653040000000 1.0
C      1  0.5718690000000  0.5191360000000  0.4667160000000 1.0
C      1  0.5678410000000  0.4912380000000  0.5323550000000 1.0
C      1  0.4711560000000  0.5660880000000  0.5328380000000 1.0
C      1  0.4624430000000  0.4469490000000  0.5301360000000 1.0
C      1  0.5496510000000  0.4392540000000  0.4698880000000 1.0
C      1  0.5275770000000  0.5721350000000  0.4718890000000 1.0
C      1  0.4237300000000  0.4881800000000  0.4727890000000 1.0
C      1  0.4575350000000  0.4443430000000  0.4607460000000 1.0
C      1  0.5692920000000  0.4912270000000  0.4608090000000 1.0
C      1  0.4726930000000  0.5656230000000  0.4604440000000 1.0
C      1  0.5413410000000  0.4960330000000  0.5695300000000 1.0
C      1  0.4780470000000  0.5433120000000  0.5722230000000 1.0
C      1  0.4970840000000  0.5072740000000  0.5380850000000 1.0
C      1  0.5101100000000  0.5769910000000  0.4935790000000 1.0
C      1  0.4297060000000  0.4708570000000  0.4945330000000 1.0
C      1  0.5629150000000  0.4515610000000  0.4916330000000 1.0
C      1  0.4892820000000  0.4746340000000  0.5739600000000 1.0
C      1  0.5218410000000  0.5119550000000  0.5811890000000 1.0
C      1  0.4752140000000  0.5178080000000  0.5830600000000 1.0
C      1  0.5448760000000  0.4535110000000  0.4456780000000 1.0
C      1  0.5180500000000  0.5620160000000  0.4468930000000 1.0
C      1  0.4371320000000  0.4851590000000  0.4476140000000 1.0
C      1  0.5610000000000  0.5486020000000  0.5020680000000 1.0
C      1  0.4265690000000  0.5296890000000  0.5019330000000 1.0
C      1  0.5131290000000  0.4195200000000  0.4988870000000 1.0
C      1  0.5109710000000  0.4589060000000  0.5622290000000 1.0
C      1  0.5252290000000  0.5382760000000  0.5686780000000 1.0
C      1  0.4536010000000  0.5052590000000  0.5694040000000 1.0
C      1  0.4926340000000  0.5288250000000  0.4271210000000 1.0
C      1  0.4790450000000  0.4803140000000  0.4278670000000 1.0
C      1  0.5278710000000  0.4929540000000  0.4270920000000 1.0
C      1  0.4966910000000  0.5000720000000  0.5865230000000 1.0
C      1  0.5005170000000  0.5187810000000  0.5156010000000 1.0
END
