TITL C-42639-8033-5 -0.0463223142752404 125000 -592.054735453567 0 0 86 (C1) n - 1
REM
REM in /rds/project/t2_vol4/rds-t2-cs072/BORA/CARBON/from-Arr/AIRSS/Generating-Clusters/GAP-ML-2020/Higher-Symm/SD-CG/HFTN-CG
REM
REM
REM
REM
REM
REM ./C.cell (b20cbc046b6831c77cfcea5457e17084)
REM AIRSS Version 0.9.1 bugfix July 2018 build 013d7b7c2542+ Fri, 06 Jul 2018 19:26:36 +0100
REM compiler GCC version 9.3.0
REM options -cpp -mtune=generic -march=x86-64 -g -O0
REM seed -335553778 -253258108 -1007652556 -1923577337 -1951188677 -1377824406 -1668915924 -1334576285 911582701 -498955102 -1193383495 824675448 753253129 -914242108 -416859978 7025908 1064378703 -765210657 -2105062000 -884703280 -268269098 -1174411629 -84663005 -946545058 -586545866 295823399 -1460644358 -2056189865 2134925694 2127527012 534394796 119141849 -1921186411
REM
CELL 1.54180   50.00000   50.00000   50.00000   90.00000   90.00000   90.00000
LATT -1
SFAC C  
C      1  0.5495630000000  0.5110590000000  0.4342620000000 1.0
C      1  0.5474450000000  0.4515250000000  0.4529210000000 1.0
C      1  0.5479220000000  0.4341260000000  0.5048160000000 1.0
C      1  0.5490580000000  0.4633530000000  0.5515970000000 1.0
C      1  0.5459300000000  0.5164230000000  0.5544070000000 1.0
C      1  0.5493270000000  0.5591170000000  0.5225110000000 1.0
C      1  0.5494970000000  0.5549640000000  0.4665210000000 1.0
C      1  0.4173370000000  0.4779690000000  0.4771570000000 1.0
C      1  0.4167600000000  0.4689870000000  0.5047710000000 1.0
C      1  0.4173720000000  0.4815400000000  0.5307330000000 1.0
C      1  0.4158580000000  0.5118270000000  0.5353380000000 1.0
C      1  0.4163810000000  0.5286640000000  0.5120450000000 1.0
C      1  0.4175030000000  0.5271590000000  0.4831300000000 1.0
C      1  0.4196820000000  0.5042140000000  0.4650610000000 1.0
C      1  0.4323480000000  0.4442950000000  0.4972850000000 1.0
C      1  0.4300180000000  0.4642520000000  0.5487910000000 1.0
C      1  0.4274760000000  0.5238380000000  0.5580210000000 1.0
C      1  0.4326990000000  0.5534860000000  0.5116060000000 1.0
C      1  0.4324720000000  0.5532560000000  0.4815950000000 1.0
C      1  0.4343300000000  0.5051760000000  0.4409060000000 1.0
C      1  0.4323650000000  0.4539790000000  0.4689240000000 1.0
C      1  0.4554840000000  0.5058750000000  0.4264850000000 1.0
C      1  0.4522390000000  0.4473960000000  0.4516160000000 1.0
C      1  0.4537220000000  0.4302840000000  0.5071600000000 1.0
C      1  0.4492660000000  0.4537750000000  0.5621720000000 1.0
C      1  0.4477660000000  0.5291690000000  0.5733940000000 1.0
C      1  0.4528150000000  0.5632540000000  0.5261890000000 1.0
C      1  0.4526410000000  0.5665140000000  0.4679390000000 1.0
C      1  0.5595940000000  0.4501960000000  0.5271600000000 1.0
C      1  0.5601330000000  0.4905800000000  0.5521530000000 1.0
C      1  0.5600660000000  0.5366550000000  0.5381640000000 1.0
C      1  0.5600600000000  0.5551100000000  0.4944380000000 1.0
C      1  0.5601960000000  0.5306530000000  0.4526870000000 1.0
C      1  0.5534200000000  0.4825760000000  0.4482770000000 1.0
C      1  0.5584230000000  0.4458910000000  0.4792520000000 1.0
C      1  0.5074600000000  0.4874270000000  0.4311210000000 1.0
C      1  0.5014180000000  0.4292540000000  0.4606070000000 1.0
C      1  0.5010680000000  0.4249950000000  0.5263270000000 1.0
C      1  0.4976270000000  0.4760910000000  0.5729170000000 1.0
C      1  0.4984490000000  0.5442430000000  0.5685780000000 1.0
C      1  0.5033750000000  0.5763840000000  0.5082760000000 1.0
C      1  0.5022940000000  0.5535160000000  0.4438530000000 1.0
C      1  0.5003840000000  0.4415750000000  0.5483790000000 1.0
C      1  0.4954130000000  0.5034010000000  0.5796820000000 1.0
C      1  0.5010080000000  0.5624740000000  0.5475320000000 1.0
C      1  0.5043280000000  0.5730660000000  0.4810770000000 1.0
C      1  0.5029870000000  0.5303920000000  0.4278450000000 1.0
C      1  0.5020000000000  0.4594930000000  0.4320730000000 1.0
C      1  0.5014600000000  0.4178680000000  0.4860590000000 1.0
C      1  0.4844680000000  0.4762820000000  0.4780500000000 1.0
C      1  0.4699950000000  0.4741640000000  0.5028900000000 1.0
C      1  0.4829970000000  0.4801450000000  0.5300340000000 1.0
C      1  0.4703170000000  0.5089250000000  0.5250750000000 1.0
C      1  0.4845220000000  0.5307420000000  0.5115800000000 1.0
C      1  0.4768260000000  0.5302770000000  0.4829010000000 1.0
C      1  0.4857920000000  0.5075510000000  0.4675150000000 1.0
C      1  0.4792750000000  0.4216050000000  0.5059790000000 1.0
C      1  0.4773260000000  0.4600670000000  0.5555800000000 1.0
C      1  0.4757100000000  0.5263370000000  0.5765820000000 1.0
C      1  0.4806450000000  0.5618590000000  0.5244250000000 1.0
C      1  0.4806830000000  0.5579620000000  0.4668690000000 1.0
C      1  0.4837710000000  0.5077880000000  0.4359440000000 1.0
C      1  0.4803230000000  0.4519950000000  0.4534340000000 1.0
C      1  0.5193390000000  0.5120980000000  0.5412550000000 1.0
C      1  0.5131860000000  0.5267750000000  0.5163420000000 1.0
C      1  0.5151340000000  0.5125640000000  0.4701010000000 1.0
C      1  0.5242470000000  0.4866720000000  0.4574850000000 1.0
C      1  0.5128080000000  0.4706890000000  0.4826090000000 1.0
C      1  0.5231360000000  0.4842160000000  0.5047680000000 1.0
C      1  0.5119960000000  0.4837760000000  0.5323150000000 1.0
C      1  0.5770540000000  0.5170220000000  0.4711790000000 1.0
C      1  0.5744410000000  0.4884450000000  0.4676200000000 1.0
C      1  0.5763500000000  0.4669340000000  0.4865210000000 1.0
C      1  0.5779440000000  0.4690530000000  0.5152610000000 1.0
C      1  0.5781210000000  0.4937770000000  0.5306350000000 1.0
C      1  0.5780600000000  0.5215980000000  0.5223620000000 1.0
C      1  0.5782160000000  0.5326580000000  0.4957250000000 1.0
C      1  0.5195690000000  0.4638360000000  0.5546840000000 1.0
C      1  0.5167760000000  0.5212490000000  0.5695310000000 1.0
C      1  0.5228630000000  0.5701190000000  0.5292450000000 1.0
C      1  0.5232600000000  0.5652380000000  0.4605550000000 1.0
C      1  0.5238420000000  0.5119750000000  0.4224860000000 1.0
C      1  0.5216540000000  0.4414140000000  0.4446010000000 1.0
C      1  0.5222940000000  0.4217260000000  0.5064720000000 1.0
C      1  0.4530280000000  0.4975840000000  0.5053840000000 1.0
C      1  0.5244130000000  0.5108980000000  0.4964860000000 1.0
END
