TITL C-42656-9632-6 -0.00393322006749856 125000 -499.267033112397 0 0 74 (C1) n - 1
REM
REM in /rds/project/t2_vol4/rds-t2-cs072/BORA/CARBON/from-Arr/AIRSS/Generating-Clusters/GAP-ML-2020/Higher-Symm/SD-CG/HFTN-CG
REM
REM
REM
REM
REM
REM ./C.cell (b20cbc046b6831c77cfcea5457e17084)
REM AIRSS Version 0.9.1 bugfix July 2018 build 013d7b7c2542+ Fri, 06 Jul 2018 19:26:36 +0100
REM compiler GCC version 9.3.0
REM options -cpp -mtune=generic -march=x86-64 -g -O0
REM seed 1388635794 -196814691 245360432 -1260697059 1533886790 1469185778 478122526 1315893743 -1685590495 -951317948 -119647832 1960470880 880359004 -1677642418 -1181298558 -1901354300 1105441290 2020407763 897590526 -556392047 -1375544730 1791378992 -2138387924 1481625940 -1466222860 -680499506 -1907455621 -1762762331 -856609895 1801427999 -580655020 1641395899 -1893931680
REM
CELL 1.54180   50.00000   50.00000   50.00000   90.00000   90.00000   90.00000
LATT -1
SFAC C  
C      1  0.5404650000000  0.4349030000000  0.4755220000000 1.0
C      1  0.5042810000000  0.4349340000000  0.4533240000000 1.0
C      1  0.4580270000000  0.4365650000000  0.4624890000000 1.0
C      1  0.4518640000000  0.4503830000000  0.5053360000000 1.0
C      1  0.4741610000000  0.4579820000000  0.5436820000000 1.0
C      1  0.5184160000000  0.4522120000000  0.5454660000000 1.0
C      1  0.5529790000000  0.4385510000000  0.5213460000000 1.0
C      1  0.4164270000000  0.4630130000000  0.4749030000000 1.0
C      1  0.4264080000000  0.4628030000000  0.5481780000000 1.0
C      1  0.4925740000000  0.4680050000000  0.5874970000000 1.0
C      1  0.5607930000000  0.4682170000000  0.5634770000000 1.0
C      1  0.5817750000000  0.4619610000000  0.4919480000000 1.0
C      1  0.5435000000000  0.4596960000000  0.4301050000000 1.0
C      1  0.4725460000000  0.4665020000000  0.4271800000000 1.0
C      1  0.5487780000000  0.5145800000000  0.5499760000000 1.0
C      1  0.5809520000000  0.5095320000000  0.5070910000000 1.0
C      1  0.5507010000000  0.5108450000000  0.4340130000000 1.0
C      1  0.4652050000000  0.5170990000000  0.4349850000000 1.0
C      1  0.4286020000000  0.5098360000000  0.4818000000000 1.0
C      1  0.4401950000000  0.5086510000000  0.5394110000000 1.0
C      1  0.4920620000000  0.5136180000000  0.5686990000000 1.0
C      1  0.4379390000000  0.4454410000000  0.4805360000000 1.0
C      1  0.4478290000000  0.4509390000000  0.5342880000000 1.0
C      1  0.4949970000000  0.4535790000000  0.5630670000000 1.0
C      1  0.5468860000000  0.4490220000000  0.5468310000000 1.0
C      1  0.5611820000000  0.4421480000000  0.4951210000000 1.0
C      1  0.5326580000000  0.4409270000000  0.4470960000000 1.0
C      1  0.4774120000000  0.4425290000000  0.4440360000000 1.0
C      1  0.4697960000000  0.4917610000000  0.4267210000000 1.0
C      1  0.4123820000000  0.4883520000000  0.4758160000000 1.0
C      1  0.4248120000000  0.4884390000000  0.5500910000000 1.0
C      1  0.4907310000000  0.4937400000000  0.5873320000000 1.0
C      1  0.5609790000000  0.4939580000000  0.5633300000000 1.0
C      1  0.5880390000000  0.4866160000000  0.4971470000000 1.0
C      1  0.5481110000000  0.4852800000000  0.4296210000000 1.0
C      1  0.4779870000000  0.4799040000000  0.4745480000000 1.0
C      1  0.4763970000000  0.4626880000000  0.4984880000000 1.0
C      1  0.4852340000000  0.4770910000000  0.5241510000000 1.0
C      1  0.5122660000000  0.4631950000000  0.5197370000000 1.0
C      1  0.5305060000000  0.4808850000000  0.5043890000000 1.0
C      1  0.5278190000000  0.4828960000000  0.4766760000000 1.0
C      1  0.5032920000000  0.4832280000000  0.4618430000000 1.0
C      1  0.5306850000000  0.5623770000000  0.5243360000000 1.0
C      1  0.5577110000000  0.5594220000000  0.4872460000000 1.0
C      1  0.5171800000000  0.5645800000000  0.4639400000000 1.0
C      1  0.4762650000000  0.5639330000000  0.4683780000000 1.0
C      1  0.4305270000000  0.5613300000000  0.4876760000000 1.0
C      1  0.4417100000000  0.5598280000000  0.5361420000000 1.0
C      1  0.4913970000000  0.5610330000000  0.5375150000000 1.0
C      1  0.5436950000000  0.5546110000000  0.4639190000000 1.0
C      1  0.4943810000000  0.5562740000000  0.4474500000000 1.0
C      1  0.4507190000000  0.5516620000000  0.4715440000000 1.0
C      1  0.4308820000000  0.5497140000000  0.5128040000000 1.0
C      1  0.4662170000000  0.5493840000000  0.5435190000000 1.0
C      1  0.5166060000000  0.5507420000000  0.5468820000000 1.0
C      1  0.5537280000000  0.5512770000000  0.5127610000000 1.0
C      1  0.4506580000000  0.5225590000000  0.4628540000000 1.0
C      1  0.4382590000000  0.5193070000000  0.5101010000000 1.0
C      1  0.4689500000000  0.5199470000000  0.5494490000000 1.0
C      1  0.5194330000000  0.5227700000000  0.5528650000000 1.0
C      1  0.5569840000000  0.5214810000000  0.5199860000000 1.0
C      1  0.5443970000000  0.5267580000000  0.4549840000000 1.0
C      1  0.4914740000000  0.5294580000000  0.4397100000000 1.0
C      1  0.4734480000000  0.5094100000000  0.4781040000000 1.0
C      1  0.4670610000000  0.5182340000000  0.5043460000000 1.0
C      1  0.4834300000000  0.5079030000000  0.5253240000000 1.0
C      1  0.5104150000000  0.5173200000000  0.5252700000000 1.0
C      1  0.5309340000000  0.5109710000000  0.5067010000000 1.0
C      1  0.5273130000000  0.5142110000000  0.4756400000000 1.0
C      1  0.5002130000000  0.5137020000000  0.4630630000000 1.0
C      1  0.5122140000000  0.4307470000000  0.4811200000000 1.0
C      1  0.5052120000000  0.5717650000000  0.5134740000000 1.0
C      1  0.4992190000000  0.5726610000000  0.4854240000000 1.0
C      1  0.4991640000000  0.4430650000000  0.5016100000000 1.0
END
