TITL C-42645-8145-3 -72.2555839402857 125000 -743.847456191624 0 0 104 (D3) n - 1
REM
REM in /rds/project/t2_vol4/rds-t2-cs072/BORA/CARBON/from-Arr/AIRSS/Generating-Clusters/GAP-ML-2020/Higher-Symm/SD-CG/HFTN-CG
REM
REM
REM
REM
REM
REM ./C.cell (b20cbc046b6831c77cfcea5457e17084)
REM AIRSS Version 0.9.1 bugfix July 2018 build 013d7b7c2542+ Fri, 06 Jul 2018 19:26:36 +0100
REM compiler GCC version 9.3.0
REM options -cpp -mtune=generic -march=x86-64 -g -O0
REM seed -423787662 -604039618 -461490461 -792672097 -333908129 957333497 -1377010350 -1799109052 1287653785 299161839 -1568756223 953976314 -1168245407 1734826704 622844934 2115520938 -723545457 469237197 1049071777 1500637037 1103383045 -71216364 553074650 1375755899 -1355331217 -1829063130 455314680 -677367470 -1937258081 -216144908 587215142 -1987286906 449945705
REM
CELL 1.54180   50.00000   50.00000   50.00000   90.00000   90.00000   90.00000
LATT -1
SFAC C  
C      1  0.4668240000000  0.4416160000000  0.4429020000000 1.0
C      1  0.5672550000000  0.5007100000000  0.4429110000000 1.0
C      1  0.4658630000000  0.5581380000000  0.4429090000000 1.0
C      1  0.5331470000000  0.4416180000000  0.5562140000000 1.0
C      1  0.4327010000000  0.5006860000000  0.5562120000000 1.0
C      1  0.5340780000000  0.5581410000000  0.5562210000000 1.0
C      1  0.5347920000000  0.4647690000000  0.4906210000000 1.0
C      1  0.5132140000000  0.5479930000000  0.4906250000000 1.0
C      1  0.4519290000000  0.4876940000000  0.4906190000000 1.0
C      1  0.4651730000000  0.4647590000000  0.5084980000000 1.0
C      1  0.4867290000000  0.5479880000000  0.5085030000000 1.0
C      1  0.5480300000000  0.4877060000000  0.5085030000000 1.0
C      1  0.5207640000000  0.5701750000000  0.5330090000000 1.0
C      1  0.4289390000000  0.4831390000000  0.5329990000000 1.0
C      1  0.5502270000000  0.4471340000000  0.5330030000000 1.0
C      1  0.4791740000000  0.5701740000000  0.4661220000000 1.0
C      1  0.5710220000000  0.4831610000000  0.4661220000000 1.0
C      1  0.4497430000000  0.4471250000000  0.4661140000000 1.0
C      1  0.4127900000000  0.5124240000000  0.4849510000000 1.0
C      1  0.5329460000000  0.4185090000000  0.4849510000000 1.0
C      1  0.5542010000000  0.5695240000000  0.4849610000000 1.0
C      1  0.5871630000000  0.5124450000000  0.5141740000000 1.0
C      1  0.4670320000000  0.4184980000000  0.5141620000000 1.0
C      1  0.4457370000000  0.5695080000000  0.5141700000000 1.0
C      1  0.5259850000000  0.5080240000000  0.5130860000000 1.0
C      1  0.4801550000000  0.5187380000000  0.5130840000000 1.0
C      1  0.4937920000000  0.4736900000000  0.5130820000000 1.0
C      1  0.4739690000000  0.5080180000000  0.4860380000000 1.0
C      1  0.5197960000000  0.5187440000000  0.4860410000000 1.0
C      1  0.5061710000000  0.4736940000000  0.4860370000000 1.0
C      1  0.5354220000000  0.4615800000000  0.5753150000000 1.0
C      1  0.5156510000000  0.5501290000000  0.5753190000000 1.0
C      1  0.4488500000000  0.4887320000000  0.5753130000000 1.0
C      1  0.4645440000000  0.4615790000000  0.4238030000000 1.0
C      1  0.4842920000000  0.5501340000000  0.4238100000000 1.0
C      1  0.5511090000000  0.4887540000000  0.4238090000000 1.0
C      1  0.5278370000000  0.4963010000000  0.4089600000000 1.0
C      1  0.4893950000000  0.5262080000000  0.4089590000000 1.0
C      1  0.4827160000000  0.4779620000000  0.4089560000000 1.0
C      1  0.4721200000000  0.4962830000000  0.5901630000000 1.0
C      1  0.5105550000000  0.5262000000000  0.5901670000000 1.0
C      1  0.5172460000000  0.4779560000000  0.5901640000000 1.0
C      1  0.4900780000000  0.4269120000000  0.4485320000000 1.0
C      1  0.5683610000000  0.5282000000000  0.4485420000000 1.0
C      1  0.4415020000000  0.5453510000000  0.4485370000000 1.0
C      1  0.5098970000000  0.4269090000000  0.5505820000000 1.0
C      1  0.4315880000000  0.5281760000000  0.5505840000000 1.0
C      1  0.5584420000000  0.5453600000000  0.5505910000000 1.0
C      1  0.4908760000000  0.5663820000000  0.5355200000000 1.0
C      1  0.4471670000000  0.4591520000000  0.5355120000000 1.0
C      1  0.5618850000000  0.4749140000000  0.5355180000000 1.0
C      1  0.5090630000000  0.5663890000000  0.4636110000000 1.0
C      1  0.5527990000000  0.4591700000000  0.4636070000000 1.0
C      1  0.4380770000000  0.4749020000000  0.4636020000000 1.0
C      1  0.4706840000000  0.5439850000000  0.5751040000000 1.0
C      1  0.4766550000000  0.4528620000000  0.5750990000000 1.0
C      1  0.5525840000000  0.5035940000000  0.5751050000000 1.0
C      1  0.5292610000000  0.5440010000000  0.4240240000000 1.0
C      1  0.5233130000000  0.4528770000000  0.4240190000000 1.0
C      1  0.4473710000000  0.5035890000000  0.4240180000000 1.0
C      1  0.5173030000000  0.4316690000000  0.4413330000000 1.0
C      1  0.5506300000000  0.5493990000000  0.4413410000000 1.0
C      1  0.4320100000000  0.5193960000000  0.4413340000000 1.0
C      1  0.4826710000000  0.4316580000000  0.5577820000000 1.0
C      1  0.4493130000000  0.5493780000000  0.5577880000000 1.0
C      1  0.5679410000000  0.5194070000000  0.5577920000000 1.0
C      1  0.4940070000000  0.4077400000000  0.5121310000000 1.0
C      1  0.5829920000000  0.5411850000000  0.5121430000000 1.0
C      1  0.4229330000000  0.5515270000000  0.5121360000000 1.0
C      1  0.5059740000000  0.4077430000000  0.4869810000000 1.0
C      1  0.4169530000000  0.5411650000000  0.4869850000000 1.0
C      1  0.5770090000000  0.5515480000000  0.4869930000000 1.0
C      1  0.4264150000000  0.5004920000000  0.5091040000000 1.0
C      1  0.5364640000000  0.4362730000000  0.5091050000000 1.0
C      1  0.5370540000000  0.5636880000000  0.5091130000000 1.0
C      1  0.5735410000000  0.5005120000000  0.4900190000000 1.0
C      1  0.4635090000000  0.4362640000000  0.4900100000000 1.0
C      1  0.4628850000000  0.5636790000000  0.4900180000000 1.0
C      1  0.5278690000000  0.5044710000000  0.5896800000000 1.0
C      1  0.4822800000000  0.5221420000000  0.5896790000000 1.0
C      1  0.4897720000000  0.4738250000000  0.5896760000000 1.0
C      1  0.4720860000000  0.5044750000000  0.4094440000000 1.0
C      1  0.5176700000000  0.5221570000000  0.4094470000000 1.0
C      1  0.5101910000000  0.4738380000000  0.4094440000000 1.0
C      1  0.4375530000000  0.5539230000000  0.4742460000000 1.0
C      1  0.4846260000000  0.4192050000000  0.4742400000000 1.0
C      1  0.5777590000000  0.5273300000000  0.4742510000000 1.0
C      1  0.5623890000000  0.5539360000000  0.5248830000000 1.0
C      1  0.5153510000000  0.4192060000000  0.5248730000000 1.0
C      1  0.4221900000000  0.5273070000000  0.5248750000000 1.0
C      1  0.4201130000000  0.5015330000000  0.4609350000000 1.0
C      1  0.5387180000000  0.4302970000000  0.4609370000000 1.0
C      1  0.5411080000000  0.5686310000000  0.4609450000000 1.0
C      1  0.5798430000000  0.5015500000000  0.5381880000000 1.0
C      1  0.4612560000000  0.4302820000000  0.5381780000000 1.0
C      1  0.4588300000000  0.5686150000000  0.5381860000000 1.0
C      1  0.5082290000000  0.5592030000000  0.4343920000000 1.0
C      1  0.4447200000000  0.4777740000000  0.4343840000000 1.0
C      1  0.5469940000000  0.4634880000000  0.4343880000000 1.0
C      1  0.4917110000000  0.5591930000000  0.5647380000000 1.0
C      1  0.5552420000000  0.4777810000000  0.5647360000000 1.0
C      1  0.4529720000000  0.4634680000000  0.5647310000000 1.0
C      1  0.4999790000000  0.5001530000000  0.4704500000000 1.0
C      1  0.4999770000000  0.5001500000000  0.5286730000000 1.0
END
