TITL C-42658-8836-3 -0.0698014811686083 125000 -240.923387142241 0 0 35 (C3) n - 1
REM
REM in /rds/project/t2_vol4/rds-t2-cs072/BORA/CARBON/from-Arr/AIRSS/Generating-Clusters/GAP-ML-2020/Higher-Symm/SD-CG/HFTN-CG
REM
REM
REM
REM
REM
REM ./C.cell (b20cbc046b6831c77cfcea5457e17084)
REM AIRSS Version 0.9.1 bugfix July 2018 build 013d7b7c2542+ Fri, 06 Jul 2018 19:26:36 +0100
REM compiler GCC version 9.3.0
REM options -cpp -mtune=generic -march=x86-64 -g -O0
REM seed 384582291 -1371280145 748027393 270964312 1616771743 -1180282322 -1584255059 953763591 2070119977 820109412 1048615118 1650038488 1333591470 -481006600 1301431577 213742325 323931843 -1924699281 1447166894 -209093804 -1355838333 -1152454237 125709959 -445930570 -849034391 -1043100685 1183313983 1549324890 -1824698910 -1921496930 -1546264907 21021451 -1291864102
REM
CELL 1.54180   50.00000   50.00000   50.00000   90.00000   90.00000   90.00000
LATT -1
SFAC C  
C      1  0.4933640000000  0.5302550000000  0.5397980000000 1.0
C      1  0.5388360000000  0.5302810000000  0.4867920000000 1.0
C      1  0.4701950000000  0.5302910000000  0.4739150000000 1.0
C      1  0.5581260000000  0.4616550000000  0.5338200000000 1.0
C      1  0.5013040000000  0.4617100000000  0.4336380000000 1.0
C      1  0.4429550000000  0.4616600000000  0.5329370000000 1.0
C      1  0.5382410000000  0.5327120000000  0.5166620000000 1.0
C      1  0.4963600000000  0.5327440000000  0.4594960000000 1.0
C      1  0.4677940000000  0.5327110000000  0.5243500000000 1.0
C      1  0.5182010000000  0.4719870000000  0.4533280000000 1.0
C      1  0.4515550000000  0.4719610000000  0.5084690000000 1.0
C      1  0.5326310000000  0.4719410000000  0.5386150000000 1.0
C      1  0.4570600000000  0.5052370000000  0.4763770000000 1.0
C      1  0.5020730000000  0.5051960000000  0.5499210000000 1.0
C      1  0.5432580000000  0.5052340000000  0.4741670000000 1.0
C      1  0.5600860000000  0.4721110000000  0.5100560000000 1.0
C      1  0.4797400000000  0.4721500000000  0.4438310000000 1.0
C      1  0.4625600000000  0.4720960000000  0.5465250000000 1.0
C      1  0.4469010000000  0.5159530000000  0.5234490000000 1.0
C      1  0.5479140000000  0.5159430000000  0.5351930000000 1.0
C      1  0.5075780000000  0.5159940000000  0.4418400000000 1.0
C      1  0.5155380000000  0.5451980000000  0.4773760000000 1.0
C      1  0.4736840000000  0.5451880000000  0.4988110000000 1.0
C      1  0.5131740000000  0.5451730000000  0.5243400000000 1.0
C      1  0.4446930000000  0.4989690000000  0.5020010000000 1.0
C      1  0.5304500000000  0.4989410000000  0.5478140000000 1.0
C      1  0.5272470000000  0.4989920000000  0.4506390000000 1.0
C      1  0.4886780000000  0.4798290000000  0.5449060000000 1.0
C      1  0.5456220000000  0.4798560000000  0.4882530000000 1.0
C      1  0.4680870000000  0.4798710000000  0.4672650000000 1.0
C      1  0.5217630000000  0.4643700000000  0.4806450000000 1.0
C      1  0.4734340000000  0.4643660000000  0.4917190000000 1.0
C      1  0.5071880000000  0.4643460000000  0.5280360000000 1.0
C      1  0.5007990000000  0.5532200000000  0.5001800000000 1.0
C      1  0.5007950000000  0.4591950000000  0.5001300000000 1.0
END
