TITL C-4386-9446-2 0.0381735419390174 125000 -1374.77411328187 0 0 197 (C1) n - 1
REM
REM in /rds/project/t2_vol4/rds-t2-cs072/BORA/CARBON/from-Arr/AIRSS/Generating-Clusters/GAP-ML-2020/Higher-Symm/SD-CG/HFTN-CG/C160-200
REM
REM
REM
REM
REM
REM ./C.cell (6b4489405718ea1b717e0baf1da4c2d9)
REM AIRSS Version 0.9.1 bugfix July 2018 build 013d7b7c2542+ Fri, 06 Jul 2018 19:26:36 +0100
REM compiler GCC version 9.3.0
REM options -cpp -mtune=generic -march=x86-64 -g -O0
REM seed 351139820 -1582244053 1716619673 1295310123 -789500384 -1428467520 2088176921 -1494887391 694754485 -2130408424 122123954 1007180533 -498541508 502449457 849845610 -263203291 1971710389 949114983 -1836374843 906687980 -1268222893 1509739943 -1661831264 2040513865 -1167901877 -557486482 272979534 -1346901041 -1957219455 240183684 -302222161 1553488475 -2069261287
REM
CELL 1.54180   50.00000   50.00000   50.00000   90.00000   90.00000   90.00000
LATT -1
SFAC C  
C      1  0.4787660000000  0.4359360000000  0.5175600000000 1.0
C      1  0.4822820000000  0.4968640000000  0.5682150000000 1.0
C      1  0.4798430000000  0.5658830000000  0.5258380000000 1.0
C      1  0.4809160000000  0.5445920000000  0.4421780000000 1.0
C      1  0.4790710000000  0.4617500000000  0.4414730000000 1.0
C      1  0.5703550000000  0.5828670000000  0.4914740000000 1.0
C      1  0.5674690000000  0.5206710000000  0.4102350000000 1.0
C      1  0.5727220000000  0.4171090000000  0.4551550000000 1.0
C      1  0.5551720000000  0.4226910000000  0.5613110000000 1.0
C      1  0.5522730000000  0.5348700000000  0.6019820000000 1.0
C      1  0.5542100000000  0.4977100000000  0.3993400000000 1.0
C      1  0.5570180000000  0.4020440000000  0.4717120000000 1.0
C      1  0.5485120000000  0.4436060000000  0.5802040000000 1.0
C      1  0.5453060000000  0.5733430000000  0.5752820000000 1.0
C      1  0.5573870000000  0.5879830000000  0.4670610000000 1.0
C      1  0.5757180000000  0.4672560000000  0.4352480000000 1.0
C      1  0.5716400000000  0.4265730000000  0.5089070000000 1.0
C      1  0.5718780000000  0.4731870000000  0.5695120000000 1.0
C      1  0.5713470000000  0.5726510000000  0.5395990000000 1.0
C      1  0.5831580000000  0.5434600000000  0.4547490000000 1.0
C      1  0.4849400000000  0.4402040000000  0.4655540000000 1.0
C      1  0.4830420000000  0.4532800000000  0.5436740000000 1.0
C      1  0.4867150000000  0.5275820000000  0.5614840000000 1.0
C      1  0.4848400000000  0.5700880000000  0.4925430000000 1.0
C      1  0.4828170000000  0.5141290000000  0.4310760000000 1.0
C      1  0.5032080000000  0.6027490000000  0.5565140000000 1.0
C      1  0.5104710000000  0.5832800000000  0.4228330000000 1.0
C      1  0.5050530000000  0.4548380000000  0.3976480000000 1.0
C      1  0.5075990000000  0.3922430000000  0.5143060000000 1.0
C      1  0.5067510000000  0.4819510000000  0.6131790000000 1.0
C      1  0.5023300000000  0.5740860000000  0.5892780000000 1.0
C      1  0.5066040000000  0.6105140000000  0.4608880000000 1.0
C      1  0.5018240000000  0.4986800000000  0.3786480000000 1.0
C      1  0.5059670000000  0.3863330000000  0.4664340000000 1.0
C      1  0.5045180000000  0.4415180000000  0.5979860000000 1.0
C      1  0.4702690000000  0.4332010000000  0.5667250000000 1.0
C      1  0.4693800000000  0.5426100000000  0.5871100000000 1.0
C      1  0.4668470000000  0.5980950000000  0.4864280000000 1.0
C      1  0.4649140000000  0.5164230000000  0.4052920000000 1.0
C      1  0.4685330000000  0.4138100000000  0.4536150000000 1.0
C      1  0.5823900000000  0.5060640000000  0.5221170000000 1.0
C      1  0.5857250000000  0.5135220000000  0.4941920000000 1.0
C      1  0.5952970000000  0.4913620000000  0.4756540000000 1.0
C      1  0.5966990000000  0.4691000000000  0.4946230000000 1.0
C      1  0.5849820000000  0.4772430000000  0.5207150000000 1.0
C      1  0.5037360000000  0.4203620000000  0.5167190000000 1.0
C      1  0.5091210000000  0.4872410000000  0.5825210000000 1.0
C      1  0.5056030000000  0.5762640000000  0.5408140000000 1.0
C      1  0.5045690000000  0.5561580000000  0.4283540000000 1.0
C      1  0.5038140000000  0.4599280000000  0.4261170000000 1.0
C      1  0.5512830000000  0.6188700000000  0.5583770000000 1.0
C      1  0.5561170000000  0.5706630000000  0.4181660000000 1.0
C      1  0.5536980000000  0.4492420000000  0.3912270000000 1.0
C      1  0.5572950000000  0.3822120000000  0.5184950000000 1.0
C      1  0.5549920000000  0.4757370000000  0.6155200000000 1.0
C      1  0.5317040000000  0.4960230000000  0.4463090000000 1.0
C      1  0.5327070000000  0.4520080000000  0.4873550000000 1.0
C      1  0.5359350000000  0.4781820000000  0.5400800000000 1.0
C      1  0.5371240000000  0.5338710000000  0.5357800000000 1.0
C      1  0.5324580000000  0.5498890000000  0.4805460000000 1.0
C      1  0.4896210000000  0.4773470000000  0.4947760000000 1.0
C      1  0.4907690000000  0.4913580000000  0.5201770000000 1.0
C      1  0.4905360000000  0.5202680000000  0.5152900000000 1.0
C      1  0.4884700000000  0.5244390000000  0.4865900000000 1.0
C      1  0.4880410000000  0.4979250000000  0.4739400000000 1.0
C      1  0.5587130000000  0.5553960000000  0.4957080000000 1.0
C      1  0.5542120000000  0.5131510000000  0.4548640000000 1.0
C      1  0.5550030000000  0.4663540000000  0.4747490000000 1.0
C      1  0.5579220000000  0.4651640000000  0.5259210000000 1.0
C      1  0.5656720000000  0.5192860000000  0.5437140000000 1.0
C      1  0.5456670000000  0.4411220000000  0.5128310000000 1.0
C      1  0.5526450000000  0.4963440000000  0.5608040000000 1.0
C      1  0.5473120000000  0.5606710000000  0.5238270000000 1.0
C      1  0.5421760000000  0.5422790000000  0.4535550000000 1.0
C      1  0.5456130000000  0.4678590000000  0.4455040000000 1.0
C      1  0.4755320000000  0.5367480000000  0.5342260000000 1.0
C      1  0.4781480000000  0.5477390000000  0.4740160000000 1.0
C      1  0.4731840000000  0.4912670000000  0.4501400000000 1.0
C      1  0.4747840000000  0.4523900000000  0.4918130000000 1.0
C      1  0.4742190000000  0.4821600000000  0.5426370000000 1.0
C      1  0.3939100000000  0.4538760000000  0.4862740000000 1.0
C      1  0.3938320000000  0.4732100000000  0.5378650000000 1.0
C      1  0.3937520000000  0.5273190000000  0.5392130000000 1.0
C      1  0.3977280000000  0.5394860000000  0.4877320000000 1.0
C      1  0.3946120000000  0.4961220000000  0.4546660000000 1.0
C      1  0.4902300000000  0.3947730000000  0.4455080000000 1.0
C      1  0.4927900000000  0.4215580000000  0.5838200000000 1.0
C      1  0.4910090000000  0.5543530000000  0.6042750000000 1.0
C      1  0.4892260000000  0.6176620000000  0.4817860000000 1.0
C      1  0.4824690000000  0.5189620000000  0.3794760000000 1.0
C      1  0.5510840000000  0.5437050000000  0.4091320000000 1.0
C      1  0.5216380000000  0.4220220000000  0.4175890000000 1.0
C      1  0.5303730000000  0.4063280000000  0.5511500000000 1.0
C      1  0.5304480000000  0.5187560000000  0.6096490000000 1.0
C      1  0.5192350000000  0.6125960000000  0.5208270000000 1.0
C      1  0.5248470000000  0.5810270000000  0.5182260000000 1.0
C      1  0.5261360000000  0.5381910000000  0.4275970000000 1.0
C      1  0.5253090000000  0.4451070000000  0.4395570000000 1.0
C      1  0.5251460000000  0.4312410000000  0.5327000000000 1.0
C      1  0.5297820000000  0.5093560000000  0.5782350000000 1.0
C      1  0.4106950000000  0.4496590000000  0.4475310000000 1.0
C      1  0.4136580000000  0.4372370000000  0.5282710000000 1.0
C      1  0.4120320000000  0.5072590000000  0.5706750000000 1.0
C      1  0.4126300000000  0.5665150000000  0.5152860000000 1.0
C      1  0.4174430000000  0.5300500000000  0.4436140000000 1.0
C      1  0.5285090000000  0.4046210000000  0.4669220000000 1.0
C      1  0.5205540000000  0.4564910000000  0.5783900000000 1.0
C      1  0.5186800000000  0.5635050000000  0.5666110000000 1.0
C      1  0.5291770000000  0.5951520000000  0.4713650000000 1.0
C      1  0.5248050000000  0.5021940000000  0.3966300000000 1.0
C      1  0.4313020000000  0.4902520000000  0.5822620000000 1.0
C      1  0.4295570000000  0.5739360000000  0.5362430000000 1.0
C      1  0.4312090000000  0.5539670000000  0.4417590000000 1.0
C      1  0.4281450000000  0.4576210000000  0.4263510000000 1.0
C      1  0.4312470000000  0.4192940000000  0.5153310000000 1.0
C      1  0.3944160000000  0.4552630000000  0.5140370000000 1.0
C      1  0.3945540000000  0.4991300000000  0.5476120000000 1.0
C      1  0.3947920000000  0.5427720000000  0.5163970000000 1.0
C      1  0.4086580000000  0.5179230000000  0.4716890000000 1.0
C      1  0.3937030000000  0.4696420000000  0.4613760000000 1.0
C      1  0.4991080000000  0.5282620000000  0.6137420000000 1.0
C      1  0.4934250000000  0.6195960000000  0.5101110000000 1.0
C      1  0.4734540000000  0.5454050000000  0.3770760000000 1.0
C      1  0.4955150000000  0.4096890000000  0.4214260000000 1.0
C      1  0.5010060000000  0.4039870000000  0.5630590000000 1.0
C      1  0.4508790000000  0.4034130000000  0.4756710000000 1.0
C      1  0.4516460000000  0.4486740000000  0.5839140000000 1.0
C      1  0.4499220000000  0.5631120000000  0.5768510000000 1.0
C      1  0.4496860000000  0.5922460000000  0.4630220000000 1.0
C      1  0.4471250000000  0.4922120000000  0.4010930000000 1.0
C      1  0.5253340000000  0.6183160000000  0.5488540000000 1.0
C      1  0.5354170000000  0.5871200000000  0.4119230000000 1.0
C      1  0.5290320000000  0.4380250000000  0.3937630000000 1.0
C      1  0.5328050000000  0.3866660000000  0.5289040000000 1.0
C      1  0.5329880000000  0.4903730000000  0.6204290000000 1.0
C      1  0.4897460000000  0.4595760000000  0.6133900000000 1.0
C      1  0.4864750000000  0.5944920000000  0.5780210000000 1.0
C      1  0.4920480000000  0.5991260000000  0.4383800000000 1.0
C      1  0.4885740000000  0.4732590000000  0.3842370000000 1.0
C      1  0.4924540000000  0.3838940000000  0.4919690000000 1.0
C      1  0.5186880000000  0.4992490000000  0.4721700000000 1.0
C      1  0.5202810000000  0.4775800000000  0.4922110000000 1.0
C      1  0.5218170000000  0.4904140000000  0.5186580000000 1.0
C      1  0.5223970000000  0.5189410000000  0.5158490000000 1.0
C      1  0.5198730000000  0.5251100000000  0.4877480000000 1.0
C      1  0.5182530000000  0.5329640000000  0.5612830000000 1.0
C      1  0.5165010000000  0.5746560000000  0.4898340000000 1.0
C      1  0.5149680000000  0.5101690000000  0.4243960000000 1.0
C      1  0.5174950000000  0.4342290000000  0.4664850000000 1.0
C      1  0.5154880000000  0.4548340000000  0.5491540000000 1.0
C      1  0.4623110000000  0.5862810000000  0.5664440000000 1.0
C      1  0.4652880000000  0.5887170000000  0.4390950000000 1.0
C      1  0.4628670000000  0.4695920000000  0.3961570000000 1.0
C      1  0.4664040000000  0.3937780000000  0.4971410000000 1.0
C      1  0.4647370000000  0.4661890000000  0.6025840000000 1.0
C      1  0.5796810000000  0.5173990000000  0.4379250000000 1.0
C      1  0.5831230000000  0.4416910000000  0.4537300000000 1.0
C      1  0.5755860000000  0.4301850000000  0.5418310000000 1.0
C      1  0.5623570000000  0.5506270000000  0.5822900000000 1.0
C      1  0.5825190000000  0.5852730000000  0.5156550000000 1.0
C      1  0.4519010000000  0.5230860000000  0.5273900000000 1.0
C      1  0.4339160000000  0.5065250000000  0.4833270000000 1.0
C      1  0.4499700000000  0.4885980000000  0.4667190000000 1.0
C      1  0.4510640000000  0.4682250000000  0.4883890000000 1.0
C      1  0.4501740000000  0.4954440000000  0.5300330000000 1.0
C      1  0.4679260000000  0.4219770000000  0.4239970000000 1.0
C      1  0.4724200000000  0.4072520000000  0.5503830000000 1.0
C      1  0.4712890000000  0.5188020000000  0.6061070000000 1.0
C      1  0.4664510000000  0.6072500000000  0.5154780000000 1.0
C      1  0.4592760000000  0.5467070000000  0.4007940000000 1.0
C      1  0.5803670000000  0.4587400000000  0.5455090000000 1.0
C      1  0.5752380000000  0.5457470000000  0.5571740000000 1.0
C      1  0.5812430000000  0.5394140000000  0.4834030000000 1.0
C      1  0.5902750000000  0.4906850000000  0.4468820000000 1.0
C      1  0.5815230000000  0.4480330000000  0.4832810000000 1.0
C      1  0.5676490000000  0.3990570000000  0.4991960000000 1.0
C      1  0.5662860000000  0.4609180000000  0.5949480000000 1.0
C      1  0.5595430000000  0.5922060000000  0.5594800000000 1.0
C      1  0.5635380000000  0.5647790000000  0.4471440000000 1.0
C      1  0.5657500000000  0.4703990000000  0.4045620000000 1.0
C      1  0.4598290000000  0.4941790000000  0.5929400000000 1.0
C      1  0.4567840000000  0.5869170000000  0.5357410000000 1.0
C      1  0.4569040000000  0.5603600000000  0.4274760000000 1.0
C      1  0.4568750000000  0.4496300000000  0.4195960000000 1.0
C      1  0.4594390000000  0.4108400000000  0.5222870000000 1.0
C      1  0.4289550000000  0.5722140000000  0.4638040000000 1.0
C      1  0.4245500000000  0.4848180000000  0.4166200000000 1.0
C      1  0.4280470000000  0.4163900000000  0.4868680000000 1.0
C      1  0.4291200000000  0.4628460000000  0.5737900000000 1.0
C      1  0.4267700000000  0.5586240000000  0.5608380000000 1.0
C      1  0.4106580000000  0.4337310000000  0.4726610000000 1.0
C      1  0.4128180000000  0.4550610000000  0.5518550000000 1.0
C      1  0.4105600000000  0.5354810000000  0.5618780000000 1.0
C      1  0.4137540000000  0.5642090000000  0.4860070000000 1.0
C      1  0.4095880000000  0.5046740000000  0.4310140000000 1.0
C      1  0.4379580000000  0.4877780000000  0.5058160000000 1.0
C      1  0.5655190000000  0.4961890000000  0.4768690000000 1.0
END
