TITL C-4389-9628-3 -0.0283154686998426 125000 -1269.48405335938 0 0 180 (C1) n - 1
REM
REM in /rds/project/t2_vol4/rds-t2-cs072/BORA/CARBON/from-Arr/AIRSS/Generating-Clusters/GAP-ML-2020/Higher-Symm/SD-CG/HFTN-CG/C160-200
REM
REM
REM
REM
REM
REM ./C.cell (6b4489405718ea1b717e0baf1da4c2d9)
REM AIRSS Version 0.9.1 bugfix July 2018 build 013d7b7c2542+ Fri, 06 Jul 2018 19:26:36 +0100
REM compiler GCC version 9.3.0
REM options -cpp -mtune=generic -march=x86-64 -g -O0
REM seed 1744918631 923452500 322110994 -512260222 438502901 1218056440 106316999 -535018559 -192052167 473588908 2023796265 -1249253664 750975640 689721905 -151994437 1604596759 -1576710675 1241641010 -411960654 158810232 -1125881629 -854616856 -966886957 365328916 -1041095123 1689980881 -431663070 -202245798 -660235363 -1628376978 -848328392 -451461356 -2144668394
REM
CELL 1.54180   50.00000   50.00000   50.00000   90.00000   90.00000   90.00000
LATT -1
SFAC C  
C      1  0.5097470000000  0.5246320000000  0.4614040000000 1.0
C      1  0.3928580000000  0.4947310000000  0.4587150000000 1.0
C      1  0.5870760000000  0.5361400000000  0.4575720000000 1.0
C      1  0.5331750000000  0.4704650000000  0.4896630000000 1.0
C      1  0.4166990000000  0.4503080000000  0.5347070000000 1.0
C      1  0.4967510000000  0.5529980000000  0.5965420000000 1.0
C      1  0.5222500000000  0.4991740000000  0.4513460000000 1.0
C      1  0.4326850000000  0.4641190000000  0.4510860000000 1.0
C      1  0.4805270000000  0.4367690000000  0.4609670000000 1.0
C      1  0.4838380000000  0.5761700000000  0.5915610000000 1.0
C      1  0.5640130000000  0.5079170000000  0.4254240000000 1.0
C      1  0.4704630000000  0.4684880000000  0.6104050000000 1.0
C      1  0.5936350000000  0.4633280000000  0.4747990000000 1.0
C      1  0.4920900000000  0.5286650000000  0.4081510000000 1.0
C      1  0.5050860000000  0.3993830000000  0.5313830000000 1.0
C      1  0.5875650000000  0.4500570000000  0.5483740000000 1.0
C      1  0.5775040000000  0.4440930000000  0.4614190000000 1.0
C      1  0.4104930000000  0.4652720000000  0.5570770000000 1.0
C      1  0.5777550000000  0.4848450000000  0.4362470000000 1.0
C      1  0.4758910000000  0.3851070000000  0.4913310000000 1.0
C      1  0.3963900000000  0.5222440000000  0.4543780000000 1.0
C      1  0.4054840000000  0.4625680000000  0.5110530000000 1.0
C      1  0.4798060000000  0.5298500000000  0.5919790000000 1.0
C      1  0.5298480000000  0.3951070000000  0.5150790000000 1.0
C      1  0.4396350000000  0.5020430000000  0.5838480000000 1.0
C      1  0.4222320000000  0.5640380000000  0.5552400000000 1.0
C      1  0.4921660000000  0.4147180000000  0.5771980000000 1.0
C      1  0.5293480000000  0.4711950000000  0.5401370000000 1.0
C      1  0.5271120000000  0.5992660000000  0.4534940000000 1.0
C      1  0.4517830000000  0.4850210000000  0.6055880000000 1.0
C      1  0.5995510000000  0.5581360000000  0.4955610000000 1.0
C      1  0.4996730000000  0.3870220000000  0.4755570000000 1.0
C      1  0.5013720000000  0.3956440000000  0.4482520000000 1.0
C      1  0.4959970000000  0.5576210000000  0.4915370000000 1.0
C      1  0.5729180000000  0.4215850000000  0.5068310000000 1.0
C      1  0.4981280000000  0.4330040000000  0.5295590000000 1.0
C      1  0.4734030000000  0.6173720000000  0.4980520000000 1.0
C      1  0.4149100000000  0.5129550000000  0.4975470000000 1.0
C      1  0.5127170000000  0.5330420000000  0.5602560000000 1.0
C      1  0.5389380000000  0.4857180000000  0.5655730000000 1.0
C      1  0.5677260000000  0.4573710000000  0.4368320000000 1.0
C      1  0.5379990000000  0.4952030000000  0.4752190000000 1.0
C      1  0.5710340000000  0.5833190000000  0.4653570000000 1.0
C      1  0.4336020000000  0.5332110000000  0.4265840000000 1.0
C      1  0.5940240000000  0.4637120000000  0.5030600000000 1.0
C      1  0.5554170000000  0.4706060000000  0.5871660000000 1.0
C      1  0.5217210000000  0.5162420000000  0.5179230000000 1.0
C      1  0.5350500000000  0.4731310000000  0.4071510000000 1.0
C      1  0.4548110000000  0.5083170000000  0.3842150000000 1.0
C      1  0.5514100000000  0.5821720000000  0.4453560000000 1.0
C      1  0.5781270000000  0.4867980000000  0.5854530000000 1.0
C      1  0.4750830000000  0.5554550000000  0.4440110000000 1.0
C      1  0.5183470000000  0.5486440000000  0.4773520000000 1.0
C      1  0.5635170000000  0.5840650000000  0.5801160000000 1.0
C      1  0.4455460000000  0.4927300000000  0.4545670000000 1.0
C      1  0.5226960000000  0.4437810000000  0.4784630000000 1.0
C      1  0.4733280000000  0.4787990000000  0.4931420000000 1.0
C      1  0.4098330000000  0.5040840000000  0.5402060000000 1.0
C      1  0.5388800000000  0.5718250000000  0.5725240000000 1.0
C      1  0.4270300000000  0.5879990000000  0.4420080000000 1.0
C      1  0.4729430000000  0.6037240000000  0.4512410000000 1.0
C      1  0.4412880000000  0.5562370000000  0.5768460000000 1.0
C      1  0.4871140000000  0.4075160000000  0.4031510000000 1.0
C      1  0.4863500000000  0.4953320000000  0.5369070000000 1.0
C      1  0.4748360000000  0.4883930000000  0.4651420000000 1.0
C      1  0.4939110000000  0.5723480000000  0.4264730000000 1.0
C      1  0.4734520000000  0.4334170000000  0.5669320000000 1.0
C      1  0.4826180000000  0.5167190000000  0.4634640000000 1.0
C      1  0.4665700000000  0.5259900000000  0.5096080000000 1.0
C      1  0.5753310000000  0.5803280000000  0.5576650000000 1.0
C      1  0.4470310000000  0.4522350000000  0.5269490000000 1.0
C      1  0.5546090000000  0.4067550000000  0.5240230000000 1.0
C      1  0.4170320000000  0.5297680000000  0.5252190000000 1.0
C      1  0.5919920000000  0.5217050000000  0.5221520000000 1.0
C      1  0.4342580000000  0.4439830000000  0.4755670000000 1.0
C      1  0.5338910000000  0.4248540000000  0.5915420000000 1.0
C      1  0.5249170000000  0.5479020000000  0.5844900000000 1.0
C      1  0.5054430000000  0.4495810000000  0.4537520000000 1.0
C      1  0.4357280000000  0.5177820000000  0.4733810000000 1.0
C      1  0.4970280000000  0.5106820000000  0.5780480000000 1.0
C      1  0.4661190000000  0.4970190000000  0.5162530000000 1.0
C      1  0.5897070000000  0.4415710000000  0.5199650000000 1.0
C      1  0.5755720000000  0.4836350000000  0.5136290000000 1.0
C      1  0.4613240000000  0.4638650000000  0.4090380000000 1.0
C      1  0.4603800000000  0.5781520000000  0.5768170000000 1.0
C      1  0.5451640000000  0.5168370000000  0.4950430000000 1.0
C      1  0.4042620000000  0.4690510000000  0.4602340000000 1.0
C      1  0.5016570000000  0.4433100000000  0.5019020000000 1.0
C      1  0.4494980000000  0.3974690000000  0.4835030000000 1.0
C      1  0.4775700000000  0.4361510000000  0.4886400000000 1.0
C      1  0.4883800000000  0.4572460000000  0.3998490000000 1.0
C      1  0.4625960000000  0.5300070000000  0.4802190000000 1.0
C      1  0.4845550000000  0.5981280000000  0.5395760000000 1.0
C      1  0.4408630000000  0.5689820000000  0.5116630000000 1.0
C      1  0.5633850000000  0.5928360000000  0.5142630000000 1.0
C      1  0.4417360000000  0.4167750000000  0.4644240000000 1.0
C      1  0.5221590000000  0.4340390000000  0.4285650000000 1.0
C      1  0.5917450000000  0.5125450000000  0.4728700000000 1.0
C      1  0.4654240000000  0.4314300000000  0.5393690000000 1.0
C      1  0.5902410000000  0.4780040000000  0.5589340000000 1.0
C      1  0.4246810000000  0.5690080000000  0.4612320000000 1.0
C      1  0.5115820000000  0.4500630000000  0.5492790000000 1.0
C      1  0.4764930000000  0.5268030000000  0.4363330000000 1.0
C      1  0.4139070000000  0.4910960000000  0.5660930000000 1.0
C      1  0.4526720000000  0.4912940000000  0.4055710000000 1.0
C      1  0.5663170000000  0.4232910000000  0.4783620000000 1.0
C      1  0.5890360000000  0.5611750000000  0.4709930000000 1.0
C      1  0.4815110000000  0.4882480000000  0.5639860000000 1.0
C      1  0.4554530000000  0.4528430000000  0.4968520000000 1.0
C      1  0.5769110000000  0.5103790000000  0.4989920000000 1.0
C      1  0.5448000000000  0.4509880000000  0.4208130000000 1.0
C      1  0.5606890000000  0.5985450000000  0.4870210000000 1.0
C      1  0.4589590000000  0.5926880000000  0.5516150000000 1.0
C      1  0.4992070000000  0.4779110000000  0.4516990000000 1.0
C      1  0.5360450000000  0.5280790000000  0.5411820000000 1.0
C      1  0.4368690000000  0.5820420000000  0.5372060000000 1.0
C      1  0.4073740000000  0.4534970000000  0.4842880000000 1.0
C      1  0.4036660000000  0.5500280000000  0.5411960000000 1.0
C      1  0.4930200000000  0.6130010000000  0.5163500000000 1.0
C      1  0.5013590000000  0.5765290000000  0.5449310000000 1.0
C      1  0.4923960000000  0.4551630000000  0.5996470000000 1.0
C      1  0.4523510000000  0.4884790000000  0.5614000000000 1.0
C      1  0.5089740000000  0.3987030000000  0.5608340000000 1.0
C      1  0.4479130000000  0.4491790000000  0.4292840000000 1.0
C      1  0.4463800000000  0.5767080000000  0.4834330000000 1.0
C      1  0.5712900000000  0.4327680000000  0.5641810000000 1.0
C      1  0.4636630000000  0.5714120000000  0.4205950000000 1.0
C      1  0.5562840000000  0.4423740000000  0.5871060000000 1.0
C      1  0.5409580000000  0.5224720000000  0.5944660000000 1.0
C      1  0.5208810000000  0.6109880000000  0.5076470000000 1.0
C      1  0.5820510000000  0.4992470000000  0.5397200000000 1.0
C      1  0.5062740000000  0.4290810000000  0.5974840000000 1.0
C      1  0.5296380000000  0.5775700000000  0.5437040000000 1.0
C      1  0.4168630000000  0.4888680000000  0.5166390000000 1.0
C      1  0.5478580000000  0.4689000000000  0.5157240000000 1.0
C      1  0.5003130000000  0.4318100000000  0.4074370000000 1.0
C      1  0.5947680000000  0.5499080000000  0.5208590000000 1.0
C      1  0.5083010000000  0.5532210000000  0.4105480000000 1.0
C      1  0.4944980000000  0.5382020000000  0.5157640000000 1.0
C      1  0.5386080000000  0.5994220000000  0.5260070000000 1.0
C      1  0.5031280000000  0.4735810000000  0.5013130000000 1.0
C      1  0.5346980000000  0.5521710000000  0.4113470000000 1.0
C      1  0.5340220000000  0.6077960000000  0.4811460000000 1.0
C      1  0.4485610000000  0.5081510000000  0.4296100000000 1.0
C      1  0.4947750000000  0.5491230000000  0.5427490000000 1.0
C      1  0.3903720000000  0.5127450000000  0.4802870000000 1.0
C      1  0.5543800000000  0.5580420000000  0.4284960000000 1.0
C      1  0.4455530000000  0.4831350000000  0.5321990000000 1.0
C      1  0.4903000000000  0.4595400000000  0.5699070000000 1.0
C      1  0.5350200000000  0.4052020000000  0.5697950000000 1.0
C      1  0.4444270000000  0.5418410000000  0.5202550000000 1.0
C      1  0.4698720000000  0.5580110000000  0.4740900000000 1.0
C      1  0.5003170000000  0.5961230000000  0.4421120000000 1.0
C      1  0.5086900000000  0.4776900000000  0.3967720000000 1.0
C      1  0.4653110000000  0.5323460000000  0.3925810000000 1.0
C      1  0.4573500000000  0.4058720000000  0.5278030000000 1.0
C      1  0.4796180000000  0.3901820000000  0.5188750000000 1.0
C      1  0.5931010000000  0.4876870000000  0.4599850000000 1.0
C      1  0.5233910000000  0.5013930000000  0.5868670000000 1.0
C      1  0.4597380000000  0.4246610000000  0.4422360000000 1.0
C      1  0.5249820000000  0.3937170000000  0.4876510000000 1.0
C      1  0.5108090000000  0.4895860000000  0.5248970000000 1.0
C      1  0.5445500000000  0.5541920000000  0.5276440000000 1.0
C      1  0.5351890000000  0.5005780000000  0.4206410000000 1.0
C      1  0.4397680000000  0.4073550000000  0.5072380000000 1.0
C      1  0.5258350000000  0.4096690000000  0.4448050000000 1.0
C      1  0.5662780000000  0.5139220000000  0.5834410000000 1.0
C      1  0.4213340000000  0.5391370000000  0.4525610000000 1.0
C      1  0.4490670000000  0.5496660000000  0.4082590000000 1.0
C      1  0.4798390000000  0.4052770000000  0.4295860000000 1.0
C      1  0.5108490000000  0.5059770000000  0.4025810000000 1.0
C      1  0.5566250000000  0.4110840000000  0.5521980000000 1.0
C      1  0.4512830000000  0.5304650000000  0.5862030000000 1.0
C      1  0.4615280000000  0.6043780000000  0.4780200000000 1.0
C      1  0.4524780000000  0.5939420000000  0.4335770000000 1.0
C      1  0.5386810000000  0.4143630000000  0.4712550000000 1.0
C      1  0.5569900000000  0.5092550000000  0.5547550000000 1.0
C      1  0.5734420000000  0.5690760000000  0.5309590000000 1.0
C      1  0.5407940000000  0.5459870000000  0.4952240000000 1.0
C      1  0.5708670000000  0.5345220000000  0.4346990000000 1.0
END
