TITL C-4399-837-2 199.814518616676 125000 -1273.07969469737 0 0 175 (C1) n - 1
REM
REM in /rds/project/t2_vol4/rds-t2-cs072/BORA/CARBON/from-Arr/AIRSS/Generating-Clusters/GAP-ML-2020/Higher-Symm/SD-CG/HFTN-CG/C160-200
REM
REM
REM
REM
REM
REM ./C.cell (6b4489405718ea1b717e0baf1da4c2d9)
REM AIRSS Version 0.9.1 bugfix July 2018 build 013d7b7c2542+ Fri, 06 Jul 2018 19:26:36 +0100
REM compiler GCC version 9.3.0
REM options -cpp -mtune=generic -march=x86-64 -g -O0
REM seed 2094675215 736696638 1796749234 533767079 1386927533 81356794 2034268764 1489469024 -1757074830 2033333965 306552480 -1931551091 1784343587 355857529 561101755 -1427929714 -757059417 -299712075 953212344 -660506760 2044685476 748877203 394595989 1376851299 1096180777 -1305042670 -411841622 -1260812972 1855079248 -1747887696 -1548628769 335235583 648399779
REM
CELL 1.54180   50.00000   50.00000   50.00000   90.00000   90.00000   90.00000
LATT -1
SFAC C  
C      1  0.5444140000000  0.5077810000000  0.5776860000000 1.0
C      1  0.5421670000000  0.4260400000000  0.5328580000000 1.0
C      1  0.5433680000000  0.4540300000000  0.4349810000000 1.0
C      1  0.5463040000000  0.5412020000000  0.4347550000000 1.0
C      1  0.5469090000000  0.5746610000000  0.5166210000000 1.0
C      1  0.4546710000000  0.4973400000000  0.5789230000000 1.0
C      1  0.4521750000000  0.5709080000000  0.5287240000000 1.0
C      1  0.4521780000000  0.5505400000000  0.4424300000000 1.0
C      1  0.4569550000000  0.4604170000000  0.4305330000000 1.0
C      1  0.4565490000000  0.4235380000000  0.5255080000000 1.0
C      1  0.4105540000000  0.5086040000000  0.5628840000000 1.0
C      1  0.4132930000000  0.4419640000000  0.5296090000000 1.0
C      1  0.4150760000000  0.4534400000000  0.4536710000000 1.0
C      1  0.4097960000000  0.5277590000000  0.4446660000000 1.0
C      1  0.4085250000000  0.5603090000000  0.5105350000000 1.0
C      1  0.5872260000000  0.4903120000000  0.5631140000000 1.0
C      1  0.5897160000000  0.5551940000000  0.5273510000000 1.0
C      1  0.5901030000000  0.5429900000000  0.4551860000000 1.0
C      1  0.5870300000000  0.4700640000000  0.4432970000000 1.0
C      1  0.5841850000000  0.4349190000000  0.5110180000000 1.0
C      1  0.5252370000000  0.4473430000000  0.4115010000000 1.0
C      1  0.5260940000000  0.5569750000000  0.4175880000000 1.0
C      1  0.5303730000000  0.6012870000000  0.5210900000000 1.0
C      1  0.5233910000000  0.5150220000000  0.6000540000000 1.0
C      1  0.5215470000000  0.4046390000000  0.5444330000000 1.0
C      1  0.4683560000000  0.5699440000000  0.4234390000000 1.0
C      1  0.4782820000000  0.4530260000000  0.4085190000000 1.0
C      1  0.4743940000000  0.4026390000000  0.5385560000000 1.0
C      1  0.4755230000000  0.5055650000000  0.6019910000000 1.0
C      1  0.4724680000000  0.5935730000000  0.5336620000000 1.0
C      1  0.5896220000000  0.5612640000000  0.4990940000000 1.0
C      1  0.5875270000000  0.5193410000000  0.5597900000000 1.0
C      1  0.5852760000000  0.4473690000000  0.5378760000000 1.0
C      1  0.5828620000000  0.4473440000000  0.4613850000000 1.0
C      1  0.5891970000000  0.5185710000000  0.4402110000000 1.0
C      1  0.4168070000000  0.4341270000000  0.5012450000000 1.0
C      1  0.4124350000000  0.4797750000000  0.5613150000000 1.0
C      1  0.4093850000000  0.5492640000000  0.5369740000000 1.0
C      1  0.4094770000000  0.5493390000000  0.4640730000000 1.0
C      1  0.4136230000000  0.4792830000000  0.4395070000000 1.0
C      1  0.5210320000000  0.5500620000000  0.5154490000000 1.0
C      1  0.5208860000000  0.4997610000000  0.5537410000000 1.0
C      1  0.5203970000000  0.4475370000000  0.5179690000000 1.0
C      1  0.5208270000000  0.4688390000000  0.4567650000000 1.0
C      1  0.5213730000000  0.5293900000000  0.4571200000000 1.0
C      1  0.4787980000000  0.4483340000000  0.5174530000000 1.0
C      1  0.4779350000000  0.4985020000000  0.5533830000000 1.0
C      1  0.4775810000000  0.5486590000000  0.5170830000000 1.0
C      1  0.4778740000000  0.5314080000000  0.4578080000000 1.0
C      1  0.4788360000000  0.4678250000000  0.4561540000000 1.0
C      1  0.4911990000000  0.4100470000000  0.4844100000000 1.0
C      1  0.4914520000000  0.4729410000000  0.3920440000000 1.0
C      1  0.4887850000000  0.5862970000000  0.4365760000000 1.0
C      1  0.4891530000000  0.5905760000000  0.5568640000000 1.0
C      1  0.4954160000000  0.4656540000000  0.5863770000000 1.0
C      1  0.5097280000000  0.6068620000000  0.5010720000000 1.0
C      1  0.5095170000000  0.5413310000000  0.4001700000000 1.0
C      1  0.5083330000000  0.4187250000000  0.4593860000000 1.0
C      1  0.5087950000000  0.4084580000000  0.5696760000000 1.0
C      1  0.5084670000000  0.5394080000000  0.6020270000000 1.0
C      1  0.5645210000000  0.4723430000000  0.4264990000000 1.0
C      1  0.5661040000000  0.5571710000000  0.4497330000000 1.0
C      1  0.5657610000000  0.5657330000000  0.5381850000000 1.0
C      1  0.5633900000000  0.4835710000000  0.5765570000000 1.0
C      1  0.5605710000000  0.4185020000000  0.5108130000000 1.0
C      1  0.4335810000000  0.5305600000000  0.4297970000000 1.0
C      1  0.4388100000000  0.4406260000000  0.4436060000000 1.0
C      1  0.4361630000000  0.4341080000000  0.5440750000000 1.0
C      1  0.4341260000000  0.5183960000000  0.5751180000000 1.0
C      1  0.4324910000000  0.5750820000000  0.5070570000000 1.0
C      1  0.3997560000000  0.4654590000000  0.5393020000000 1.0
C      1  0.4032570000000  0.4501430000000  0.4806820000000 1.0
C      1  0.3988510000000  0.5015750000000  0.4499880000000 1.0
C      1  0.3961330000000  0.5461850000000  0.4888930000000 1.0
C      1  0.3971450000000  0.5240550000000  0.5428320000000 1.0
C      1  0.6014710000000  0.5310770000000  0.5378080000000 1.0
C      1  0.6028140000000  0.5440650000000  0.4806690000000 1.0
C      1  0.6011390000000  0.4942360000000  0.4498820000000 1.0
C      1  0.5960610000000  0.4482720000000  0.4877420000000 1.0
C      1  0.5990340000000  0.4720630000000  0.5435770000000 1.0
C      1  0.5568080000000  0.4957660000000  0.4124420000000 1.0
C      1  0.5561870000000  0.5781260000000  0.4656680000000 1.0
C      1  0.5554090000000  0.5575090000000  0.5632150000000 1.0
C      1  0.5550150000000  0.4560300000000  0.5758460000000 1.0
C      1  0.5472920000000  0.4036570000000  0.4894890000000 1.0
C      1  0.4441790000000  0.5095190000000  0.4140760000000 1.0
C      1  0.4523680000000  0.4161740000000  0.4515490000000 1.0
C      1  0.4446670000000  0.4445070000000  0.5692770000000 1.0
C      1  0.4422350000000  0.5456010000000  0.5730380000000 1.0
C      1  0.4424960000000  0.5828320000000  0.4819420000000 1.0
C      1  0.4995310000000  0.4863510000000  0.4468200000000 1.0
C      1  0.5001410000000  0.5461890000000  0.4705300000000 1.0
C      1  0.5001890000000  0.5428030000000  0.5360660000000 1.0
C      1  0.4991100000000  0.4761230000000  0.5576070000000 1.0
C      1  0.4990180000000  0.4380910000000  0.4966390000000 1.0
C      1  0.4986740000000  0.5138720000000  0.4447400000000 1.0
C      1  0.5007370000000  0.4479260000000  0.4672820000000 1.0
C      1  0.4994830000000  0.4559250000000  0.5367950000000 1.0
C      1  0.4991440000000  0.5188490000000  0.5499030000000 1.0
C      1  0.4987820000000  0.5548000000000  0.4964560000000 1.0
C      1  0.4336580000000  0.5579720000000  0.5488860000000 1.0
C      1  0.4369820000000  0.4720620000000  0.5738570000000 1.0
C      1  0.4422720000000  0.4196500000000  0.4999180000000 1.0
C      1  0.4376660000000  0.4830700000000  0.4242040000000 1.0
C      1  0.4337390000000  0.5640860000000  0.4617560000000 1.0
C      1  0.5616080000000  0.4406160000000  0.5520300000000 1.0
C      1  0.5630790000000  0.5302250000000  0.5699780000000 1.0
C      1  0.5651760000000  0.5745260000000  0.4928520000000 1.0
C      1  0.5651020000000  0.5193920000000  0.4254070000000 1.0
C      1  0.5572820000000  0.4352730000000  0.4531930000000 1.0
C      1  0.5133330000000  0.5144290000000  0.3913780000000 1.0
C      1  0.5123840000000  0.6040260000000  0.4725170000000 1.0
C      1  0.5114870000000  0.5643660000000  0.5887590000000 1.0
C      1  0.5142690000000  0.4274030000000  0.5897860000000 1.0
C      1  0.5392620000000  0.4164530000000  0.4650410000000 1.0
C      1  0.4877150000000  0.5010390000000  0.3891010000000 1.0
C      1  0.4602300000000  0.4117760000000  0.4788640000000 1.0
C      1  0.4881520000000  0.4392340000000  0.5940060000000 1.0
C      1  0.4855750000000  0.5732920000000  0.5794490000000 1.0
C      1  0.4860960000000  0.6004200000000  0.4615460000000 1.0
C      1  0.5044110000000  0.3887400000000  0.5009320000000 1.0
C      1  0.5200480000000  0.4692400000000  0.3943900000000 1.0
C      1  0.5168740000000  0.5797850000000  0.4326390000000 1.0
C      1  0.5187060000000  0.5944460000000  0.5564420000000 1.0
C      1  0.5165660000000  0.4699820000000  0.6049640000000 1.0
C      1  0.4816560000000  0.6035910000000  0.5081440000000 1.0
C      1  0.4800140000000  0.5443400000000  0.3982820000000 1.0
C      1  0.4953060000000  0.4131080000000  0.4327690000000 1.0
C      1  0.4795270000000  0.4080660000000  0.5657450000000 1.0
C      1  0.4799030000000  0.5335600000000  0.6022670000000 1.0
C      1  0.4375460000000  0.5216560000000  0.5069190000000 1.0
C      1  0.4381180000000  0.4991630000000  0.5241320000000 1.0
C      1  0.4390300000000  0.4759040000000  0.5081060000000 1.0
C      1  0.4389150000000  0.4840370000000  0.4807280000000 1.0
C      1  0.4381340000000  0.5123760000000  0.4800930000000 1.0
C      1  0.5600080000000  0.4759440000000  0.5080590000000 1.0
C      1  0.5601520000000  0.4989110000000  0.5245700000000 1.0
C      1  0.5610090000000  0.5220030000000  0.5080320000000 1.0
C      1  0.5614180000000  0.5131840000000  0.4810580000000 1.0
C      1  0.5606970000000  0.4849510000000  0.4809620000000 1.0
C      1  0.5299010000000  0.4987100000000  0.5258560000000 1.0
C      1  0.5298500000000  0.4740930000000  0.5083210000000 1.0
C      1  0.5305410000000  0.4838470000000  0.4797420000000 1.0
C      1  0.5311290000000  0.5136010000000  0.4797000000000 1.0
C      1  0.5308990000000  0.5233200000000  0.5080400000000 1.0
C      1  0.4684160000000  0.4987570000000  0.5256900000000 1.0
C      1  0.4678510000000  0.5227660000000  0.5080230000000 1.0
C      1  0.4681870000000  0.5136710000000  0.4793840000000 1.0
C      1  0.4690770000000  0.4832360000000  0.4794780000000 1.0
C      1  0.4691860000000  0.4744150000000  0.5083330000000 1.0
C      1  0.4668780000000  0.5177780000000  0.3979950000000 1.0
C      1  0.4668530000000  0.5986420000000  0.4830710000000 1.0
C      1  0.4658080000000  0.5536410000000  0.5872380000000 1.0
C      1  0.4661030000000  0.4284540000000  0.5800770000000 1.0
C      1  0.4693520000000  0.4049740000000  0.4331230000000 1.0
C      1  0.5334620000000  0.4942630000000  0.3960050000000 1.0
C      1  0.5306160000000  0.3830580000000  0.4962070000000 1.0
C      1  0.5333090000000  0.4493510000000  0.5932450000000 1.0
C      1  0.5322700000000  0.5731220000000  0.5717630000000 1.0
C      1  0.5316940000000  0.5903090000000  0.4558670000000 1.0
C      1  0.6105680000000  0.4727220000000  0.4942350000000 1.0
C      1  0.6126130000000  0.4949230000000  0.4759320000000 1.0
C      1  0.6138190000000  0.5194870000000  0.4908060000000 1.0
C      1  0.6131090000000  0.5129630000000  0.5186200000000 1.0
C      1  0.6115020000000  0.4842460000000  0.5208770000000 1.0
C      1  0.3852960000000  0.5201150000000  0.4943870000000 1.0
C      1  0.3869290000000  0.4980960000000  0.4758230000000 1.0
C      1  0.3887420000000  0.4734000000000  0.4906480000000 1.0
C      1  0.3873470000000  0.4808180000000  0.5187170000000 1.0
C      1  0.3856880000000  0.5094460000000  0.5208660000000 1.0
C      1  0.5310750000000  0.6164670000000  0.5447660000000 1.0
C      1  0.4998760000000  0.3940560000000  0.5284130000000 1.0
C      1  0.5038170000000  0.4952460000000  0.6067280000000 1.0
C      1  0.4997390000000  0.4346080000000  0.4145760000000 1.0
C      1  0.4673620000000  0.5689080000000  0.3953130000000 1.0
END
