TITL C-4391-132-1 -49.4817285274785 125000 -1277.41475268321 0 0 181 (C1) n - 1
REM
REM in /rds/project/t2_vol4/rds-t2-cs072/BORA/CARBON/from-Arr/AIRSS/Generating-Clusters/GAP-ML-2020/Higher-Symm/SD-CG/HFTN-CG/C160-200
REM
REM
REM
REM
REM
REM ./C.cell (6b4489405718ea1b717e0baf1da4c2d9)
REM AIRSS Version 0.9.1 bugfix July 2018 build 013d7b7c2542+ Fri, 06 Jul 2018 19:26:36 +0100
REM compiler GCC version 9.3.0
REM options -cpp -mtune=generic -march=x86-64 -g -O0
REM seed -1670272908 663495454 -809608021 -960961194 -2034124261 -939345308 412899745 824038022 333028106 103838933 -2018664449 1494032881 1059561946 -2019644797 -2116464572 -1563007268 -1156346424 101374858 -339551128 -648281027 -1869529581 1003728581 -57673221 1982946632 -1687268149 -1256924792 2030559486 1987553222 -276925033 -199139410 203731461 18683004 -1483171674
REM
CELL 1.54180   50.00000   50.00000   50.00000   90.00000   90.00000   90.00000
LATT -1
SFAC C  
C      1  0.5087970000000  0.5493870000000  0.4005040000000 1.0
C      1  0.4550600000000  0.5230380000000  0.4015520000000 1.0
C      1  0.4629130000000  0.4636970000000  0.4023670000000 1.0
C      1  0.5197950000000  0.4511370000000  0.4019220000000 1.0
C      1  0.5511430000000  0.5097680000000  0.4017250000000 1.0
C      1  0.5257360000000  0.5443540000000  0.4883090000000 1.0
C      1  0.4652470000000  0.5402900000000  0.4872710000000 1.0
C      1  0.4544470000000  0.4861810000000  0.4822870000000 1.0
C      1  0.5007620000000  0.4541030000000  0.4811360000000 1.0
C      1  0.5462080000000  0.4896590000000  0.4830210000000 1.0
C      1  0.4984890000000  0.4093390000000  0.5422190000000 1.0
C      1  0.5862860000000  0.4696660000000  0.5432070000000 1.0
C      1  0.5588400000000  0.5807340000000  0.5455690000000 1.0
C      1  0.4438380000000  0.5846200000000  0.5472450000000 1.0
C      1  0.4125550000000  0.4722700000000  0.5440970000000 1.0
C      1  0.4442200000000  0.5302660000000  0.4704440000000 1.0
C      1  0.4564660000000  0.4582340000000  0.4746010000000 1.0
C      1  0.5279520000000  0.4478710000000  0.4745840000000 1.0
C      1  0.5604510000000  0.5146310000000  0.4784260000000 1.0
C      1  0.5045010000000  0.5629570000000  0.4873170000000 1.0
C      1  0.4576850000000  0.5654220000000  0.5976980000000 1.0
C      1  0.4262540000000  0.4791720000000  0.5973380000000 1.0
C      1  0.4958000000000  0.4226750000000  0.5968060000000 1.0
C      1  0.5680690000000  0.4733880000000  0.5936350000000 1.0
C      1  0.5486520000000  0.5598630000000  0.5955080000000 1.0
C      1  0.5106300000000  0.4765540000000  0.3902600000000 1.0
C      1  0.5245820000000  0.5024600000000  0.3909930000000 1.0
C      1  0.5042470000000  0.5227650000000  0.3904850000000 1.0
C      1  0.4783150000000  0.5101630000000  0.3903870000000 1.0
C      1  0.4822540000000  0.4816160000000  0.3899380000000 1.0
C      1  0.5655150000000  0.5652190000000  0.4464360000000 1.0
C      1  0.4619890000000  0.5827240000000  0.4463310000000 1.0
C      1  0.4116490000000  0.4888670000000  0.4500870000000 1.0
C      1  0.4827910000000  0.4125470000000  0.4514600000000 1.0
C      1  0.5794370000000  0.4580760000000  0.4507520000000 1.0
C      1  0.4935290000000  0.5648380000000  0.5161330000000 1.0
C      1  0.4341440000000  0.5085640000000  0.5209240000000 1.0
C      1  0.4621650000000  0.4475260000000  0.5041740000000 1.0
C      1  0.5383560000000  0.4493670000000  0.5039440000000 1.0
C      1  0.5616790000000  0.5244370000000  0.5102060000000 1.0
C      1  0.4803830000000  0.4778670000000  0.5520080000000 1.0
C      1  0.5130650000000  0.4738450000000  0.5512420000000 1.0
C      1  0.5271150000000  0.5031470000000  0.5523870000000 1.0
C      1  0.5025610000000  0.5252480000000  0.5544260000000 1.0
C      1  0.4747630000000  0.5093440000000  0.5542490000000 1.0
C      1  0.4613060000000  0.4267150000000  0.4369690000000 1.0
C      1  0.5584920000000  0.4396990000000  0.4367890000000 1.0
C      1  0.5721910000000  0.5392350000000  0.4353030000000 1.0
C      1  0.4881770000000  0.5826700000000  0.4311100000000 1.0
C      1  0.4185970000000  0.5130930000000  0.4345530000000 1.0
C      1  0.5449300000000  0.4518260000000  0.4152760000000 1.0
C      1  0.5555000000000  0.5356010000000  0.4123380000000 1.0
C      1  0.4855570000000  0.5629230000000  0.4106700000000 1.0
C      1  0.4348950000000  0.5053060000000  0.4126990000000 1.0
C      1  0.4725910000000  0.4387670000000  0.4138050000000 1.0
C      1  0.5236940000000  0.5056100000000  0.5968580000000 1.0
C      1  0.5014900000000  0.5236190000000  0.5972490000000 1.0
C      1  0.4777850000000  0.5076730000000  0.5976170000000 1.0
C      1  0.4852310000000  0.4800680000000  0.5969630000000 1.0
C      1  0.5136860000000  0.4786920000000  0.5966280000000 1.0
C      1  0.4476510000000  0.5465510000000  0.5799530000000 1.0
C      1  0.4397720000000  0.4610520000000  0.5812550000000 1.0
C      1  0.5174380000000  0.4297690000000  0.5808170000000 1.0
C      1  0.5714460000000  0.4968980000000  0.5798670000000 1.0
C      1  0.5272690000000  0.5664260000000  0.5788270000000 1.0
C      1  0.4450750000000  0.5602700000000  0.4350970000000 1.0
C      1  0.4264850000000  0.4660100000000  0.4384380000000 1.0
C      1  0.5087340000000  0.4192430000000  0.4393400000000 1.0
C      1  0.5821780000000  0.4873900000000  0.4398670000000 1.0
C      1  0.5386140000000  0.5744710000000  0.4333720000000 1.0
C      1  0.4864680000000  0.6090590000000  0.4809990000000 1.0
C      1  0.3951020000000  0.5216210000000  0.4854110000000 1.0
C      1  0.4460370000000  0.4058680000000  0.4871050000000 1.0
C      1  0.5732090000000  0.4211760000000  0.4863110000000 1.0
C      1  0.5991030000000  0.5501530000000  0.4814810000000 1.0
C      1  0.5478700000000  0.5507540000000  0.5061340000000 1.0
C      1  0.4634890000000  0.5612730000000  0.5090090000000 1.0
C      1  0.4301900000000  0.4910170000000  0.4972990000000 1.0
C      1  0.4863130000000  0.4328310000000  0.4976880000000 1.0
C      1  0.5605010000000  0.4679290000000  0.4989920000000 1.0
C      1  0.6128130000000  0.4971870000000  0.5165860000000 1.0
C      1  0.5347290000000  0.6062630000000  0.5145540000000 1.0
C      1  0.4116430000000  0.5684060000000  0.5164320000000 1.0
C      1  0.4080520000000  0.4345970000000  0.5181300000000 1.0
C      1  0.5332260000000  0.3913380000000  0.5175460000000 1.0
C      1  0.4867590000000  0.5488210000000  0.4701160000000 1.0
C      1  0.4553790000000  0.5061000000000  0.4623780000000 1.0
C      1  0.4827800000000  0.4625160000000  0.4614430000000 1.0
C      1  0.5342880000000  0.4745320000000  0.4626300000000 1.0
C      1  0.5380500000000  0.5298250000000  0.4673780000000 1.0
C      1  0.6071350000000  0.4686230000000  0.5211700000000 1.0
C      1  0.5596340000000  0.5926980000000  0.5189270000000 1.0
C      1  0.4321700000000  0.5887690000000  0.5205350000000 1.0
C      1  0.3965640000000  0.4618820000000  0.5214110000000 1.0
C      1  0.5038580000000  0.3891960000000  0.5206360000000 1.0
C      1  0.5448480000000  0.5023280000000  0.5255830000000 1.0
C      1  0.5092080000000  0.5412090000000  0.5299960000000 1.0
C      1  0.4607260000000  0.5201260000000  0.5289430000000 1.0
C      1  0.4638410000000  0.4704120000000  0.5241280000000 1.0
C      1  0.5160000000000  0.4575060000000  0.5236040000000 1.0
C      1  0.5232920000000  0.4121710000000  0.5581860000000 1.0
C      1  0.5903160000000  0.4948890000000  0.5580890000000 1.0
C      1  0.5344530000000  0.5874010000000  0.5584470000000 1.0
C      1  0.4355890000000  0.5571080000000  0.5543490000000 1.0
C      1  0.4238600000000  0.4498470000000  0.5594200000000 1.0
C      1  0.4701770000000  0.4618620000000  0.5783160000000 1.0
C      1  0.5253090000000  0.4585570000000  0.5773730000000 1.0
C      1  0.5460060000000  0.5124190000000  0.5780430000000 1.0
C      1  0.5023000000000  0.5481930000000  0.5787960000000 1.0
C      1  0.4554860000000  0.5167920000000  0.5798040000000 1.0
C      1  0.5423790000000  0.4761160000000  0.4291060000000 1.0
C      1  0.5205460000000  0.5181170000000  0.4498810000000 1.0
C      1  0.4949520000000  0.5282420000000  0.4530110000000 1.0
C      1  0.4778000000000  0.5072480000000  0.4475170000000 1.0
C      1  0.4910760000000  0.4828450000000  0.4442850000000 1.0
C      1  0.5654450000000  0.4813000000000  0.5235300000000 1.0
C      1  0.5385040000000  0.5512560000000  0.5325830000000 1.0
C      1  0.4529800000000  0.5477540000000  0.5320060000000 1.0
C      1  0.4351340000000  0.4788040000000  0.5242710000000 1.0
C      1  0.5019490000000  0.4318980000000  0.5215890000000 1.0
C      1  0.4258490000000  0.5407810000000  0.4498390000000 1.0
C      1  0.4389210000000  0.4418910000000  0.4536000000000 1.0
C      1  0.5363760000000  0.4247110000000  0.4541880000000 1.0
C      1  0.5832550000000  0.5149050000000  0.4545020000000 1.0
C      1  0.5146690000000  0.5903050000000  0.4422380000000 1.0
C      1  0.4761470000000  0.4077180000000  0.4800220000000 1.0
C      1  0.5813370000000  0.4503540000000  0.4798230000000 1.0
C      1  0.5794550000000  0.5688790000000  0.4711150000000 1.0
C      1  0.4620800000000  0.5967440000000  0.4712310000000 1.0
C      1  0.4052300000000  0.4940640000000  0.4792820000000 1.0
C      1  0.6185280000000  0.5099030000000  0.4928790000000 1.0
C      1  0.5264380000000  0.6129710000000  0.4893300000000 1.0
C      1  0.4009910000000  0.5624140000000  0.4919390000000 1.0
C      1  0.4105960000000  0.4213700000000  0.4939680000000 1.0
C      1  0.5461980000000  0.3897790000000  0.4933790000000 1.0
C      1  0.5560080000000  0.5413750000000  0.5762900000000 1.0
C      1  0.4778020000000  0.5676010000000  0.5775670000000 1.0
C      1  0.4293740000000  0.5002140000000  0.5792350000000 1.0
C      1  0.4772040000000  0.4319130000000  0.5782080000000 1.0
C      1  0.5556300000000  0.4553390000000  0.5770740000000 1.0
C      1  0.4487890000000  0.4103930000000  0.5390610000000 1.0
C      1  0.5691780000000  0.4230820000000  0.5381860000000 1.0
C      1  0.5841830000000  0.5364870000000  0.5296270000000 1.0
C      1  0.4910050000000  0.5927330000000  0.5323080000000 1.0
C      1  0.4088000000000  0.5192400000000  0.5337150000000 1.0
C      1  0.4808840000000  0.3889850000000  0.5038230000000 1.0
C      1  0.6003450000000  0.4474640000000  0.5038840000000 1.0
C      1  0.5693630000000  0.5722110000000  0.5002850000000 1.0
C      1  0.4540550000000  0.5903580000000  0.5007820000000 1.0
C      1  0.3902940000000  0.4838030000000  0.5040430000000 1.0
C      1  0.5448940000000  0.4066050000000  0.5402210000000 1.0
C      1  0.6006210000000  0.5130840000000  0.5382330000000 1.0
C      1  0.5183630000000  0.6011000000000  0.5384470000000 1.0
C      1  0.4138880000000  0.5485700000000  0.5370560000000 1.0
C      1  0.4255830000000  0.4280530000000  0.5410570000000 1.0
C      1  0.4261520000000  0.4199750000000  0.4720890000000 1.0
C      1  0.5530580000000  0.4058880000000  0.4728970000000 1.0
C      1  0.6065850000000  0.5235790000000  0.4724570000000 1.0
C      1  0.5122070000000  0.6073750000000  0.4667460000000 1.0
C      1  0.4037540000000  0.5450530000000  0.4713850000000 1.0
C      1  0.4789060000000  0.5183780000000  0.5050710000000 1.0
C      1  0.4764270000000  0.4888760000000  0.5034010000000 1.0
C      1  0.5036880000000  0.4762460000000  0.5023430000000 1.0
C      1  0.5243540000000  0.4977890000000  0.5032540000000 1.0
C      1  0.5091920000000  0.5235840000000  0.5058630000000 1.0
C      1  0.5013750000000  0.4335460000000  0.4149980000000 1.0
C      1  0.5642590000000  0.4901800000000  0.4180670000000 1.0
C      1  0.5345600000000  0.5559230000000  0.4118840000000 1.0
C      1  0.4592630000000  0.5497470000000  0.4125040000000 1.0
C      1  0.4397310000000  0.4762100000000  0.4147040000000 1.0
C      1  0.3889010000000  0.5112980000000  0.5128950000000 1.0
C      1  0.4545480000000  0.3969010000000  0.5140420000000 1.0
C      1  0.5841550000000  0.4249660000000  0.5132880000000 1.0
C      1  0.5932450000000  0.5561420000000  0.5094410000000 1.0
C      1  0.4778710000000  0.6063280000000  0.5089240000000 1.0
C      1  0.4723460000000  0.4147510000000  0.5547850000000 1.0
C      1  0.5721390000000  0.4462690000000  0.5548060000000 1.0
C      1  0.5646560000000  0.5512090000000  0.5491370000000 1.0
C      1  0.4713840000000  0.5866000000000  0.5544140000000 1.0
C      1  0.4113730000000  0.4992360000000  0.5561720000000 1.0
C      1  0.5189830000000  0.4896420000000  0.4441110000000 1.0
END
