TITL C-4387-9411-1 -348.616414269726 125000 -1367.91907592967 0 0 194 (C1) n - 1
REM
REM in /rds/project/t2_vol4/rds-t2-cs072/BORA/CARBON/from-Arr/AIRSS/Generating-Clusters/GAP-ML-2020/Higher-Symm/SD-CG/HFTN-CG/C160-200
REM
REM
REM
REM
REM
REM ./C.cell (6b4489405718ea1b717e0baf1da4c2d9)
REM AIRSS Version 0.9.1 bugfix July 2018 build 013d7b7c2542+ Fri, 06 Jul 2018 19:26:36 +0100
REM compiler GCC version 9.3.0
REM options -cpp -mtune=generic -march=x86-64 -g -O0
REM seed 343873455 -1273161632 -1792963092 653935806 -468361902 1796346024 2016087376 -646667334 1679342548 -1340911788 87817784 993303354 1538947714 530671226 -858221158 -796627481 -1030083060 -1046176796 817194693 -504836265 -1128145776 -640443736 -1238786029 157864558 -18532008 -1397657646 471092896 -891957312 31023891 -822923299 1318880208 534584363 -724442618
REM
CELL 1.54180   50.00000   50.00000   50.00000   90.00000   90.00000   90.00000
LATT -1
SFAC C  
C      1  0.5335320000000  0.5459720000000  0.5456120000000 1.0
C      1  0.4767180000000  0.5394330000000  0.5365370000000 1.0
C      1  0.4563840000000  0.5432540000000  0.4828230000000 1.0
C      1  0.5009510000000  0.5430720000000  0.4507740000000 1.0
C      1  0.5489560000000  0.5466390000000  0.4749610000000 1.0
C      1  0.4304560000000  0.4701970000000  0.5854420000000 1.0
C      1  0.3954270000000  0.4736480000000  0.4580580000000 1.0
C      1  0.5089620000000  0.4710820000000  0.3897450000000 1.0
C      1  0.6051180000000  0.4713870000000  0.4730180000000 1.0
C      1  0.5613370000000  0.4715020000000  0.5975060000000 1.0
C      1  0.5214190000000  0.4312290000000  0.5378620000000 1.0
C      1  0.4832260000000  0.4413530000000  0.5126430000000 1.0
C      1  0.4701900000000  0.4328190000000  0.4876200000000 1.0
C      1  0.4937560000000  0.4258470000000  0.4710040000000 1.0
C      1  0.5115070000000  0.4105400000000  0.4897430000000 1.0
C      1  0.4170040000000  0.5162910000000  0.4606930000000 1.0
C      1  0.5117170000000  0.5130230000000  0.4124390000000 1.0
C      1  0.5888300000000  0.5156560000000  0.4814090000000 1.0
C      1  0.5459350000000  0.5142150000000  0.5856350000000 1.0
C      1  0.4376560000000  0.5139710000000  0.5677410000000 1.0
C      1  0.5843400000000  0.4304890000000  0.4838640000000 1.0
C      1  0.5444790000000  0.4326970000000  0.5805970000000 1.0
C      1  0.4472190000000  0.4370320000000  0.5563420000000 1.0
C      1  0.4252710000000  0.4391880000000  0.4650000000000 1.0
C      1  0.5147110000000  0.4295650000000  0.4087330000000 1.0
C      1  0.4033880000000  0.4894730000000  0.5448330000000 1.0
C      1  0.4290200000000  0.4892860000000  0.4219190000000 1.0
C      1  0.5516900000000  0.4868160000000  0.4109480000000 1.0
C      1  0.5986600000000  0.4900890000000  0.5199710000000 1.0
C      1  0.5126200000000  0.4892070000000  0.6085500000000 1.0
C      1  0.5408380000000  0.4408140000000  0.4044960000000 1.0
C      1  0.5955200000000  0.4431400000000  0.5079750000000 1.0
C      1  0.5252440000000  0.4435480000000  0.5993050000000 1.0
C      1  0.4169940000000  0.4430440000000  0.5513060000000 1.0
C      1  0.4249260000000  0.4449820000000  0.4356670000000 1.0
C      1  0.4704960000000  0.5253710000000  0.4131660000000 1.0
C      1  0.5761710000000  0.5282890000000  0.4411780000000 1.0
C      1  0.5762510000000  0.5261910000000  0.5550720000000 1.0
C      1  0.4746850000000  0.5267190000000  0.5865510000000 1.0
C      1  0.4108740000000  0.5280180000000  0.5017300000000 1.0
C      1  0.4936910000000  0.4823770000000  0.4573530000000 1.0
C      1  0.5459400000000  0.4746720000000  0.4801560000000 1.0
C      1  0.5305090000000  0.4852750000000  0.5418260000000 1.0
C      1  0.4728780000000  0.4788270000000  0.5434240000000 1.0
C      1  0.4495570000000  0.4794170000000  0.4898010000000 1.0
C      1  0.5637250000000  0.4014600000000  0.5158950000000 1.0
C      1  0.5056960000000  0.4028240000000  0.5647070000000 1.0
C      1  0.4425830000000  0.4061160000000  0.5214760000000 1.0
C      1  0.4419190000000  0.3965070000000  0.4493020000000 1.0
C      1  0.5346000000000  0.4053330000000  0.4476760000000 1.0
C      1  0.4606350000000  0.4542610000000  0.5307850000000 1.0
C      1  0.4551640000000  0.4545910000000  0.4730260000000 1.0
C      1  0.5075510000000  0.4561140000000  0.4637910000000 1.0
C      1  0.5338890000000  0.4640660000000  0.5031020000000 1.0
C      1  0.5135810000000  0.4593220000000  0.5427560000000 1.0
C      1  0.6010090000000  0.5190300000000  0.5099380000000 1.0
C      1  0.5228700000000  0.5182030000000  0.6043330000000 1.0
C      1  0.4082120000000  0.5148440000000  0.5593790000000 1.0
C      1  0.4238220000000  0.5191410000000  0.4313440000000 1.0
C      1  0.5417800000000  0.5158290000000  0.4076980000000 1.0
C      1  0.4105430000000  0.4692840000000  0.4329270000000 1.0
C      1  0.5370790000000  0.4671720000000  0.3950660000000 1.0
C      1  0.6050590000000  0.4689320000000  0.5014620000000 1.0
C      1  0.5342860000000  0.4685330000000  0.6088470000000 1.0
C      1  0.4107640000000  0.4668920000000  0.5642940000000 1.0
C      1  0.5542570000000  0.3994140000000  0.5426460000000 1.0
C      1  0.4870700000000  0.4034660000000  0.5425300000000 1.0
C      1  0.4507580000000  0.4105400000000  0.4946090000000 1.0
C      1  0.4875190000000  0.4124910000000  0.4449860000000 1.0
C      1  0.5367170000000  0.4056150000000  0.4770810000000 1.0
C      1  0.3980940000000  0.5397020000000  0.5636800000000 1.0
C      1  0.4105450000000  0.5422560000000  0.4212300000000 1.0
C      1  0.5429870000000  0.5349770000000  0.3843870000000 1.0
C      1  0.6227370000000  0.5381420000000  0.5069840000000 1.0
C      1  0.5256000000000  0.5427600000000  0.6192480000000 1.0
C      1  0.5582510000000  0.6040370000000  0.4756060000000 1.0
C      1  0.5436650000000  0.5946980000000  0.5331420000000 1.0
C      1  0.4779470000000  0.5988740000000  0.5537360000000 1.0
C      1  0.4313940000000  0.6030650000000  0.4993840000000 1.0
C      1  0.4958370000000  0.5989560000000  0.4386120000000 1.0
C      1  0.5313580000000  0.5351480000000  0.4534230000000 1.0
C      1  0.5537110000000  0.5482410000000  0.5238470000000 1.0
C      1  0.5060530000000  0.5289010000000  0.5466450000000 1.0
C      1  0.4593450000000  0.5268620000000  0.5107240000000 1.0
C      1  0.4740120000000  0.5287300000000  0.4613370000000 1.0
C      1  0.5573750000000  0.5780370000000  0.5141320000000 1.0
C      1  0.4986560000000  0.5798030000000  0.5466070000000 1.0
C      1  0.4469050000000  0.5884710000000  0.5200960000000 1.0
C      1  0.4572780000000  0.5912790000000  0.4634140000000 1.0
C      1  0.5140960000000  0.5882030000000  0.4587060000000 1.0
C      1  0.4935200000000  0.4696890000000  0.5609940000000 1.0
C      1  0.4400170000000  0.4683870000000  0.5141590000000 1.0
C      1  0.4691020000000  0.4695150000000  0.4512110000000 1.0
C      1  0.5344640000000  0.4623340000000  0.4578450000000 1.0
C      1  0.5490270000000  0.4769630000000  0.5236570000000 1.0
C      1  0.3903860000000  0.4835130000000  0.5169090000000 1.0
C      1  0.4521790000000  0.4805100000000  0.4027270000000 1.0
C      1  0.5786930000000  0.4808380000000  0.4233680000000 1.0
C      1  0.5958410000000  0.4822110000000  0.5495330000000 1.0
C      1  0.4834070000000  0.4818280000000  0.6091900000000 1.0
C      1  0.3928540000000  0.5044470000000  0.4976000000000 1.0
C      1  0.4701770000000  0.5014480000000  0.3969480000000 1.0
C      1  0.5896330000000  0.5029130000000  0.4377670000000 1.0
C      1  0.5856640000000  0.5022350000000  0.5664970000000 1.0
C      1  0.4654640000000  0.5027870000000  0.6015710000000 1.0
C      1  0.4757650000000  0.6113140000000  0.4553270000000 1.0
C      1  0.5315630000000  0.6078040000000  0.4705320000000 1.0
C      1  0.5364450000000  0.6202500000000  0.5274850000000 1.0
C      1  0.4817380000000  0.6244120000000  0.5462480000000 1.0
C      1  0.4449490000000  0.6266750000000  0.5033900000000 1.0
C      1  0.5924270000000  0.4484740000000  0.4608480000000 1.0
C      1  0.5676310000000  0.4501390000000  0.5792020000000 1.0
C      1  0.4506040000000  0.4501950000000  0.5849010000000 1.0
C      1  0.4003130000000  0.4531350000000  0.4769710000000 1.0
C      1  0.4936660000000  0.4489140000000  0.3988670000000 1.0
C      1  0.5503720000000  0.5305460000000  0.4318530000000 1.0
C      1  0.5741370000000  0.5265570000000  0.5263730000000 1.0
C      1  0.5010650000000  0.5202400000000  0.5770920000000 1.0
C      1  0.4318380000000  0.5197880000000  0.5182340000000 1.0
C      1  0.4567570000000  0.5201460000000  0.4371570000000 1.0
C      1  0.4335970000000  0.4101980000000  0.4710260000000 1.0
C      1  0.5120490000000  0.4111370000000  0.4306000000000 1.0
C      1  0.5627240000000  0.4108260000000  0.4892990000000 1.0
C      1  0.5338290000000  0.4142440000000  0.5585370000000 1.0
C      1  0.4590180000000  0.4109000000000  0.5444590000000 1.0
C      1  0.5275940000000  0.5768890000000  0.5527240000000 1.0
C      1  0.4512580000000  0.5872170000000  0.5483470000000 1.0
C      1  0.4304160000000  0.5907050000000  0.4730000000000 1.0
C      1  0.4995040000000  0.5876110000000  0.4149450000000 1.0
C      1  0.5738460000000  0.5876300000000  0.4898960000000 1.0
C      1  0.4095130000000  0.5626690000000  0.4370070000000 1.0
C      1  0.5279700000000  0.5555410000000  0.3855040000000 1.0
C      1  0.6156410000000  0.5594490000000  0.4940160000000 1.0
C      1  0.5325510000000  0.5630000000000  0.6040160000000 1.0
C      1  0.4134390000000  0.5605070000000  0.5641500000000 1.0
C      1  0.5924080000000  0.5663820000000  0.4801070000000 1.0
C      1  0.5415670000000  0.5651220000000  0.5782160000000 1.0
C      1  0.4408190000000  0.5648100000000  0.5622980000000 1.0
C      1  0.4167420000000  0.5675750000000  0.4636110000000 1.0
C      1  0.5070990000000  0.5633660000000  0.4043180000000 1.0
C      1  0.5695570000000  0.4970210000000  0.5892610000000 1.0
C      1  0.4405190000000  0.4965320000000  0.5914740000000 1.0
C      1  0.3947110000000  0.4993510000000  0.4701750000000 1.0
C      1  0.4975890000000  0.4965290000000  0.3925340000000 1.0
C      1  0.6022230000000  0.4973150000000  0.4626920000000 1.0
C      1  0.4970490000000  0.4351630000000  0.6003230000000 1.0
C      1  0.4033610000000  0.4371600000000  0.5260410000000 1.0
C      1  0.4482920000000  0.4356070000000  0.4213080000000 1.0
C      1  0.5632470000000  0.4349500000000  0.4215440000000 1.0
C      1  0.5901620000000  0.4360960000000  0.5353540000000 1.0
C      1  0.4598710000000  0.4127750000000  0.4353990000000 1.0
C      1  0.5577150000000  0.4145950000000  0.4381480000000 1.0
C      1  0.5795000000000  0.4098370000000  0.5369670000000 1.0
C      1  0.4961550000000  0.4106610000000  0.5883980000000 1.0
C      1  0.4165220000000  0.4139900000000  0.5240020000000 1.0
C      1  0.4368880000000  0.4957240000000  0.4682970000000 1.0
C      1  0.5108160000000  0.4938470000000  0.4353920000000 1.0
C      1  0.5592190000000  0.5012220000000  0.4859940000000 1.0
C      1  0.5333580000000  0.4925460000000  0.5684160000000 1.0
C      1  0.4500550000000  0.4953020000000  0.5488800000000 1.0
C      1  0.5343370000000  0.4803630000000  0.4358730000000 1.0
C      1  0.5655110000000  0.4984710000000  0.5147670000000 1.0
C      1  0.5064860000000  0.4901950000000  0.5778970000000 1.0
C      1  0.4301640000000  0.4918170000000  0.5293720000000 1.0
C      1  0.4508910000000  0.4905430000000  0.4438610000000 1.0
C      1  0.4890960000000  0.4883730000000  0.5195920000000 1.0
C      1  0.4714300000000  0.4989150000000  0.4994090000000 1.0
C      1  0.4888220000000  0.5069150000000  0.4776180000000 1.0
C      1  0.5366370000000  0.5193870000000  0.4790830000000 1.0
C      1  0.5112840000000  0.5073810000000  0.5262640000000 1.0
C      1  0.4238210000000  0.5412740000000  0.4772760000000 1.0
C      1  0.4969530000000  0.5388510000000  0.4190990000000 1.0
C      1  0.5782610000000  0.5415620000000  0.4683640000000 1.0
C      1  0.5525280000000  0.5375590000000  0.5687220000000 1.0
C      1  0.4574570000000  0.5386720000000  0.5645270000000 1.0
C      1  0.4863360000000  0.6288360000000  0.4760620000000 1.0
C      1  0.5136890000000  0.6262870000000  0.4840160000000 1.0
C      1  0.5164600000000  0.6312390000000  0.5125260000000 1.0
C      1  0.4892070000000  0.6363190000000  0.5229620000000 1.0
C      1  0.4703020000000  0.6359610000000  0.4997730000000 1.0
C      1  0.5868740000000  0.4551060000000  0.5567120000000 1.0
C      1  0.4745570000000  0.4541790000000  0.6015070000000 1.0
C      1  0.3937740000000  0.4565550000000  0.5057070000000 1.0
C      1  0.4645150000000  0.4532330000000  0.4048590000000 1.0
C      1  0.5816880000000  0.4538190000000  0.4337210000000 1.0
C      1  0.4996240000000  0.5650500000000  0.4722040000000 1.0
C      1  0.5394920000000  0.5574380000000  0.5000540000000 1.0
C      1  0.4895150000000  0.5635580000000  0.5232100000000 1.0
C      1  0.4703150000000  0.5791970000000  0.5080950000000 1.0
C      1  0.4699530000000  0.5710290000000  0.4806890000000 1.0
C      1  0.5020250000000  0.4174790000000  0.5197180000000 1.0
C      1  0.5120320000000  0.5209100000000  0.4957960000000 1.0
C      1  0.5039980000000  0.4629860000000  0.5131370000000 1.0
C      1  0.5098370000000  0.5523790000000  0.4993580000000 1.0
END
