TITL C-44202-2630-1 -58.4578647177594 125000 -1188.66180859179 0 0 170 (C1) n - 1
REM
REM in /rds/project/t2_vol4/rds-t2-cs072/BORA/CARBON/from-Arr/AIRSS/Generating-Clusters/GAP-ML-2020/Higher-Symm/SD-CG/HFTN-CG/C160-200
REM
REM
REM
REM
REM
REM ./C.cell (6b4489405718ea1b717e0baf1da4c2d9)
REM AIRSS Version 0.9.1 bugfix July 2018 build 013d7b7c2542+ Fri, 06 Jul 2018 19:26:36 +0100
REM compiler GCC version 9.3.0
REM options -cpp -mtune=generic -march=x86-64 -g -O0
REM seed -1137980597 1245042033 1062417114 1507387887 -437521589 1205121623 -1463526430 -723759318 -1063218204 2063736087 690116883 792388058 2124551984 614865370 1904118645 329933482 -2119684965 -968499929 1914875078 -1744172568 -2040275646 -1376554714 -128980303 -539349254 -1054169264 -830978824 -958618944 666971508 -1652234816 -2097424442 -1412460155 -261673049 -224163292
REM
CELL 1.54180   50.00000   50.00000   50.00000   90.00000   90.00000   90.00000
LATT -1
SFAC C  
C      1  0.4270480000000  0.5282450000000  0.5153930000000 1.0
C      1  0.4761520000000  0.5337630000000  0.5706050000000 1.0
C      1  0.5498320000000  0.5303500000000  0.5561610000000 1.0
C      1  0.5767250000000  0.5316100000000  0.4850300000000 1.0
C      1  0.5256560000000  0.5286190000000  0.4283550000000 1.0
C      1  0.4510700000000  0.5277860000000  0.4447600000000 1.0
C      1  0.4261690000000  0.4678670000000  0.5153240000000 1.0
C      1  0.4774390000000  0.4750600000000  0.5753680000000 1.0
C      1  0.5516960000000  0.4727450000000  0.5590710000000 1.0
C      1  0.5765360000000  0.4731860000000  0.4881600000000 1.0
C      1  0.5256050000000  0.4678470000000  0.4307190000000 1.0
C      1  0.4524350000000  0.4705170000000  0.4442440000000 1.0
C      1  0.5272910000000  0.5924400000000  0.5531630000000 1.0
C      1  0.5583320000000  0.5906500000000  0.5045370000000 1.0
C      1  0.5235100000000  0.5731120000000  0.4418710000000 1.0
C      1  0.4690730000000  0.5764660000000  0.4358010000000 1.0
C      1  0.4364340000000  0.5776760000000  0.5118750000000 1.0
C      1  0.4740800000000  0.5844490000000  0.5567090000000 1.0
C      1  0.5345690000000  0.4241830000000  0.5510910000000 1.0
C      1  0.5710040000000  0.4269060000000  0.5163380000000 1.0
C      1  0.5184880000000  0.4184300000000  0.4374740000000 1.0
C      1  0.4600660000000  0.4188380000000  0.4408000000000 1.0
C      1  0.4249900000000  0.4164490000000  0.5095360000000 1.0
C      1  0.4607040000000  0.4084090000000  0.5503350000000 1.0
C      1  0.4493630000000  0.5566130000000  0.4379360000000 1.0
C      1  0.4169160000000  0.5576880000000  0.5147960000000 1.0
C      1  0.4688530000000  0.5640730000000  0.5761980000000 1.0
C      1  0.5561430000000  0.5555790000000  0.5708730000000 1.0
C      1  0.5907910000000  0.5575030000000  0.4910780000000 1.0
C      1  0.5317920000000  0.5580540000000  0.4201120000000 1.0
C      1  0.4463010000000  0.4432870000000  0.4357580000000 1.0
C      1  0.4117140000000  0.4415550000000  0.5093050000000 1.0
C      1  0.4663650000000  0.4479970000000  0.5842950000000 1.0
C      1  0.5487670000000  0.4428080000000  0.5677800000000 1.0
C      1  0.5838550000000  0.4473080000000  0.5001900000000 1.0
C      1  0.5299810000000  0.4387540000000  0.4217880000000 1.0
C      1  0.5754330000000  0.4883040000000  0.5687460000000 1.0
C      1  0.5983600000000  0.4866690000000  0.4732570000000 1.0
C      1  0.5237430000000  0.4831710000000  0.4057200000000 1.0
C      1  0.4294560000000  0.4843380000000  0.4328020000000 1.0
C      1  0.4078070000000  0.4839080000000  0.5310420000000 1.0
C      1  0.4785080000000  0.4930340000000  0.6000730000000 1.0
C      1  0.5732040000000  0.5167080000000  0.5679270000000 1.0
C      1  0.5977180000000  0.5154740000000  0.4719210000000 1.0
C      1  0.5235230000000  0.5118040000000  0.4045390000000 1.0
C      1  0.4280370000000  0.5127330000000  0.4334450000000 1.0
C      1  0.4072320000000  0.5122900000000  0.5306680000000 1.0
C      1  0.4785550000000  0.5217890000000  0.5974050000000 1.0
C      1  0.4782140000000  0.4700930000000  0.4013250000000 1.0
C      1  0.4065470000000  0.4675000000000  0.4705430000000 1.0
C      1  0.4299240000000  0.4734890000000  0.5705480000000 1.0
C      1  0.5247760000000  0.4819720000000  0.6035910000000 1.0
C      1  0.5998820000000  0.4798780000000  0.5290270000000 1.0
C      1  0.5768180000000  0.4738820000000  0.4315430000000 1.0
C      1  0.4780320000000  0.5240830000000  0.3997600000000 1.0
C      1  0.4022860000000  0.5212260000000  0.4721580000000 1.0
C      1  0.4262360000000  0.5271520000000  0.5696370000000 1.0
C      1  0.5243740000000  0.5339600000000  0.5973010000000 1.0
C      1  0.5944400000000  0.5335650000000  0.5303680000000 1.0
C      1  0.5761160000000  0.5256320000000  0.4293470000000 1.0
C      1  0.4665260000000  0.4420060000000  0.4820680000000 1.0
C      1  0.4682690000000  0.4387350000000  0.5138080000000 1.0
C      1  0.5057120000000  0.4214410000000  0.5504480000000 1.0
C      1  0.5191800000000  0.4255140000000  0.5079590000000 1.0
C      1  0.5190990000000  0.4382930000000  0.4810410000000 1.0
C      1  0.4923830000000  0.4408470000000  0.4653120000000 1.0
C      1  0.4663370000000  0.5532450000000  0.4853480000000 1.0
C      1  0.4718880000000  0.5545540000000  0.5171310000000 1.0
C      1  0.5003480000000  0.5492160000000  0.5245820000000 1.0
C      1  0.5265330000000  0.5581340000000  0.5161490000000 1.0
C      1  0.5386770000000  0.5646130000000  0.4655350000000 1.0
C      1  0.4923820000000  0.5541970000000  0.4683970000000 1.0
C      1  0.5384570000000  0.4595610000000  0.6106560000000 1.0
C      1  0.6029080000000  0.4527120000000  0.5222260000000 1.0
C      1  0.5721410000000  0.4524090000000  0.4159610000000 1.0
C      1  0.4620410000000  0.4488330000000  0.3972480000000 1.0
C      1  0.4061330000000  0.4413860000000  0.4807180000000 1.0
C      1  0.4386770000000  0.4483410000000  0.5792520000000 1.0
C      1  0.5390910000000  0.5570600000000  0.5930010000000 1.0
C      1  0.5989170000000  0.5577930000000  0.5181510000000 1.0
C      1  0.5711100000000  0.5467130000000  0.4135010000000 1.0
C      1  0.4642090000000  0.5464320000000  0.3931980000000 1.0
C      1  0.3881120000000  0.5413980000000  0.4836480000000 1.0
C      1  0.4287770000000  0.5480470000000  0.5864040000000 1.0
C      1  0.4770300000000  0.4817680000000  0.4310040000000 1.0
C      1  0.4286640000000  0.4811800000000  0.4876010000000 1.0
C      1  0.4539470000000  0.4858030000000  0.5581490000000 1.0
C      1  0.5263880000000  0.4872170000000  0.5728970000000 1.0
C      1  0.5747260000000  0.4889290000000  0.5151730000000 1.0
C      1  0.5501980000000  0.4836520000000  0.4447440000000 1.0
C      1  0.4764250000000  0.5150680000000  0.4308680000000 1.0
C      1  0.4279290000000  0.5139980000000  0.4877390000000 1.0
C      1  0.4528920000000  0.5188780000000  0.5564940000000 1.0
C      1  0.5252850000000  0.5187820000000  0.5703840000000 1.0
C      1  0.5726470000000  0.5207600000000  0.5135190000000 1.0
C      1  0.5501420000000  0.5168370000000  0.4429840000000 1.0
C      1  0.5275560000000  0.4801700000000  0.5153030000000 1.0
C      1  0.5272860000000  0.4684430000000  0.4855470000000 1.0
C      1  0.5037580000000  0.4819200000000  0.4718250000000 1.0
C      1  0.4773180000000  0.4817710000000  0.4870130000000 1.0
C      1  0.4774030000000  0.4811310000000  0.5174010000000 1.0
C      1  0.5025910000000  0.4691490000000  0.5307340000000 1.0
C      1  0.5265480000000  0.5119530000000  0.5139370000000 1.0
C      1  0.5260990000000  0.5238820000000  0.4854860000000 1.0
C      1  0.5038420000000  0.5117450000000  0.4708920000000 1.0
C      1  0.4766120000000  0.5120520000000  0.4862880000000 1.0
C      1  0.4763950000000  0.5108960000000  0.5166430000000 1.0
C      1  0.5014120000000  0.5208920000000  0.5281770000000 1.0
C      1  0.4533410000000  0.5268880000000  0.4753760000000 1.0
C      1  0.4552410000000  0.5287770000000  0.5275190000000 1.0
C      1  0.5013290000000  0.5286590000000  0.5555600000000 1.0
C      1  0.5461180000000  0.5317490000000  0.5255290000000 1.0
C      1  0.5504180000000  0.5326470000000  0.4690850000000 1.0
C      1  0.4993420000000  0.5281670000000  0.4471000000000 1.0
C      1  0.4544860000000  0.4688510000000  0.4748850000000 1.0
C      1  0.4552880000000  0.4654580000000  0.5273890000000 1.0
C      1  0.5029320000000  0.4753010000000  0.5599340000000 1.0
C      1  0.5516930000000  0.4763360000000  0.5297540000000 1.0
C      1  0.5517970000000  0.4743000000000  0.4722070000000 1.0
C      1  0.4991620000000  0.4676210000000  0.4472010000000 1.0
C      1  0.5192580000000  0.6050870000000  0.4831310000000 1.0
C      1  0.4941930000000  0.6007780000000  0.4704300000000 1.0
C      1  0.4706400000000  0.6000750000000  0.4866730000000 1.0
C      1  0.4722500000000  0.6044790000000  0.5138530000000 1.0
C      1  0.4956460000000  0.6127330000000  0.5261460000000 1.0
C      1  0.5182640000000  0.6084210000000  0.5108720000000 1.0
C      1  0.5153340000000  0.3925350000000  0.4769880000000 1.0
C      1  0.4904080000000  0.3926770000000  0.4648310000000 1.0
C      1  0.4663930000000  0.3934580000000  0.4791610000000 1.0
C      1  0.4668730000000  0.3912990000000  0.5070160000000 1.0
C      1  0.4912570000000  0.3887500000000  0.5205770000000 1.0
C      1  0.5133090000000  0.3965690000000  0.5048840000000 1.0
C      1  0.5993950000000  0.4859060000000  0.4437770000000 1.0
C      1  0.5002060000000  0.4817230000000  0.3883340000000 1.0
C      1  0.4037340000000  0.4804360000000  0.4459430000000 1.0
C      1  0.4065370000000  0.4837590000000  0.5601800000000 1.0
C      1  0.5031390000000  0.4958810000000  0.6156720000000 1.0
C      1  0.6007870000000  0.4919870000000  0.5540350000000 1.0
C      1  0.5989200000000  0.5150580000000  0.4428230000000 1.0
C      1  0.4997480000000  0.5105280000000  0.3875560000000 1.0
C      1  0.4023080000000  0.5094350000000  0.4467880000000 1.0
C      1  0.4046400000000  0.5128070000000  0.5597670000000 1.0
C      1  0.5032770000000  0.5248660000000  0.6129770000000 1.0
C      1  0.5987770000000  0.5208260000000  0.5546150000000 1.0
C      1  0.4987690000000  0.5992690000000  0.5515640000000 1.0
C      1  0.5354800000000  0.5884060000000  0.5239460000000 1.0
C      1  0.5441040000000  0.5906940000000  0.4788930000000 1.0
C      1  0.4949980000000  0.5795640000000  0.4508920000000 1.0
C      1  0.4506230000000  0.5796600000000  0.4856450000000 1.0
C      1  0.4604200000000  0.5825870000000  0.5289550000000 1.0
C      1  0.4881010000000  0.3997530000000  0.5470260000000 1.0
C      1  0.5437790000000  0.4218620000000  0.5240590000000 1.0
C      1  0.5298990000000  0.4142790000000  0.4637750000000 1.0
C      1  0.4897200000000  0.4152030000000  0.4463410000000 1.0
C      1  0.4501080000000  0.4153840000000  0.4686660000000 1.0
C      1  0.4510480000000  0.4118130000000  0.5216170000000 1.0
C      1  0.4453180000000  0.5666400000000  0.5914350000000 1.0
C      1  0.5412470000000  0.5788190000000  0.5735160000000 1.0
C      1  0.5834470000000  0.5789720000000  0.5071950000000 1.0
C      1  0.5543390000000  0.5639510000000  0.4043650000000 1.0
C      1  0.4579380000000  0.5647800000000  0.4126170000000 1.0
C      1  0.3923890000000  0.5592370000000  0.5014050000000 1.0
C      1  0.4544530000000  0.4259800000000  0.5714060000000 1.0
C      1  0.5489070000000  0.4423670000000  0.5949690000000 1.0
C      1  0.5952580000000  0.4276990000000  0.5333980000000 1.0
C      1  0.5546250000000  0.4353910000000  0.4086150000000 1.0
C      1  0.4508200000000  0.4298230000000  0.4123960000000 1.0
C      1  0.4231350000000  0.4171940000000  0.4801830000000 1.0
C      1  0.4976660000000  0.4390570000000  0.5258530000000 1.0
C      1  0.5177630000000  0.5528160000000  0.4870030000000 1.0
END
