TITL C-44213-2641-1 -2.51520594970853 125000 -1279.84646403015 0 0 185 (C1) n - 1
REM
REM in /rds/project/t2_vol4/rds-t2-cs072/BORA/CARBON/from-Arr/AIRSS/Generating-Clusters/GAP-ML-2020/Higher-Symm/SD-CG/HFTN-CG/C160-200
REM
REM
REM
REM
REM
REM ./C.cell (6b4489405718ea1b717e0baf1da4c2d9)
REM AIRSS Version 0.9.1 bugfix July 2018 build 013d7b7c2542+ Fri, 06 Jul 2018 19:26:36 +0100
REM compiler GCC version 9.3.0
REM options -cpp -mtune=generic -march=x86-64 -g -O0
REM seed 718747775 655901174 -2114601006 -1555799481 600094724 -226039835 -980823779 184312105 1310355452 209757080 -64152241 -1965317939 -245632887 -443459421 -149967821 542996530 -1561292963 1210626067 433414798 260235629 -1453219508 -171635985 -1056182182 -119281623 283126867 596590848 370262533 -305534632 -1484858469 1180148862 431864097 1899835089 121999677
REM
CELL 1.54180   50.00000   50.00000   50.00000   90.00000   90.00000   90.00000
LATT -1
SFAC C  
C      1  0.5153070000000  0.5006760000000  0.4073950000000 1.0
C      1  0.4192030000000  0.5007260000000  0.4575620000000 1.0
C      1  0.4349190000000  0.5008710000000  0.5646860000000 1.0
C      1  0.5415330000000  0.5006250000000  0.5839070000000 1.0
C      1  0.5890690000000  0.5010110000000  0.4864870000000 1.0
C      1  0.4861820000000  0.5010690000000  0.4057490000000 1.0
C      1  0.5828790000000  0.5010600000000  0.4578130000000 1.0
C      1  0.5658360000000  0.5011930000000  0.5678120000000 1.0
C      1  0.4569620000000  0.5009870000000  0.5839140000000 1.0
C      1  0.4083500000000  0.5010490000000  0.4847280000000 1.0
C      1  0.5333750000000  0.6250640000000  0.5241890000000 1.0
C      1  0.5325710000000  0.6257590000000  0.4754000000000 1.0
C      1  0.4865960000000  0.6253970000000  0.4605660000000 1.0
C      1  0.4587610000000  0.6248850000000  0.5002260000000 1.0
C      1  0.4878950000000  0.6259420000000  0.5394280000000 1.0
C      1  0.4675270000000  0.6144560000000  0.5243260000000 1.0
C      1  0.4666260000000  0.6139640000000  0.4759230000000 1.0
C      1  0.5122280000000  0.6147120000000  0.4601360000000 1.0
C      1  0.5400200000000  0.6142040000000  0.4996280000000 1.0
C      1  0.5130920000000  0.6144310000000  0.5398530000000 1.0
C      1  0.5507890000000  0.4557440000000  0.5940030000000 1.0
C      1  0.6037470000000  0.4564920000000  0.4808060000000 1.0
C      1  0.5140990000000  0.4557080000000  0.3938350000000 1.0
C      1  0.4043730000000  0.4561970000000  0.4542510000000 1.0
C      1  0.4268340000000  0.4561470000000  0.5770730000000 1.0
C      1  0.4540880000000  0.4581820000000  0.5897660000000 1.0
C      1  0.4009760000000  0.4584090000000  0.4841050000000 1.0
C      1  0.4846980000000  0.4581640000000  0.4001810000000 1.0
C      1  0.5893420000000  0.4583780000000  0.4544500000000 1.0
C      1  0.5706210000000  0.4583470000000  0.5713780000000 1.0
C      1  0.4137770000000  0.4809230000000  0.5729690000000 1.0
C      1  0.5431080000000  0.4803140000000  0.6060760000000 1.0
C      1  0.6113330000000  0.4812380000000  0.4919290000000 1.0
C      1  0.5273300000000  0.4803620000000  0.3886600000000 1.0
C      1  0.4043500000000  0.4808040000000  0.4403850000000 1.0
C      1  0.5885290000000  0.4823720000000  0.5758680000000 1.0
C      1  0.4549100000000  0.4823680000000  0.6083300000000 1.0
C      1  0.3842730000000  0.4828730000000  0.4906380000000 1.0
C      1  0.4727810000000  0.4821460000000  0.3857510000000 1.0
C      1  0.5994890000000  0.4828190000000  0.4393400000000 1.0
C      1  0.5653190000000  0.4872050000000  0.5037070000000 1.0
C      1  0.5247090000000  0.4859770000000  0.4349110000000 1.0
C      1  0.4483900000000  0.4866250000000  0.4569870000000 1.0
C      1  0.4439640000000  0.4866110000000  0.5368950000000 1.0
C      1  0.5176400000000  0.4859310000000  0.5673790000000 1.0
C      1  0.4236820000000  0.4754100000000  0.4983840000000 1.0
C      1  0.4783290000000  0.4755090000000  0.4258200000000 1.0
C      1  0.5628490000000  0.4753300000000  0.4556380000000 1.0
C      1  0.5603060000000  0.4756680000000  0.5467710000000 1.0
C      1  0.4746970000000  0.4753240000000  0.5733320000000 1.0
C      1  0.6034500000000  0.5178990000000  0.5482410000000 1.0
C      1  0.5779060000000  0.5175440000000  0.4156240000000 1.0
C      1  0.4441710000000  0.5175100000000  0.3991960000000 1.0
C      1  0.3884100000000  0.5179100000000  0.5221230000000 1.0
C      1  0.4862390000000  0.5173010000000  0.6147850000000 1.0
C      1  0.3964130000000  0.5179210000000  0.5491540000000 1.0
C      1  0.4213300000000  0.5175850000000  0.4159100000000 1.0
C      1  0.5556130000000  0.5173650000000  0.3981890000000 1.0
C      1  0.6120990000000  0.5180940000000  0.5213860000000 1.0
C      1  0.5145780000000  0.5171970000000  0.6153730000000 1.0
C      1  0.4849400000000  0.5669490000000  0.5722200000000 1.0
C      1  0.5617000000000  0.5658080000000  0.5361280000000 1.0
C      1  0.5534520000000  0.5667740000000  0.4512890000000 1.0
C      1  0.4705340000000  0.5663670000000  0.4329490000000 1.0
C      1  0.4297460000000  0.5659980000000  0.5073820000000 1.0
C      1  0.5148860000000  0.5693870000000  0.5729120000000 1.0
C      1  0.4374690000000  0.5689830000000  0.5360050000000 1.0
C      1  0.4463700000000  0.5688070000000  0.4506420000000 1.0
C      1  0.5303140000000  0.5695260000000  0.4324950000000 1.0
C      1  0.5712530000000  0.5687280000000  0.5078600000000 1.0
C      1  0.5888220000000  0.4326950000000  0.4872410000000 1.0
C      1  0.5155270000000  0.4321460000000  0.4104320000000 1.0
C      1  0.4203460000000  0.4324760000000  0.4578800000000 1.0
C      1  0.4352820000000  0.4324720000000  0.5629510000000 1.0
C      1  0.5399080000000  0.4321380000000  0.5814940000000 1.0
C      1  0.4121500000000  0.4306420000000  0.4876620000000 1.0
C      1  0.4846670000000  0.4305500000000  0.4122020000000 1.0
C      1  0.5783380000000  0.4305080000000  0.4582500000000 1.0
C      1  0.5637340000000  0.4307260000000  0.5617720000000 1.0
C      1  0.4609320000000  0.4303920000000  0.5801120000000 1.0
C      1  0.4834540000000  0.4655930000000  0.5440840000000 1.0
C      1  0.5350090000000  0.4657670000000  0.5299720000000 1.0
C      1  0.5385780000000  0.4657220000000  0.4740840000000 1.0
C      1  0.4886970000000  0.4656490000000  0.4544660000000 1.0
C      1  0.4538530000000  0.4657310000000  0.4972490000000 1.0
C      1  0.5136410000000  0.4578840000000  0.5505760000000 1.0
C      1  0.4575560000000  0.4583980000000  0.5286040000000 1.0
C      1  0.4602710000000  0.4584750000000  0.4676420000000 1.0
C      1  0.5181300000000  0.4578710000000  0.4508410000000 1.0
C      1  0.5502370000000  0.4588310000000  0.5022320000000 1.0
C      1  0.4689670000000  0.5450990000000  0.4978860000000 1.0
C      1  0.4863750000000  0.5446280000000  0.5358830000000 1.0
C      1  0.5278340000000  0.5444090000000  0.5252150000000 1.0
C      1  0.5272550000000  0.5451830000000  0.4809800000000 1.0
C      1  0.4914560000000  0.5444670000000  0.4613650000000 1.0
C      1  0.5369280000000  0.5318510000000  0.5027330000000 1.0
C      1  0.5099440000000  0.5318050000000  0.5419130000000 1.0
C      1  0.4668660000000  0.5317040000000  0.5218150000000 1.0
C      1  0.4704270000000  0.5318530000000  0.4738030000000 1.0
C      1  0.5158010000000  0.5317650000000  0.4598140000000 1.0
C      1  0.5659290000000  0.4322790000000  0.5066060000000 1.0
C      1  0.5270140000000  0.4310950000000  0.4381120000000 1.0
C      1  0.4502230000000  0.4318170000000  0.4553450000000 1.0
C      1  0.4424490000000  0.4317780000000  0.5338350000000 1.0
C      1  0.5142530000000  0.4310830000000  0.5660240000000 1.0
C      1  0.4286940000000  0.4217280000000  0.5075670000000 1.0
C      1  0.4707560000000  0.4215490000000  0.4340170000000 1.0
C      1  0.5534330000000  0.4213100000000  0.4516750000000 1.0
C      1  0.5620110000000  0.4218910000000  0.5359080000000 1.0
C      1  0.4849480000000  0.4211870000000  0.5707470000000 1.0
C      1  0.5259760000000  0.4910170000000  0.6252320000000 1.0
C      1  0.6251720000000  0.4920440000000  0.5133920000000 1.0
C      1  0.5524490000000  0.4911990000000  0.3834540000000 1.0
C      1  0.4061260000000  0.4914890000000  0.4148080000000 1.0
C      1  0.3902060000000  0.4918800000000  0.5631510000000 1.0
C      1  0.4749990000000  0.4912470000000  0.6248130000000 1.0
C      1  0.3749360000000  0.4920030000000  0.5147330000000 1.0
C      1  0.4468960000000  0.4912030000000  0.3846770000000 1.0
C      1  0.5931990000000  0.4917040000000  0.4141580000000 1.0
C      1  0.6099780000000  0.4915590000000  0.5614940000000 1.0
C      1  0.5369760000000  0.5513330000000  0.5792390000000 1.0
C      1  0.5843400000000  0.5514070000000  0.4886940000000 1.0
C      1  0.5162000000000  0.5514410000000  0.4139890000000 1.0
C      1  0.4248330000000  0.5512090000000  0.4585840000000 1.0
C      1  0.4378530000000  0.5514320000000  0.5594870000000 1.0
C      1  0.4626790000000  0.5505600000000  0.5790970000000 1.0
C      1  0.4155580000000  0.5504520000000  0.4885110000000 1.0
C      1  0.4843330000000  0.5505860000000  0.4134000000000 1.0
C      1  0.5753150000000  0.5504910000000  0.4586880000000 1.0
C      1  0.5624760000000  0.5505620000000  0.5603740000000 1.0
C      1  0.4899100000000  0.4894850000000  0.5291380000000 1.0
C      1  0.5216340000000  0.4897830000000  0.5213120000000 1.0
C      1  0.5244630000000  0.4896260000000  0.4817920000000 1.0
C      1  0.4939670000000  0.4896290000000  0.4697090000000 1.0
C      1  0.4688880000000  0.4900000000000  0.4978130000000 1.0
C      1  0.5105020000000  0.5034510000000  0.5444890000000 1.0
C      1  0.4651920000000  0.5031080000000  0.5226500000000 1.0
C      1  0.4685700000000  0.5032450000000  0.4727110000000 1.0
C      1  0.5169820000000  0.5034510000000  0.4576450000000 1.0
C      1  0.5388790000000  0.5031100000000  0.5025660000000 1.0
C      1  0.4853500000000  0.4071370000000  0.4561110000000 1.0
C      1  0.4542360000000  0.4073710000000  0.5004100000000 1.0
C      1  0.4861730000000  0.4070090000000  0.5441110000000 1.0
C      1  0.5372990000000  0.4073470000000  0.5267310000000 1.0
C      1  0.5367870000000  0.4071620000000  0.4725350000000 1.0
C      1  0.5127880000000  0.4098670000000  0.4565450000000 1.0
C      1  0.5443950000000  0.4104930000000  0.4988360000000 1.0
C      1  0.5149540000000  0.4098840000000  0.5427190000000 1.0
C      1  0.4645360000000  0.4102190000000  0.5273350000000 1.0
C      1  0.4631810000000  0.4102770000000  0.4744620000000 1.0
C      1  0.4853310000000  0.5728770000000  0.5424970000000 1.0
C      1  0.5337600000000  0.5725750000000  0.5273530000000 1.0
C      1  0.5349390000000  0.5724200000000  0.4750780000000 1.0
C      1  0.4880250000000  0.5729010000000  0.4564640000000 1.0
C      1  0.4585450000000  0.5719200000000  0.4987550000000 1.0
C      1  0.5140820000000  0.5845810000000  0.5457110000000 1.0
C      1  0.4630470000000  0.5845710000000  0.5274380000000 1.0
C      1  0.4632170000000  0.5839350000000  0.4719800000000 1.0
C      1  0.5146190000000  0.5849680000000  0.4545120000000 1.0
C      1  0.5451360000000  0.5840900000000  0.5003460000000 1.0
C      1  0.5850720000000  0.4750830000000  0.3940570000000 1.0
C      1  0.4251810000000  0.4747320000000  0.3868140000000 1.0
C      1  0.3693660000000  0.4757490000000  0.5359670000000 1.0
C      1  0.4935660000000  0.4746090000000  0.6360170000000 1.0
C      1  0.6266720000000  0.4753160000000  0.5472090000000 1.0
C      1  0.4002010000000  0.4764000000000  0.3924220000000 1.0
C      1  0.5725220000000  0.4763140000000  0.3717570000000 1.0
C      1  0.6434240000000  0.4770840000000  0.5278410000000 1.0
C      1  0.5169040000000  0.4759850000000  0.6465090000000 1.0
C      1  0.3668890000000  0.4771040000000  0.5614420000000 1.0
C      1  0.5974820000000  0.5272980000000  0.4986140000000 1.0
C      1  0.5294400000000  0.5270830000000  0.4040870000000 1.0
C      1  0.4196470000000  0.5269920000000  0.4428380000000 1.0
C      1  0.4213990000000  0.5272680000000  0.5593710000000 1.0
C      1  0.5321600000000  0.5269260000000  0.5951130000000 1.0
C      1  0.4033810000000  0.5263610000000  0.4988120000000 1.0
C      1  0.4711360000000  0.5262540000000  0.4052050000000 1.0
C      1  0.5791820000000  0.5262910000000  0.4432160000000 1.0
C      1  0.5781080000000  0.5264370000000  0.5592990000000 1.0
C      1  0.4685760000000  0.5261710000000  0.5935860000000 1.0
C      1  0.5513170000000  0.4798050000000  0.4305650000000 1.0
C      1  0.4514060000000  0.4807570000000  0.4299800000000 1.0
C      1  0.4988000000000  0.4798410000000  0.5866650000000 1.0
C      1  0.4192990000000  0.4806490000000  0.5253590000000 1.0
C      1  0.5791500000000  0.4814410000000  0.5273330000000 1.0
END
