TITL C-44204-3729-3 27.8986208093647 125000 -1221.18205691389 0 0 175 (C1) n - 1
REM
REM in /rds/project/t2_vol4/rds-t2-cs072/BORA/CARBON/from-Arr/AIRSS/Generating-Clusters/GAP-ML-2020/Higher-Symm/SD-CG/HFTN-CG/C160-200
REM
REM
REM
REM
REM
REM ./C.cell (6b4489405718ea1b717e0baf1da4c2d9)
REM AIRSS Version 0.9.1 bugfix July 2018 build 013d7b7c2542+ Fri, 06 Jul 2018 19:26:36 +0100
REM compiler GCC version 9.3.0
REM options -cpp -mtune=generic -march=x86-64 -g -O0
REM seed -1125328773 -34485556 1593323208 1990914143 1510828334 1948939920 933358493 1495542020 -2128338781 1121563691 30803075 1331689663 -640498957 -1771296113 -25911292 -280597594 -1113786370 1063983193 1686086609 -416024396 -2104868910 -1722971941 -1374676855 100823132 -1730089281 314518843 -726213598 -323067096 469673228 78114529 907103310 -854773869 -339156861
REM
CELL 1.54180   50.00000   50.00000   50.00000   90.00000   90.00000   90.00000
LATT -1
SFAC C  
C      1  0.4501280000000  0.5193990000000  0.4501580000000 1.0
C      1  0.4350210000000  0.4422660000000  0.5215200000000 1.0
C      1  0.5213290000000  0.4528270000000  0.4467660000000 1.0
C      1  0.4463500000000  0.4802150000000  0.5473820000000 1.0
C      1  0.5515470000000  0.4841290000000  0.4475110000000 1.0
C      1  0.5459260000000  0.5137710000000  0.5439050000000 1.0
C      1  0.4480680000000  0.5487150000000  0.4804230000000 1.0
C      1  0.5437200000000  0.5457840000000  0.5164110000000 1.0
C      1  0.5420260000000  0.4581180000000  0.4848410000000 1.0
C      1  0.5233420000000  0.5503150000000  0.5367010000000 1.0
C      1  0.4761200000000  0.5563930000000  0.4422590000000 1.0
C      1  0.4769650000000  0.4525200000000  0.5458800000000 1.0
C      1  0.4192350000000  0.4864510000000  0.5857700000000 1.0
C      1  0.5832360000000  0.4221860000000  0.4817380000000 1.0
C      1  0.4948770000000  0.5706540000000  0.4228280000000 1.0
C      1  0.4179510000000  0.5155720000000  0.4193710000000 1.0
C      1  0.5788490000000  0.5213610000000  0.5838320000000 1.0
C      1  0.5918050000000  0.4797180000000  0.4205780000000 1.0
C      1  0.5835350000000  0.5784040000000  0.5240750000000 1.0
C      1  0.4203160000000  0.5854760000000  0.4859580000000 1.0
C      1  0.4241450000000  0.4180090000000  0.5076970000000 1.0
C      1  0.4734320000000  0.4218650000000  0.5804880000000 1.0
C      1  0.5272170000000  0.4173720000000  0.4187450000000 1.0
C      1  0.5246530000000  0.5827680000000  0.5818530000000 1.0
C      1  0.4657850000000  0.4097620000000  0.4605050000000 1.0
C      1  0.4698270000000  0.4563710000000  0.4137400000000 1.0
C      1  0.4129950000000  0.4460250000000  0.4713370000000 1.0
C      1  0.4636670000000  0.5847190000000  0.5411770000000 1.0
C      1  0.5437470000000  0.5858520000000  0.4681220000000 1.0
C      1  0.5381780000000  0.4199930000000  0.5352490000000 1.0
C      1  0.4701280000000  0.5413630000000  0.5855810000000 1.0
C      1  0.5439620000000  0.5357360000000  0.4079090000000 1.0
C      1  0.5301870000000  0.4621930000000  0.5880060000000 1.0
C      1  0.4221870000000  0.5400350000000  0.5477280000000 1.0
C      1  0.5864820000000  0.5332170000000  0.4616800000000 1.0
C      1  0.5820410000000  0.4683850000000  0.5421580000000 1.0
C      1  0.4672430000000  0.5567580000000  0.5355520000000 1.0
C      1  0.5224730000000  0.4630010000000  0.5604790000000 1.0
C      1  0.5571730000000  0.5338380000000  0.4617010000000 1.0
C      1  0.4705910000000  0.4378320000000  0.4641680000000 1.0
C      1  0.5384420000000  0.4465570000000  0.5429960000000 1.0
C      1  0.5403580000000  0.5580370000000  0.4601200000000 1.0
C      1  0.5391430000000  0.5401480000000  0.4363660000000 1.0
C      1  0.4740070000000  0.5324540000000  0.5575420000000 1.0
C      1  0.4629740000000  0.4558680000000  0.4428410000000 1.0
C      1  0.5539980000000  0.4681450000000  0.5363350000000 1.0
C      1  0.4334480000000  0.4627180000000  0.4533630000000 1.0
C      1  0.4497880000000  0.5330630000000  0.5401700000000 1.0
C      1  0.4992490000000  0.4134140000000  0.4256540000000 1.0
C      1  0.4355800000000  0.4913450000000  0.4116410000000 1.0
C      1  0.4199310000000  0.4195080000000  0.4790990000000 1.0
C      1  0.4965140000000  0.5855800000000  0.5753790000000 1.0
C      1  0.5086310000000  0.5892750000000  0.4362040000000 1.0
C      1  0.5010930000000  0.4186700000000  0.5689770000000 1.0
C      1  0.4297270000000  0.5132000000000  0.5895640000000 1.0
C      1  0.5814310000000  0.5061620000000  0.4163240000000 1.0
C      1  0.5697060000000  0.4933980000000  0.5860360000000 1.0
C      1  0.4182610000000  0.5766260000000  0.5148690000000 1.0
C      1  0.5848770000000  0.5690020000000  0.4963470000000 1.0
C      1  0.5833340000000  0.4315310000000  0.5100650000000 1.0
C      1  0.4964800000000  0.5503010000000  0.4016710000000 1.0
C      1  0.4032750000000  0.4942160000000  0.5622940000000 1.0
C      1  0.5598760000000  0.4060760000000  0.4869160000000 1.0
C      1  0.4811690000000  0.4438550000000  0.5971190000000 1.0
C      1  0.5204240000000  0.4401730000000  0.4013960000000 1.0
C      1  0.5176790000000  0.5594110000000  0.5970300000000 1.0
C      1  0.4049530000000  0.5017070000000  0.4407440000000 1.0
C      1  0.5950810000000  0.5150150000000  0.5607530000000 1.0
C      1  0.6010350000000  0.4850180000000  0.4461910000000 1.0
C      1  0.5607910000000  0.5955610000000  0.5190460000000 1.0
C      1  0.4459250000000  0.5987180000000  0.4941790000000 1.0
C      1  0.4458470000000  0.3989730000000  0.5048670000000 1.0
C      1  0.5942940000000  0.5135090000000  0.4424200000000 1.0
C      1  0.4428850000000  0.5908400000000  0.5220210000000 1.0
C      1  0.5090730000000  0.4421910000000  0.5876160000000 1.0
C      1  0.5876210000000  0.4867210000000  0.5631150000000 1.0
C      1  0.4205420000000  0.4783320000000  0.4328670000000 1.0
C      1  0.4128030000000  0.5220700000000  0.5669730000000 1.0
C      1  0.4435890000000  0.4011930000000  0.4756300000000 1.0
C      1  0.5594040000000  0.4151190000000  0.5153040000000 1.0
C      1  0.5627370000000  0.5881790000000  0.4898030000000 1.0
C      1  0.5186140000000  0.5347960000000  0.3935950000000 1.0
C      1  0.4887650000000  0.5622700000000  0.5914830000000 1.0
C      1  0.4914970000000  0.4376500000000  0.4093880000000 1.0
C      1  0.4573640000000  0.5381660000000  0.4266500000000 1.0
C      1  0.4224520000000  0.4580440000000  0.5437860000000 1.0
C      1  0.5303330000000  0.4379740000000  0.4687960000000 1.0
C      1  0.4662150000000  0.4713490000000  0.5647260000000 1.0
C      1  0.5477400000000  0.4601550000000  0.4304990000000 1.0
C      1  0.5252280000000  0.5296090000000  0.5577210000000 1.0
C      1  0.4283940000000  0.5337020000000  0.4646450000000 1.0
C      1  0.5627040000000  0.5289820000000  0.5281300000000 1.0
C      1  0.5628000000000  0.4727900000000  0.4712010000000 1.0
C      1  0.5462450000000  0.5857910000000  0.5640800000000 1.0
C      1  0.4622510000000  0.5695380000000  0.4641110000000 1.0
C      1  0.4579600000000  0.4297880000000  0.5373180000000 1.0
C      1  0.4541850000000  0.5143360000000  0.5170630000000 1.0
C      1  0.4966910000000  0.4586840000000  0.5033560000000 1.0
C      1  0.5156050000000  0.5224970000000  0.4411770000000 1.0
C      1  0.4429310000000  0.4807290000000  0.4768200000000 1.0
C      1  0.5332970000000  0.4939300000000  0.4999650000000 1.0
C      1  0.5380920000000  0.5139300000000  0.4795640000000 1.0
C      1  0.5151020000000  0.5494630000000  0.4755120000000 1.0
C      1  0.4825660000000  0.5488430000000  0.5124980000000 1.0
C      1  0.4732940000000  0.4505150000000  0.4898080000000 1.0
C      1  0.5083530000000  0.4864880000000  0.5431500000000 1.0
C      1  0.4804200000000  0.4797670000000  0.4500870000000 1.0
C      1  0.4993500000000  0.5166420000000  0.5477010000000 1.0
C      1  0.5921370000000  0.5327430000000  0.5367910000000 1.0
C      1  0.5403710000000  0.5994860000000  0.5388740000000 1.0
C      1  0.5329240000000  0.5357480000000  0.5897010000000 1.0
C      1  0.5924830000000  0.4677100000000  0.4688410000000 1.0
C      1  0.4013210000000  0.4775550000000  0.5381950000000 1.0
C      1  0.4059920000000  0.5136240000000  0.4678650000000 1.0
C      1  0.5385420000000  0.4080610000000  0.4662200000000 1.0
C      1  0.4664380000000  0.4050190000000  0.5235080000000 1.0
C      1  0.4686710000000  0.5938830000000  0.4773620000000 1.0
C      1  0.5376770000000  0.4630830000000  0.4029560000000 1.0
C      1  0.4638100000000  0.4683600000000  0.5951350000000 1.0
C      1  0.4748870000000  0.5314420000000  0.4038700000000 1.0
C      1  0.5939700000000  0.4566840000000  0.5184060000000 1.0
C      1  0.5170030000000  0.5977160000000  0.4610780000000 1.0
C      1  0.4562500000000  0.5186350000000  0.5981090000000 1.0
C      1  0.5956420000000  0.5437900000000  0.4876510000000 1.0
C      1  0.4080750000000  0.5513150000000  0.5240570000000 1.0
C      1  0.4004700000000  0.4608150000000  0.4916780000000 1.0
C      1  0.5118590000000  0.4092810000000  0.5434830000000 1.0
C      1  0.4911710000000  0.4015330000000  0.4499580000000 1.0
C      1  0.4889020000000  0.5961330000000  0.5505440000000 1.0
C      1  0.4621680000000  0.4838740000000  0.4025950000000 1.0
C      1  0.5438980000000  0.4864970000000  0.5963120000000 1.0
C      1  0.5563020000000  0.5102540000000  0.4035210000000 1.0
C      1  0.4115430000000  0.5774400000000  0.4611730000000 1.0
C      1  0.4490330000000  0.4254810000000  0.5654820000000 1.0
C      1  0.5660450000000  0.4365580000000  0.4376250000000 1.0
C      1  0.4288810000000  0.4445400000000  0.5706200000000 1.0
C      1  0.5848450000000  0.4399690000000  0.4596250000000 1.0
C      1  0.5865040000000  0.5613980000000  0.5459300000000 1.0
C      1  0.4171050000000  0.5554470000000  0.4457380000000 1.0
C      1  0.5672350000000  0.5655100000000  0.5673210000000 1.0
C      1  0.5480240000000  0.4140630000000  0.4372790000000 1.0
C      1  0.5619880000000  0.5435200000000  0.5853130000000 1.0
C      1  0.4265830000000  0.5429830000000  0.4223030000000 1.0
C      1  0.4337020000000  0.4634720000000  0.5914740000000 1.0
C      1  0.4956570000000  0.5359300000000  0.4578990000000 1.0
C      1  0.4596290000000  0.4861660000000  0.5218600000000 1.0
C      1  0.5170460000000  0.4729370000000  0.4887950000000 1.0
C      1  0.4877480000000  0.4719860000000  0.5272680000000 1.0
C      1  0.5082090000000  0.4764750000000  0.4587540000000 1.0
C      1  0.5041910000000  0.5333710000000  0.5206630000000 1.0
C      1  0.4637470000000  0.4978700000000  0.4634700000000 1.0
C      1  0.5357730000000  0.4914670000000  0.5290590000000 1.0
C      1  0.5265720000000  0.4992450000000  0.4540930000000 1.0
C      1  0.5243020000000  0.5327080000000  0.4975910000000 1.0
C      1  0.4658910000000  0.5317130000000  0.4959390000000 1.0
C      1  0.4503690000000  0.4652990000000  0.5008150000000 1.0
C      1  0.4816710000000  0.5050410000000  0.3948190000000 1.0
C      1  0.3958370000000  0.4816810000000  0.5088490000000 1.0
C      1  0.5115000000000  0.3955640000000  0.4708740000000 1.0
C      1  0.4736130000000  0.4956930000000  0.6050860000000 1.0
C      1  0.5355300000000  0.4907430000000  0.3950380000000 1.0
C      1  0.5257380000000  0.5087140000000  0.6024670000000 1.0
C      1  0.3955050000000  0.5332150000000  0.5078250000000 1.0
C      1  0.6047640000000  0.5256890000000  0.5094150000000 1.0
C      1  0.6041140000000  0.4741990000000  0.4970390000000 1.0
C      1  0.5113190000000  0.6047970000000  0.5326200000000 1.0
C      1  0.4958070000000  0.6037090000000  0.4818640000000 1.0
C      1  0.4944120000000  0.3981870000000  0.5217700000000 1.0
C      1  0.5022830000000  0.6095780000000  0.5074520000000 1.0
C      1  0.5000540000000  0.5017460000000  0.6092830000000 1.0
C      1  0.6124830000000  0.4996690000000  0.5035150000000 1.0
C      1  0.5021520000000  0.3908250000000  0.4962870000000 1.0
C      1  0.5108800000000  0.5071280000000  0.3899930000000 1.0
C      1  0.3956920000000  0.5089090000000  0.4948340000000 1.0
C      1  0.4792370000000  0.5184670000000  0.4743480000000 1.0
END
