TITL C-44208-2559-1 -49.6652017806197 125000 -1321.76700698214 0 0 185 (C1) n - 1
REM
REM in /rds/project/t2_vol4/rds-t2-cs072/BORA/CARBON/from-Arr/AIRSS/Generating-Clusters/GAP-ML-2020/Higher-Symm/SD-CG/HFTN-CG/C160-200
REM
REM
REM
REM
REM
REM ./C.cell (6b4489405718ea1b717e0baf1da4c2d9)
REM AIRSS Version 0.9.1 bugfix July 2018 build 013d7b7c2542+ Fri, 06 Jul 2018 19:26:36 +0100
REM compiler GCC version 9.3.0
REM options -cpp -mtune=generic -march=x86-64 -g -O0
REM seed 783655996 -546759145 -578336501 -1846643910 2103895694 552354619 -926878129 625333628 -300591678 -1979181724 -1828926082 366317824 1595751502 -1340291139 -1664275183 1402120288 543138394 -1993175886 2122134135 1397077346 2064617415 -1977858131 299569546 -1241751027 -689324711 1420371131 831117913 -656739331 -73858629 1177918960 -545686189 -1206468610 -173204626
REM
CELL 1.54180   50.00000   50.00000   50.00000   90.00000   90.00000   90.00000
LATT -1
SFAC C  
C      1  0.5294060000000  0.6036490000000  0.5080950000000 1.0
C      1  0.5098130000000  0.5266210000000  0.6063720000000 1.0
C      1  0.6046400000000  0.5036080000000  0.5242940000000 1.0
C      1  0.4737430000000  0.6038280000000  0.4959210000000 1.0
C      1  0.5260440000000  0.3937920000000  0.4904310000000 1.0
C      1  0.4747870000000  0.3961510000000  0.5098580000000 1.0
C      1  0.4944350000000  0.5299670000000  0.3950560000000 1.0
C      1  0.5050180000000  0.4733940000000  0.3934210000000 1.0
C      1  0.4903410000000  0.4750110000000  0.6053450000000 1.0
C      1  0.3969910000000  0.5049640000000  0.4728430000000 1.0
C      1  0.6031610000000  0.4907890000000  0.4695520000000 1.0
C      1  0.3924120000000  0.4888300000000  0.5272910000000 1.0
C      1  0.5103940000000  0.6034120000000  0.5283770000000 1.0
C      1  0.6042860000000  0.5238610000000  0.5047490000000 1.0
C      1  0.5284120000000  0.5062200000000  0.6066040000000 1.0
C      1  0.4928930000000  0.6048230000000  0.4757580000000 1.0
C      1  0.4948680000000  0.3949760000000  0.5290590000000 1.0
C      1  0.5055270000000  0.3942330000000  0.4717980000000 1.0
C      1  0.3947290000000  0.5247960000000  0.4922250000000 1.0
C      1  0.3942300000000  0.4694270000000  0.5082310000000 1.0
C      1  0.6039110000000  0.4705560000000  0.4885830000000 1.0
C      1  0.4736990000000  0.5117430000000  0.3933400000000 1.0
C      1  0.4716040000000  0.4953790000000  0.6038200000000 1.0
C      1  0.5257430000000  0.4916570000000  0.3930800000000 1.0
C      1  0.5632320000000  0.5125270000000  0.4135940000000 1.0
C      1  0.4102100000000  0.5672490000000  0.5108810000000 1.0
C      1  0.5145790000000  0.4154500000000  0.5698020000000 1.0
C      1  0.4316830000000  0.5142140000000  0.5826230000000 1.0
C      1  0.5693680000000  0.4869810000000  0.5882460000000 1.0
C      1  0.4352130000000  0.4904800000000  0.4092800000000 1.0
C      1  0.5892240000000  0.5663390000000  0.4906760000000 1.0
C      1  0.4171380000000  0.4345690000000  0.4871750000000 1.0
C      1  0.5848070000000  0.4329780000000  0.5105740000000 1.0
C      1  0.4862320000000  0.4132210000000  0.4308660000000 1.0
C      1  0.5138460000000  0.5877740000000  0.4377330000000 1.0
C      1  0.4887690000000  0.5840770000000  0.5661720000000 1.0
C      1  0.4106080000000  0.5117750000000  0.5633730000000 1.0
C      1  0.5133590000000  0.5689810000000  0.4169020000000 1.0
C      1  0.5651060000000  0.4124000000000  0.5109070000000 1.0
C      1  0.5821360000000  0.5134890000000  0.4342120000000 1.0
C      1  0.5882470000000  0.4854990000000  0.5670290000000 1.0
C      1  0.4172660000000  0.4879750000000  0.4309630000000 1.0
C      1  0.4889340000000  0.5646040000000  0.5864510000000 1.0
C      1  0.4857470000000  0.4326230000000  0.4101720000000 1.0
C      1  0.5122440000000  0.4366970000000  0.5889510000000 1.0
C      1  0.4373820000000  0.4149780000000  0.4881450000000 1.0
C      1  0.4326690000000  0.5845830000000  0.5127020000000 1.0
C      1  0.5697190000000  0.5865790000000  0.4918400000000 1.0
C      1  0.5581110000000  0.4632180000000  0.5963100000000 1.0
C      1  0.5830740000000  0.5607040000000  0.4620270000000 1.0
C      1  0.4686760000000  0.5937120000000  0.5461910000000 1.0
C      1  0.4545520000000  0.4703600000000  0.3994230000000 1.0
C      1  0.5447350000000  0.5324540000000  0.4023760000000 1.0
C      1  0.4433020000000  0.5376590000000  0.5914810000000 1.0
C      1  0.4030220000000  0.5565160000000  0.5351010000000 1.0
C      1  0.5964860000000  0.4521480000000  0.5304620000000 1.0
C      1  0.4080130000000  0.4549400000000  0.4673350000000 1.0
C      1  0.5348400000000  0.5933430000000  0.4576930000000 1.0
C      1  0.4616000000000  0.4087310000000  0.4420970000000 1.0
C      1  0.5379540000000  0.4061380000000  0.5573500000000 1.0
C      1  0.5922530000000  0.4599480000000  0.5564050000000 1.0
C      1  0.4686570000000  0.5454890000000  0.5972610000000 1.0
C      1  0.5615770000000  0.5827320000000  0.4638180000000 1.0
C      1  0.4135830000000  0.4630860000000  0.4420720000000 1.0
C      1  0.3995890000000  0.5303920000000  0.5428940000000 1.0
C      1  0.5910060000000  0.5335840000000  0.4542580000000 1.0
C      1  0.5361460000000  0.5574100000000  0.4075780000000 1.0
C      1  0.5318950000000  0.4559460000000  0.6006730000000 1.0
C      1  0.4612730000000  0.4441990000000  0.4042960000000 1.0
C      1  0.4430600000000  0.5874400000000  0.5384370000000 1.0
C      1  0.4559000000000  0.4036620000000  0.4683430000000 1.0
C      1  0.5460120000000  0.4016670000000  0.5316220000000 1.0
C      1  0.5524140000000  0.5866300000000  0.5149440000000 1.0
C      1  0.5150300000000  0.5488040000000  0.5877610000000 1.0
C      1  0.5884250000000  0.5101470000000  0.5492360000000 1.0
C      1  0.4503260000000  0.5866510000000  0.4887920000000 1.0
C      1  0.5491670000000  0.4112320000000  0.4846570000000 1.0
C      1  0.4517620000000  0.4137810000000  0.5144260000000 1.0
C      1  0.4882340000000  0.5520650000000  0.4141120000000 1.0
C      1  0.5103620000000  0.4496630000000  0.4108840000000 1.0
C      1  0.4859020000000  0.4509500000000  0.5889060000000 1.0
C      1  0.4139680000000  0.5125980000000  0.4492430000000 1.0
C      1  0.5849430000000  0.4859580000000  0.4472360000000 1.0
C      1  0.4098300000000  0.4849050000000  0.5510210000000 1.0
C      1  0.5153240000000  0.5857460000000  0.5516730000000 1.0
C      1  0.5887720000000  0.5476340000000  0.5132750000000 1.0
C      1  0.5517950000000  0.5114330000000  0.5882490000000 1.0
C      1  0.4870910000000  0.5893190000000  0.4513360000000 1.0
C      1  0.4882550000000  0.4123100000000  0.5528870000000 1.0
C      1  0.5104630000000  0.4129150000000  0.4488050000000 1.0
C      1  0.4103080000000  0.5503180000000  0.4860850000000 1.0
C      1  0.4129330000000  0.4473550000000  0.5139360000000 1.0
C      1  0.5858190000000  0.4477800000000  0.4840290000000 1.0
C      1  0.4495120000000  0.5166110000000  0.4098620000000 1.0
C      1  0.4491130000000  0.4890430000000  0.5855330000000 1.0
C      1  0.5480210000000  0.4859460000000  0.4115040000000 1.0
C      1  0.4507260000000  0.5032570000000  0.5202600000000 1.0
C      1  0.5272610000000  0.4500770000000  0.5090860000000 1.0
C      1  0.5028650000000  0.5243270000000  0.4584550000000 1.0
C      1  0.5437720000000  0.5062690000000  0.4731310000000 1.0
C      1  0.4589580000000  0.4976800000000  0.4745090000000 1.0
C      1  0.5502420000000  0.4857300000000  0.5306170000000 1.0
C      1  0.4774670000000  0.4635770000000  0.5013100000000 1.0
C      1  0.5261210000000  0.5450770000000  0.4932960000000 1.0
C      1  0.4739440000000  0.5401690000000  0.5031630000000 1.0
C      1  0.4878880000000  0.5266450000000  0.5481910000000 1.0
C      1  0.5075710000000  0.4727920000000  0.5439960000000 1.0
C      1  0.4865780000000  0.4702800000000  0.4517560000000 1.0
C      1  0.5257530000000  0.5096170000000  0.4512940000000 1.0
C      1  0.5119780000000  0.4478170000000  0.5308850000000 1.0
C      1  0.4481290000000  0.5295160000000  0.5107850000000 1.0
C      1  0.4744760000000  0.5025600000000  0.5394020000000 1.0
C      1  0.4685520000000  0.4894640000000  0.4490780000000 1.0
C      1  0.5310420000000  0.4858570000000  0.5506640000000 1.0
C      1  0.4879590000000  0.4545790000000  0.4748420000000 1.0
C      1  0.4924200000000  0.5437310000000  0.5257260000000 1.0
C      1  0.5112160000000  0.5497800000000  0.4698970000000 1.0
C      1  0.5486620000000  0.5279780000000  0.4894980000000 1.0
C      1  0.5436430000000  0.4735500000000  0.5064470000000 1.0
C      1  0.4534070000000  0.4819640000000  0.4982380000000 1.0
C      1  0.5341970000000  0.4828860000000  0.4393190000000 1.0
C      1  0.4381960000000  0.5394220000000  0.4829420000000 1.0
C      1  0.4838350000000  0.4391190000000  0.5404830000000 1.0
C      1  0.4611530000000  0.4825630000000  0.5584110000000 1.0
C      1  0.5376570000000  0.5137940000000  0.5601740000000 1.0
C      1  0.4609310000000  0.5183940000000  0.4380640000000 1.0
C      1  0.5604000000000  0.5352890000000  0.5164820000000 1.0
C      1  0.4397140000000  0.4610340000000  0.5185740000000 1.0
C      1  0.5582870000000  0.4606380000000  0.4810250000000 1.0
C      1  0.5133480000000  0.4407410000000  0.4639070000000 1.0
C      1  0.4833150000000  0.5613550000000  0.4619190000000 1.0
C      1  0.5181200000000  0.5578800000000  0.5389610000000 1.0
C      1  0.4379770000000  0.4818410000000  0.5389240000000 1.0
C      1  0.4822120000000  0.5382790000000  0.4405410000000 1.0
C      1  0.5358360000000  0.4392120000000  0.4827570000000 1.0
C      1  0.5577030000000  0.4814670000000  0.4601880000000 1.0
C      1  0.5601560000000  0.5138530000000  0.5374480000000 1.0
C      1  0.4406990000000  0.5187620000000  0.4621860000000 1.0
C      1  0.5159800000000  0.5347050000000  0.5599700000000 1.0
C      1  0.5129580000000  0.4621340000000  0.4399460000000 1.0
C      1  0.4825690000000  0.4618890000000  0.5605850000000 1.0
C      1  0.4637210000000  0.4425170000000  0.5190630000000 1.0
C      1  0.4626890000000  0.5592480000000  0.4827850000000 1.0
C      1  0.5393460000000  0.5585610000000  0.5182750000000 1.0
C      1  0.5796490000000  0.4373240000000  0.4562230000000 1.0
C      1  0.4592910000000  0.5835130000000  0.4397730000000 1.0
C      1  0.4378120000000  0.4593820000000  0.5824350000000 1.0
C      1  0.4184860000000  0.4370370000000  0.5421400000000 1.0
C      1  0.5835790000000  0.5587970000000  0.5414080000000 1.0
C      1  0.4174510000000  0.5621610000000  0.4586460000000 1.0
C      1  0.5430710000000  0.5793290000000  0.5623830000000 1.0
C      1  0.4595860000000  0.4178780000000  0.5631540000000 1.0
C      1  0.5384750000000  0.4177650000000  0.4367770000000 1.0
C      1  0.5588180000000  0.4581170000000  0.4162230000000 1.0
C      1  0.4386610000000  0.5435810000000  0.4175240000000 1.0
C      1  0.5630650000000  0.5388640000000  0.5821210000000 1.0
C      1  0.4584360000000  0.4392690000000  0.5831960000000 1.0
C      1  0.4383690000000  0.5829290000000  0.4596980000000 1.0
C      1  0.5794020000000  0.4579840000000  0.4361110000000 1.0
C      1  0.5384050000000  0.4380210000000  0.4162600000000 1.0
C      1  0.5430510000000  0.5592280000000  0.5823020000000 1.0
C      1  0.4594680000000  0.5639480000000  0.4184960000000 1.0
C      1  0.5634720000000  0.5794990000000  0.5421780000000 1.0
C      1  0.5591740000000  0.4171270000000  0.4564730000000 1.0
C      1  0.4395850000000  0.4176400000000  0.5424640000000 1.0
C      1  0.4170390000000  0.4578110000000  0.5624980000000 1.0
C      1  0.4177950000000  0.5421600000000  0.4377980000000 1.0
C      1  0.5832110000000  0.5382200000000  0.5610700000000 1.0
C      1  0.6037970000000  0.5181910000000  0.4761940000000 1.0
C      1  0.4828080000000  0.6047050000000  0.5231680000000 1.0
C      1  0.5209360000000  0.5194390000000  0.3920650000000 1.0
C      1  0.3909560000000  0.5158100000000  0.5193810000000 1.0
C      1  0.6062910000000  0.4759900000000  0.5159580000000 1.0
C      1  0.3955630000000  0.4772510000000  0.4812590000000 1.0
C      1  0.5208890000000  0.6047270000000  0.4807130000000 1.0
C      1  0.5215310000000  0.3924190000000  0.5183290000000 1.0
C      1  0.4819820000000  0.5218250000000  0.6072710000000 1.0
C      1  0.5177610000000  0.4798200000000  0.6089260000000 1.0
C      1  0.4791760000000  0.3932690000000  0.4822490000000 1.0
C      1  0.4785250000000  0.4841090000000  0.3908060000000 1.0
C      1  0.4921400000000  0.4845700000000  0.5214410000000 1.0
C      1  0.5283180000000  0.4928240000000  0.4922680000000 1.0
C      1  0.4843360000000  0.5148140000000  0.4830870000000 1.0
C      1  0.5108130000000  0.5277830000000  0.5105910000000 1.0
C      1  0.5037600000000  0.5019830000000  0.5013300000000 1.0
END
