TITL C-4416-9524-1 3.08831353926407 125000 -1348.14401941543 0 0 189 (C1) n - 1
REM
REM in /rds/project/t2_vol4/rds-t2-cs072/BORA/CARBON/from-Arr/AIRSS/Generating-Clusters/GAP-ML-2020/Higher-Symm/SD-CG/HFTN-CG/C160-200
REM
REM
REM
REM
REM
REM ./C.cell (6b4489405718ea1b717e0baf1da4c2d9)
REM AIRSS Version 0.9.1 bugfix July 2018 build 013d7b7c2542+ Fri, 06 Jul 2018 19:26:36 +0100
REM compiler GCC version 9.3.0
REM options -cpp -mtune=generic -march=x86-64 -g -O0
REM seed 838761159 1366816982 -924052684 -1359068620 201754619 -1285009314 -340184803 -1135389901 519918824 -1817083283 1851803052 -1606350719 -2065931064 888299014 501252546 740019089 356237337 -114161531 1224798236 -925280008 -242041102 -89414979 -1069696373 -1670608202 -1408510948 -1507070390 115476593 -858770260 2029402431 790537671 524641889 -1098208559 -1285234019
REM
CELL 1.54180   50.00000   50.00000   50.00000   90.00000   90.00000   90.00000
LATT -1
SFAC C  
C      1  0.4149370000000  0.4440620000000  0.5488300000000 1.0
C      1  0.5837080000000  0.5500920000000  0.5475000000000 1.0
C      1  0.4110990000000  0.5513620000000  0.4497430000000 1.0
C      1  0.5876730000000  0.4480670000000  0.4513210000000 1.0
C      1  0.4603440000000  0.4136950000000  0.5539390000000 1.0
C      1  0.5416770000000  0.5585820000000  0.5784110000000 1.0
C      1  0.4522960000000  0.5824170000000  0.4386880000000 1.0
C      1  0.5478380000000  0.4407260000000  0.4183240000000 1.0
C      1  0.4585820000000  0.4712750000000  0.4965220000000 1.0
C      1  0.5393190000000  0.4964680000000  0.5333640000000 1.0
C      1  0.4624340000000  0.5353950000000  0.5047140000000 1.0
C      1  0.5397340000000  0.5057380000000  0.4725350000000 1.0
C      1  0.4208390000000  0.4407750000000  0.4790530000000 1.0
C      1  0.5812940000000  0.4833780000000  0.5636420000000 1.0
C      1  0.4159020000000  0.5629710000000  0.5237920000000 1.0
C      1  0.5793180000000  0.5174060000000  0.4406300000000 1.0
C      1  0.4913720000000  0.5033120000000  0.3835680000000 1.0
C      1  0.5034820000000  0.3882340000000  0.4983410000000 1.0
C      1  0.4935290000000  0.4900850000000  0.6135080000000 1.0
C      1  0.5094110000000  0.6089500000000  0.4993750000000 1.0
C      1  0.4395250000000  0.4329380000000  0.5608980000000 1.0
C      1  0.5564210000000  0.5621630000000  0.5522690000000 1.0
C      1  0.4321750000000  0.5631850000000  0.4329010000000 1.0
C      1  0.5656170000000  0.4335770000000  0.4394360000000 1.0
C      1  0.5401140000000  0.5467130000000  0.4563390000000 1.0
C      1  0.4601020000000  0.4605020000000  0.4512550000000 1.0
C      1  0.5485030000000  0.4495030000000  0.5537310000000 1.0
C      1  0.4502090000000  0.5567300000000  0.5676930000000 1.0
C      1  0.5036310000000  0.5273330000000  0.4379450000000 1.0
C      1  0.4964150000000  0.4437320000000  0.4680600000000 1.0
C      1  0.5065820000000  0.4672170000000  0.5565210000000 1.0
C      1  0.4878030000000  0.5547780000000  0.5388460000000 1.0
C      1  0.5831920000000  0.4932310000000  0.4260350000000 1.0
C      1  0.4177390000000  0.4252650000000  0.5030000000000 1.0
C      1  0.5824160000000  0.5089740000000  0.5762120000000 1.0
C      1  0.4167870000000  0.5734440000000  0.4969430000000 1.0
C      1  0.4409300000000  0.5360150000000  0.4237830000000 1.0
C      1  0.5556880000000  0.4258800000000  0.4669310000000 1.0
C      1  0.4440230000000  0.4605140000000  0.5728210000000 1.0
C      1  0.5670030000000  0.5855300000000  0.5344960000000 1.0
C      1  0.3894510000000  0.4932850000000  0.5137350000000 1.0
C      1  0.6093180000000  0.5133540000000  0.5073950000000 1.0
C      1  0.3893630000000  0.5062640000000  0.4881270000000 1.0
C      1  0.6090960000000  0.4868940000000  0.4958230000000 1.0
C      1  0.4662550000000  0.5191510000000  0.5339760000000 1.0
C      1  0.5338340000000  0.5342880000000  0.4839320000000 1.0
C      1  0.4650190000000  0.4848210000000  0.4689870000000 1.0
C      1  0.5303980000000  0.4708260000000  0.5186550000000 1.0
C      1  0.5161200000000  0.4629350000000  0.4734930000000 1.0
C      1  0.4840340000000  0.4755500000000  0.5409240000000 1.0
C      1  0.5125550000000  0.5431930000000  0.5279750000000 1.0
C      1  0.4831070000000  0.5279390000000  0.4583990000000 1.0
C      1  0.5563480000000  0.5716410000000  0.4539410000000 1.0
C      1  0.4430680000000  0.4585000000000  0.4266950000000 1.0
C      1  0.5586540000000  0.4238120000000  0.5491020000000 1.0
C      1  0.4335270000000  0.5388340000000  0.5813270000000 1.0
C      1  0.4940600000000  0.5577850000000  0.5916160000000 1.0
C      1  0.5240030000000  0.5959370000000  0.4532650000000 1.0
C      1  0.4774000000000  0.4572700000000  0.3995440000000 1.0
C      1  0.5112540000000  0.4059720000000  0.5500270000000 1.0
C      1  0.5202010000000  0.4323990000000  0.4163180000000 1.0
C      1  0.4864170000000  0.4088440000000  0.5664440000000 1.0
C      1  0.5176150000000  0.5724540000000  0.5847720000000 1.0
C      1  0.4802280000000  0.5825720000000  0.4289500000000 1.0
C      1  0.5398290000000  0.5537730000000  0.5276650000000 1.0
C      1  0.4572140000000  0.5247750000000  0.4472780000000 1.0
C      1  0.5415760000000  0.4512490000000  0.4768410000000 1.0
C      1  0.4589340000000  0.4777560000000  0.5530570000000 1.0
C      1  0.4414090000000  0.5701140000000  0.5397490000000 1.0
C      1  0.5494680000000  0.5196540000000  0.4460390000000 1.0
C      1  0.4508820000000  0.4464780000000  0.4768820000000 1.0
C      1  0.5524780000000  0.4778540000000  0.5591490000000 1.0
C      1  0.4752590000000  0.4205210000000  0.4283580000000 1.0
C      1  0.5274630000000  0.4207320000000  0.5902090000000 1.0
C      1  0.4786140000000  0.5976830000000  0.5772500000000 1.0
C      1  0.5251890000000  0.5695550000000  0.4154410000000 1.0
C      1  0.4719750000000  0.3958030000000  0.4460530000000 1.0
C      1  0.5261600000000  0.4439140000000  0.6085980000000 1.0
C      1  0.4750390000000  0.6082760000000  0.5506040000000 1.0
C      1  0.5270040000000  0.5517170000000  0.3911120000000 1.0
C      1  0.4954740000000  0.5749200000000  0.4069180000000 1.0
C      1  0.5046560000000  0.4106990000000  0.4247280000000 1.0
C      1  0.4975760000000  0.4190170000000  0.5905270000000 1.0
C      1  0.5079910000000  0.5972420000000  0.5736360000000 1.0
C      1  0.4441460000000  0.5068090000000  0.4643780000000 1.0
C      1  0.5534060000000  0.4645930000000  0.4987000000000 1.0
C      1  0.4447520000000  0.4971380000000  0.5377600000000 1.0
C      1  0.5537640000000  0.5392080000000  0.5066590000000 1.0
C      1  0.5171730000000  0.5158080000000  0.5723080000000 1.0
C      1  0.4814840000000  0.5776290000000  0.4757840000000 1.0
C      1  0.5204460000000  0.4799370000000  0.4131320000000 1.0
C      1  0.4825850000000  0.4323630000000  0.5144580000000 1.0
C      1  0.5608540000000  0.5137210000000  0.5950660000000 1.0
C      1  0.4382930000000  0.5906330000000  0.4892420000000 1.0
C      1  0.5644520000000  0.4888870000000  0.4039430000000 1.0
C      1  0.4378500000000  0.4061100000000  0.5074520000000 1.0
C      1  0.3995050000000  0.5380900000000  0.5219420000000 1.0
C      1  0.5979900000000  0.5183560000000  0.4635920000000 1.0
C      1  0.4014860000000  0.4630290000000  0.4804340000000 1.0
C      1  0.5996200000000  0.4819460000000  0.5404030000000 1.0
C      1  0.6002230000000  0.4667770000000  0.5153970000000 1.0
C      1  0.3978580000000  0.5116910000000  0.5351040000000 1.0
C      1  0.5998570000000  0.5335110000000  0.4882240000000 1.0
C      1  0.3984470000000  0.4882640000000  0.4667410000000 1.0
C      1  0.6070260000000  0.5092700000000  0.5357530000000 1.0
C      1  0.3929310000000  0.5343590000000  0.4937020000000 1.0
C      1  0.6060090000000  0.4909850000000  0.4674900000000 1.0
C      1  0.3936020000000  0.4651400000000  0.5080830000000 1.0
C      1  0.4730200000000  0.5371920000000  0.5576530000000 1.0
C      1  0.5156470000000  0.5532000000000  0.4411890000000 1.0
C      1  0.4854800000000  0.4473810000000  0.4422810000000 1.0
C      1  0.5229700000000  0.4507040000000  0.5389820000000 1.0
C      1  0.5088350000000  0.4260700000000  0.5278980000000 1.0
C      1  0.4905160000000  0.5289680000000  0.5824630000000 1.0
C      1  0.4993180000000  0.5787580000000  0.4512610000000 1.0
C      1  0.5018970000000  0.4559030000000  0.4169560000000 1.0
C      1  0.5464830000000  0.5344780000000  0.3816710000000 1.0
C      1  0.4526100000000  0.3844720000000  0.4618170000000 1.0
C      1  0.5390670000000  0.4675190000000  0.6159760000000 1.0
C      1  0.4533040000000  0.5985090000000  0.5354160000000 1.0
C      1  0.4044560000000  0.4418290000000  0.5222440000000 1.0
C      1  0.5947840000000  0.5261640000000  0.5564880000000 1.0
C      1  0.4037130000000  0.5557510000000  0.4776670000000 1.0
C      1  0.5957360000000  0.4749910000000  0.4452830000000 1.0
C      1  0.5484420000000  0.4942310000000  0.6118290000000 1.0
C      1  0.4567130000000  0.6026610000000  0.5074580000000 1.0
C      1  0.5462040000000  0.5075730000000  0.3888260000000 1.0
C      1  0.4519970000000  0.3891860000000  0.4891790000000 1.0
C      1  0.5870790000000  0.5674590000000  0.5243510000000 1.0
C      1  0.4140140000000  0.5259860000000  0.4358350000000 1.0
C      1  0.5832730000000  0.4362490000000  0.4777040000000 1.0
C      1  0.4168160000000  0.4696950000000  0.5623100000000 1.0
C      1  0.4904780000000  0.5035900000000  0.5300440000000 1.0
C      1  0.5078810000000  0.5347170000000  0.4985130000000 1.0
C      1  0.4895020000000  0.5010340000000  0.4717900000000 1.0
C      1  0.5075220000000  0.4743210000000  0.5014030000000 1.0
C      1  0.5475940000000  0.4046260000000  0.5073990000000 1.0
C      1  0.4510400000000  0.4996320000000  0.5958800000000 1.0
C      1  0.5544210000000  0.5993100000000  0.4914550000000 1.0
C      1  0.4471980000000  0.4962930000000  0.4003820000000 1.0
C      1  0.5173880000000  0.3895290000000  0.4727330000000 1.0
C      1  0.4794920000000  0.4651950000000  0.6110110000000 1.0
C      1  0.5225480000000  0.6098240000000  0.5246020000000 1.0
C      1  0.4785610000000  0.5294790000000  0.3862300000000 1.0
C      1  0.5692710000000  0.5787380000000  0.4787250000000 1.0
C      1  0.4313090000000  0.4834830000000  0.4208160000000 1.0
C      1  0.5662080000000  0.4214400000000  0.5213750000000 1.0
C      1  0.4299640000000  0.5123990000000  0.5807120000000 1.0
C      1  0.5185980000000  0.4965770000000  0.3887200000000 1.0
C      1  0.4760130000000  0.3882080000000  0.5060480000000 1.0
C      1  0.5213810000000  0.4909020000000  0.6193510000000 1.0
C      1  0.4830700000000  0.6004830000000  0.4948930000000 1.0
C      1  0.5054160000000  0.6094880000000  0.5472930000000 1.0
C      1  0.4967640000000  0.5521660000000  0.3888280000000 1.0
C      1  0.5018960000000  0.3927810000000  0.4476510000000 1.0
C      1  0.4962480000000  0.4422440000000  0.6083430000000 1.0
C      1  0.4430090000000  0.4920140000000  0.5091040000000 1.0
C      1  0.5565610000000  0.5100890000000  0.5140630000000 1.0
C      1  0.4443940000000  0.5153860000000  0.4929220000000 1.0
C      1  0.5569000000000  0.4929780000000  0.4915060000000 1.0
C      1  0.5158350000000  0.4907310000000  0.4612060000000 1.0
C      1  0.4816750000000  0.4620500000000  0.5136750000000 1.0
C      1  0.5157570000000  0.5155230000000  0.5419640000000 1.0
C      1  0.4838590000000  0.5459620000000  0.4844730000000 1.0
C      1  0.5812140000000  0.5562670000000  0.4969820000000 1.0
C      1  0.4175420000000  0.4985130000000  0.4452890000000 1.0
C      1  0.5799690000000  0.4456570000000  0.5059190000000 1.0
C      1  0.4177100000000  0.4991850000000  0.5551910000000 1.0
C      1  0.5366170000000  0.4117360000000  0.5651560000000 1.0
C      1  0.4703330000000  0.5724880000000  0.5845280000000 1.0
C      1  0.5424890000000  0.5868540000000  0.4337280000000 1.0
C      1  0.4580030000000  0.4389870000000  0.4105690000000 1.0
C      1  0.5509740000000  0.6030650000000  0.5200020000000 1.0
C      1  0.4523790000000  0.5245820000000  0.3989370000000 1.0
C      1  0.5436080000000  0.4015050000000  0.4789570000000 1.0
C      1  0.4540670000000  0.4710200000000  0.5985590000000 1.0
C      1  0.4541720000000  0.5860590000000  0.4663540000000 1.0
C      1  0.5471510000000  0.4676090000000  0.4094090000000 1.0
C      1  0.4629130000000  0.4103320000000  0.5244870000000 1.0
C      1  0.5401190000000  0.5309340000000  0.5855210000000 1.0
C      1  0.5207290000000  0.4012350000000  0.5174480000000 1.0
C      1  0.4774480000000  0.5100330000000  0.6009090000000 1.0
C      1  0.5292960000000  0.6056940000000  0.4788820000000 1.0
C      1  0.4716240000000  0.4834310000000  0.3909330000000 1.0
C      1  0.4766430000000  0.4326200000000  0.4852990000000 1.0
C      1  0.5240710000000  0.4853220000000  0.5708420000000 1.0
C      1  0.4645080000000  0.5592920000000  0.5216300000000 1.0
C      1  0.5220950000000  0.5041040000000  0.4351680000000 1.0
C      1  0.4984890000000  0.5038070000000  0.5005030000000 1.0
END
