TITL C-44215-2651-1 -10.5952120102918 125000 -1242.94766037567 0 0 170 (C1) n - 1
REM
REM in /rds/project/t2_vol4/rds-t2-cs072/BORA/CARBON/from-Arr/AIRSS/Generating-Clusters/GAP-ML-2020/Higher-Symm/SD-CG/HFTN-CG/C160-200
REM
REM
REM
REM
REM
REM ./C.cell (6b4489405718ea1b717e0baf1da4c2d9)
REM AIRSS Version 0.9.1 bugfix July 2018 build 013d7b7c2542+ Fri, 06 Jul 2018 19:26:36 +0100
REM compiler GCC version 9.3.0
REM options -cpp -mtune=generic -march=x86-64 -g -O0
REM seed 1149394107 -1334571270 881518349 562816123 317620085 -1395431134 1360511130 -2131330968 -2059870212 2124940771 -2045085501 967750457 1522946514 -1631793357 1069864952 232066737 683081750 -249848037 -1170160822 -2115926112 268243283 -1367289260 1048264589 1783253212 1535240299 113413951 993688548 -1692319969 -1924154340 1834639146 1328285388 1566453916 -1869653026
REM
CELL 1.54180   50.00000   50.00000   50.00000   90.00000   90.00000   90.00000
LATT -1
SFAC C  
C      1  0.4848480000000  0.3970060000000  0.5210000000000 1.0
C      1  0.4830720000000  0.5253580000000  0.6043100000000 1.0
C      1  0.4883250000000  0.5985970000000  0.4830470000000 1.0
C      1  0.4800110000000  0.4852340000000  0.3861640000000 1.0
C      1  0.5181400000000  0.3995390000000  0.4820680000000 1.0
C      1  0.5135110000000  0.5254230000000  0.3943530000000 1.0
C      1  0.5207600000000  0.5985290000000  0.5242100000000 1.0
C      1  0.5160500000000  0.4861070000000  0.6141150000000 1.0
C      1  0.5570810000000  0.4381740000000  0.4705070000000 1.0
C      1  0.5584560000000  0.4849380000000  0.5952800000000 1.0
C      1  0.5605000000000  0.5657540000000  0.5158060000000 1.0
C      1  0.5487250000000  0.5232500000000  0.4306230000000 1.0
C      1  0.4476670000000  0.4296740000000  0.5208630000000 1.0
C      1  0.4392580000000  0.4839960000000  0.4081290000000 1.0
C      1  0.4497430000000  0.5660830000000  0.4812840000000 1.0
C      1  0.4489760000000  0.5239910000000  0.5695300000000 1.0
C      1  0.4981540000000  0.4135760000000  0.5749250000000 1.0
C      1  0.4981900000000  0.5768460000000  0.5900750000000 1.0
C      1  0.4985590000000  0.5950330000000  0.4314590000000 1.0
C      1  0.4945900000000  0.4327660000000  0.4062350000000 1.0
C      1  0.5017740000000  0.4130180000000  0.4264640000000 1.0
C      1  0.5014630000000  0.5773830000000  0.4092250000000 1.0
C      1  0.5030190000000  0.5935730000000  0.5679490000000 1.0
C      1  0.5029590000000  0.4338080000000  0.5948560000000 1.0
C      1  0.4949480000000  0.5358950000000  0.5546380000000 1.0
C      1  0.5000820000000  0.5529010000000  0.4642560000000 1.0
C      1  0.4910330000000  0.4651070000000  0.4500280000000 1.0
C      1  0.5033740000000  0.4444040000000  0.5285250000000 1.0
C      1  0.4990150000000  0.5364010000000  0.4418410000000 1.0
C      1  0.5115060000000  0.5489850000000  0.5123750000000 1.0
C      1  0.5115760000000  0.4652630000000  0.5480720000000 1.0
C      1  0.5015810000000  0.4431690000000  0.4649930000000 1.0
C      1  0.4526180000000  0.4314230000000  0.5692980000000 1.0
C      1  0.4500660000000  0.5726760000000  0.5747610000000 1.0
C      1  0.4520490000000  0.5754470000000  0.4338300000000 1.0
C      1  0.4484830000000  0.4306460000000  0.4249900000000 1.0
C      1  0.5469560000000  0.4337510000000  0.4259000000000 1.0
C      1  0.5488320000000  0.5723250000000  0.4257200000000 1.0
C      1  0.5479510000000  0.5750060000000  0.5630330000000 1.0
C      1  0.5500340000000  0.4311700000000  0.5809650000000 1.0
C      1  0.4221230000000  0.4733160000000  0.4284090000000 1.0
C      1  0.4398230000000  0.4528590000000  0.5043720000000 1.0
C      1  0.4517750000000  0.5128770000000  0.5395710000000 1.0
C      1  0.4448740000000  0.5399020000000  0.4942460000000 1.0
C      1  0.5765450000000  0.4742040000000  0.5763990000000 1.0
C      1  0.5649720000000  0.4544780000000  0.4929520000000 1.0
C      1  0.5472270000000  0.5117420000000  0.4622970000000 1.0
C      1  0.5703380000000  0.5405360000000  0.5011840000000 1.0
C      1  0.5252470000000  0.5006320000000  0.3910160000000 1.0
C      1  0.5275820000000  0.3949190000000  0.5087240000000 1.0
C      1  0.5266010000000  0.5126760000000  0.6126210000000 1.0
C      1  0.5341950000000  0.6042090000000  0.4981780000000 1.0
C      1  0.4705330000000  0.5001700000000  0.6064290000000 1.0
C      1  0.4728160000000  0.3946870000000  0.4953090000000 1.0
C      1  0.4700690000000  0.5120930000000  0.3872220000000 1.0
C      1  0.4725940000000  0.6020850000000  0.5054330000000 1.0
C      1  0.5295550000000  0.4222850000000  0.4661930000000 1.0
C      1  0.5363720000000  0.4689230000000  0.6051460000000 1.0
C      1  0.5294200000000  0.5693050000000  0.5213580000000 1.0
C      1  0.5225080000000  0.5366500000000  0.4201300000000 1.0
C      1  0.4770440000000  0.4226190000000  0.5322390000000 1.0
C      1  0.4606450000000  0.4677950000000  0.3974960000000 1.0
C      1  0.4785730000000  0.5748870000000  0.4698630000000 1.0
C      1  0.4748410000000  0.5371810000000  0.5793120000000 1.0
C      1  0.5618400000000  0.4176190000000  0.5389430000000 1.0
C      1  0.5596390000000  0.5354190000000  0.5835400000000 1.0
C      1  0.5647330000000  0.5825670000000  0.4675450000000 1.0
C      1  0.5583500000000  0.4752960000000  0.4115000000000 1.0
C      1  0.4391920000000  0.4184860000000  0.4695200000000 1.0
C      1  0.4389740000000  0.5357140000000  0.4153310000000 1.0
C      1  0.4378470000000  0.5806170000000  0.5313350000000 1.0
C      1  0.4390850000000  0.4735670000000  0.5796400000000 1.0
C      1  0.5180270000000  0.4020980000000  0.5570840000000 1.0
C      1  0.5181610000000  0.5585250000000  0.5989510000000 1.0
C      1  0.5206550000000  0.6019360000000  0.4498390000000 1.0
C      1  0.5142030000000  0.4522780000000  0.3967060000000 1.0
C      1  0.4825880000000  0.4029660000000  0.4469490000000 1.0
C      1  0.4807690000000  0.5593170000000  0.3995660000000 1.0
C      1  0.4809190000000  0.6003740000000  0.5509920000000 1.0
C      1  0.4819410000000  0.4527900000000  0.6013720000000 1.0
C      1  0.4264100000000  0.4460120000000  0.4342740000000 1.0
C      1  0.4357360000000  0.4383970000000  0.5476130000000 1.0
C      1  0.4337960000000  0.5501170000000  0.5672520000000 1.0
C      1  0.4371690000000  0.5612280000000  0.4537450000000 1.0
C      1  0.5722290000000  0.4467070000000  0.5718520000000 1.0
C      1  0.5651880000000  0.4450370000000  0.4446860000000 1.0
C      1  0.5640700000000  0.5494600000000  0.4338590000000 1.0
C      1  0.5660910000000  0.5614010000000  0.5453080000000 1.0
C      1  0.5256460000000  0.5211130000000  0.5112860000000 1.0
C      1  0.5086460000000  0.5041850000000  0.4966230000000 1.0
C      1  0.5195090000000  0.4778260000000  0.4926670000000 1.0
C      1  0.5348430000000  0.4779780000000  0.5359130000000 1.0
C      1  0.4795010000000  0.5074440000000  0.4963540000000 1.0
C      1  0.4740050000000  0.4819270000000  0.5102230000000 1.0
C      1  0.4959950000000  0.4617960000000  0.5058610000000 1.0
C      1  0.4669790000000  0.4757660000000  0.4631810000000 1.0
C      1  0.5443440000000  0.4121180000000  0.5611350000000 1.0
C      1  0.5431270000000  0.5585080000000  0.5856330000000 1.0
C      1  0.5471420000000  0.5915730000000  0.4464330000000 1.0
C      1  0.5410410000000  0.4525230000000  0.4062570000000 1.0
C      1  0.4557990000000  0.4130890000000  0.4461350000000 1.0
C      1  0.4547830000000  0.5593150000000  0.4109880000000 1.0
C      1  0.4540340000000  0.5901680000000  0.5531470000000 1.0
C      1  0.4560530000000  0.4518030000000  0.5884010000000 1.0
C      1  0.5744930000000  0.5368840000000  0.5581910000000 1.0
C      1  0.5768920000000  0.5576600000000  0.4579150000000 1.0
C      1  0.5746210000000  0.4707960000000  0.4348890000000 1.0
C      1  0.5789140000000  0.4401000000000  0.5451920000000 1.0
C      1  0.4270590000000  0.5370300000000  0.4419180000000 1.0
C      1  0.4219020000000  0.5569570000000  0.5423230000000 1.0
C      1  0.4247000000000  0.4640020000000  0.5548630000000 1.0
C      1  0.4209440000000  0.4404530000000  0.4617230000000 1.0
C      1  0.5417370000000  0.5309340000000  0.4859510000000 1.0
C      1  0.5273140000000  0.4895000000000  0.4649670000000 1.0
C      1  0.5407360000000  0.4635740000000  0.5089210000000 1.0
C      1  0.5308580000000  0.5067350000000  0.5368090000000 1.0
C      1  0.4649730000000  0.5292740000000  0.5148020000000 1.0
C      1  0.4693380000000  0.4885090000000  0.5383340000000 1.0
C      1  0.4621460000000  0.4623710000000  0.4884540000000 1.0
C      1  0.4705290000000  0.5040130000000  0.4668640000000 1.0
C      1  0.5262890000000  0.5645760000000  0.4116800000000 1.0
C      1  0.5279740000000  0.4168920000000  0.4369470000000 1.0
C      1  0.5301790000000  0.4425520000000  0.5974740000000 1.0
C      1  0.5273350000000  0.5924450000000  0.5529780000000 1.0
C      1  0.4724580000000  0.5649360000000  0.5890620000000 1.0
C      1  0.4742750000000  0.4168410000000  0.5610730000000 1.0
C      1  0.4669860000000  0.4414050000000  0.4060750000000 1.0
C      1  0.4739110000000  0.5893810000000  0.4443390000000 1.0
C      1  0.4876170000000  0.5340090000000  0.3883590000000 1.0
C      1  0.4912360000000  0.3941910000000  0.4730220000000 1.0
C      1  0.4886540000000  0.4784530000000  0.6116700000000 1.0
C      1  0.4913030000000  0.6054340000000  0.5260560000000 1.0
C      1  0.5092680000000  0.5341060000000  0.6106940000000 1.0
C      1  0.5105010000000  0.3911290000000  0.5310960000000 1.0
C      1  0.5073690000000  0.4781260000000  0.3869650000000 1.0
C      1  0.5148520000000  0.6070180000000  0.4772070000000 1.0
C      1  0.4258140000000  0.5202930000000  0.4847000000000 1.0
C      1  0.4123970000000  0.4864760000000  0.4529060000000 1.0
C      1  0.4168260000000  0.4718140000000  0.5038780000000 1.0
C      1  0.4206040000000  0.5086640000000  0.5315170000000 1.0
C      1  0.5835700000000  0.5178220000000  0.5156560000000 1.0
C      1  0.5879450000000  0.4861010000000  0.5520680000000 1.0
C      1  0.5865070000000  0.4697950000000  0.5044850000000 1.0
C      1  0.5805340000000  0.5080600000000  0.4697370000000 1.0
C      1  0.5086780000000  0.5114070000000  0.5546800000000 1.0
C      1  0.5196970000000  0.5512140000000  0.4830190000000 1.0
C      1  0.5068400000000  0.4880850000000  0.4449880000000 1.0
C      1  0.5301950000000  0.4377600000000  0.5165060000000 1.0
C      1  0.4885960000000  0.5114620000000  0.4460940000000 1.0
C      1  0.4871040000000  0.5446270000000  0.5281930000000 1.0
C      1  0.4931980000000  0.4868020000000  0.5541430000000 1.0
C      1  0.4848920000000  0.4431790000000  0.4873310000000 1.0
C      1  0.5850730000000  0.5381220000000  0.4752120000000 1.0
C      1  0.5862480000000  0.4915510000000  0.4476020000000 1.0
C      1  0.5889220000000  0.4644670000000  0.5327970000000 1.0
C      1  0.5858550000000  0.5142210000000  0.5436700000000 1.0
C      1  0.4084260000000  0.5351270000000  0.5341480000000 1.0
C      1  0.4119900000000  0.4792570000000  0.5349600000000 1.0
C      1  0.4109190000000  0.4655610000000  0.4736110000000 1.0
C      1  0.4176170000000  0.5150090000000  0.4580790000000 1.0
C      1  0.4452750000000  0.5116670000000  0.4015310000000 1.0
C      1  0.4485620000000  0.4100680000000  0.4953830000000 1.0
C      1  0.4475860000000  0.4992440000000  0.5882480000000 1.0
C      1  0.4483450000000  0.5861020000000  0.5055340000000 1.0
C      1  0.5520490000000  0.5126080000000  0.5992480000000 1.0
C      1  0.5473590000000  0.4139380000000  0.5155400000000 1.0
C      1  0.5491590000000  0.5011850000000  0.4075620000000 1.0
C      1  0.5587640000000  0.5886090000000  0.4944140000000 1.0
C      1  0.5864850000000  0.4975000000000  0.4968660000000 1.0
C      1  0.4198650000000  0.5013050000000  0.5034040000000 1.0
END
